# generated using pymatgen
data_V85Zn86O256
_symmetry_space_group_name_H-M   'P 1'
_cell_length_a   16.92657089
_cell_length_b   16.91794547
_cell_length_c   16.92316574
_cell_angle_alpha   90.04244520
_cell_angle_beta   90.07159100
_cell_angle_gamma   90.10104194
_symmetry_Int_Tables_number   1
_chemical_formula_structural   V85Zn86O256
_chemical_formula_sum   'V85 Zn86 O256'
_cell_volume   4846.15252736
_cell_formula_units_Z   1
loop_
 _symmetry_equiv_pos_site_id
 _symmetry_equiv_pos_as_xyz
  1  'x, y, z'
loop_
 _atom_site_type_symbol
 _atom_site_label
 _atom_site_symmetry_multiplicity
 _atom_site_fract_x
 _atom_site_fract_y
 _atom_site_fract_z
 _atom_site_occupancy
  V  V0  1  0.00140176  0.49890969  0.50202232  1
  V  V1  1  0.62073474  0.87297436  0.75073742  1
  V  V2  1  0.75020422  0.62154562  0.87635991  1
  V  V3  1  0.12929098  0.50519726  0.12117429  1
  V  V4  1  0.87212603  0.63014905  0.74607881  1
  V  V5  1  0.87571635  0.37517405  0.50130266  1
  V  V6  1  -0.00485076  0.63549668  0.62558123  1
  V  V7  1  0.49684033  0.37704791  0.38479243  1
  V  V8  1  0.49669397  0.74755989  0.75391921  1
  V  V9  1  0.25553491  0.87876653  0.12641823  1
  V  V10  1  0.24588428  0.37811452  0.64129298  1
  V  V11  1  0.75257935  0.37867384  0.12951058  1
  V  V12  1  0.63163330  0.50375049  0.13352264  1
  V  V13  1  0.49747221  0.61747739  0.12103631  1
  V  V14  1  0.49606633  0.89215035  0.38083240  1
  V  V15  1  0.87164367  0.24921731  0.12405037  1
  V  V16  1  0.24798224  0.62009695  0.87438463  1
  V  V17  1  0.37830743  0.49511205  0.38795801  1
  V  V18  1  0.63690040  0.25223125  0.88581787  1
  V  V19  1  -0.00188584  0.00009022  0.50145966  1
  V  V20  1  0.11880353  0.74677426  0.88072815  1
  V  V21  1  0.00477062  -0.00191639  0.00044486  1
  V  V22  1  0.87748511  0.87228783  -0.00047477  1
  V  V23  1  0.49763014  0.37605725  0.88988842  1
  V  V24  1  0.12411638  0.49758732  0.64128991  1
  V  V25  1  0.75180841  0.87876437  0.13201965  1
  V  V26  1  0.01259013  0.25262205  0.75483688  1
  V  V27  1  0.12536575  0.13154451  0.49851715  1
  V  V28  1  0.13172293  0.87874534  0.25028810  1
  V  V29  1  0.45029778  0.07091560  0.57146761  1
  V  V30  1  0.62510383  0.00274324  0.62508380  1
  V  V31  1  0.25989320  0.37707433  0.11508323  1
  V  V32  1  0.13574493  0.00064149  0.62828483  1
  V  V33  1  0.75549676  0.74649968  0.50186561  1
  V  V34  1  0.88037987  0.12991967  0.25289708  1
  V  V35  1  0.87511404  0.25041001  0.62796654  1
  V  V36  1  0.00254053  0.62589234  0.11938445  1
  V  V37  1  0.25206735  0.26185661  0.49207992  1
  V  V38  1  0.74981657  0.00140498  0.75111574  1
  V  V39  1  0.00405856  0.37105430  0.36716522  1
  V  V40  1  0.37461624  0.62555195  0.24922110  1
  V  V41  1  0.61955845  0.74798429  0.87703571  1
  V  V42  1  0.38815857  -0.00117310  0.87321215  1
  V  V43  1  0.49692566  0.62048462  0.62162927  1
  V  V44  1  0.01399737  0.37076919  0.87297557  1
  V  V45  1  0.86939885  0.50112398  0.36763706  1
  V  V46  1  0.87180666  -0.00404003  0.36971070  1
  V  V47  1  -0.00137124  0.87307698  0.37416568  1
  V  V48  1  0.24497090  0.11559165  0.86920752  1
  V  V49  1  0.87280678  0.36980133  -0.00351678  1
  V  V50  1  0.74871037  0.37547709  0.62559211  1
  V  V51  1  0.37779527  0.26055967  0.62206421  1
  V  V52  1  -0.00004904  0.74772313  0.24923773  1
  V  V53  1  0.62774015  0.88671736  0.25170801  1
  V  V54  1  0.38931047  0.87925771  -0.00384120  1
  V  V55  1  0.62090047  0.75107641  0.37337119  1
  V  V56  1  0.12570317  0.87959405  0.75971428  1
  V  V57  1  0.00496620  0.50003487  -0.00283111  1
  V  V58  1  0.13536089  0.00591145  0.12847341  1
  V  V59  1  0.74766629  0.11992395  0.36610494  1
  V  V60  1  0.75712008  0.86992221  0.62637740  1
  V  V61  1  0.62486236  0.11876107  0.50193627  1
  V  V62  1  0.74974658  0.24787356  0.49950395  1
  V  V63  1  0.88119564  -0.00053299  0.87716727  1
  V  V64  1  0.69473688  0.08016776  0.93509915  1
  V  V65  1  0.25072861  0.75135244  0.49942681  1
  V  V66  1  0.00548458  0.13312152  0.12931085  1
  V  V67  1  0.87047252  0.12753277  0.75643273  1
  V  V68  1  0.61931105  0.61669247  -0.00122879  1
  V  V69  1  0.49867738  0.24413484  0.74949789  1
  V  V70  1  0.25272716  0.49620028  0.25017284  1
  V  V71  1  0.37879769  0.25172547  0.11399901  1
  V  V72  1  0.62440088  0.25040420  0.37104358  1
  V  V73  1  0.37301299  0.74979024  0.62569054  1
  V  V74  1  0.37645087  0.74981626  0.12601907  1
  V  V75  1  -0.00085577  0.12577439  0.62708878  1
  V  V76  1  0.25077748  0.62240331  0.37754551  1
  V  V77  1  0.37570162  0.49286391  0.87834509  1
  V  V78  1  0.12594587  0.62401458  0.50337372  1
  V  V79  1  0.62185821  0.37412147  0.75169717  1
  V  V80  1  0.50723717  0.12014736  0.10807471  1
  V  V81  1  0.62198759  0.62032009  0.49820049  1
  V  V82  1  0.24458223  0.25158219  -0.00953968  1
  V  V83  1  0.61793182  0.49730523  0.62230931  1
  V  V84  1  0.49729025  0.25006922  0.24635953  1
  Zn  Zn85  1  0.24562981  0.10778174  0.35335062  1
  Zn  Zn86  1  0.12461521  0.36947358  0.24202734  1
  Zn  Zn87  1  0.25302522  0.87851369  0.62966825  1
  Zn  Zn88  1  0.87664391  0.49842812  0.87298772  1
  Zn  Zn89  1  0.12579969  0.74692971  0.37545211  1
  Zn  Zn90  1  0.63043754  0.38095821  0.25332848  1
  Zn  Zn91  1  0.74343572  0.61922293  0.36755330  1
  Zn  Zn92  1  0.24744636  0.74895758  0.00036925  1
  Zn  Zn93  1  0.62984799  0.00644176  0.11698909  1
  Zn  Zn94  1  0.38228031  0.87910769  0.50192609  1
  Zn  Zn95  1  0.12105643  0.24417412  0.36152607  1
  Zn  Zn96  1  0.37266234  0.11864775  0.74506876  1
  Zn  Zn97  1  0.87761274  0.86974857  0.50423277  1
  Zn  Zn98  1  0.74940405  0.50036421  0.74963400  1
  Zn  Zn99  1  0.12409562  0.12884384  -0.00460155  1
  Zn  Zn100  1  0.36562331  0.61688044  0.74758458  1
  Zn  Zn101  1  -0.00679012  0.75885555  0.75247883  1
  Zn  Zn102  1  0.75006269  0.74675754  0.00394110  1
  Zn  Zn103  1  0.86736121  0.62095988  0.24261605  1
  Zn  Zn104  1  0.49987938  0.75278864  0.25099935  1
  Zn  Zn105  1  0.87368363  0.74915711  0.12559728  1
  Zn  Zn106  1  0.36975626  0.11315062  0.24835694  1
  Zn  Zn107  1  0.19234954  0.19306389  0.18889390  1
  Zn  Zn108  1  0.19299181  0.18705644  0.68596981  1
  Zn  Zn109  1  0.18906840  0.68953009  0.18799950  1
  Zn  Zn110  1  0.18378136  0.69007889  0.69260174  1
  Zn  Zn111  1  0.68943014  0.18845142  0.18484576  1
  Zn  Zn112  1  0.68655205  0.18777732  0.69005863  1
  Zn  Zn113  1  0.68887941  0.69154113  0.18969547  1
  Zn  Zn114  1  0.68663634  0.68626807  0.68688995  1
  Zn  Zn115  1  0.31537084  0.30986790  0.30705611  1
  Zn  Zn116  1  0.31394405  0.30915207  0.81330526  1
  Zn  Zn117  1  0.31693512  0.94433097  0.31812958  1
  Zn  Zn118  1  0.30626735  0.81278437  0.81400553  1
  Zn  Zn119  1  0.81486137  0.31173764  0.31068017  1
  Zn  Zn120  1  0.81450890  0.31506564  0.81279069  1
  Zn  Zn121  1  0.80990294  0.80652175  0.31237195  1
  Zn  Zn122  1  0.80986824  0.81014723  0.81580448  1
  Zn  Zn123  1  0.18701699  0.43730507  0.44108152  1
  Zn  Zn124  1  0.18961310  0.43987295  0.93606590  1
  Zn  Zn125  1  0.17823110  0.92793941  0.44461745  1
  Zn  Zn126  1  0.19277580  0.93680823  0.94095700  1
  Zn  Zn127  1  0.68537547  0.43614956  0.43947437  1
  Zn  Zn128  1  0.68841609  0.43699154  0.94336070  1
  Zn  Zn129  1  0.68796519  0.93613439  0.43877220  1
  Zn  Zn130  1  0.68929473  0.91834250  0.93778960  1
  Zn  Zn131  1  0.31738917  0.06677832  0.06027156  1
  Zn  Zn132  1  0.28588512  0.04245670  0.50615579  1
  Zn  Zn133  1  0.31207920  0.56414478  0.05360607  1
  Zn  Zn134  1  0.30988071  0.55780485  0.56728174  1
  Zn  Zn135  1  0.81780230  0.05753054  0.06979079  1
  Zn  Zn136  1  0.81150011  0.06029771  0.56138096  1
  Zn  Zn137  1  0.81523864  0.56029646  0.06048067  1
  Zn  Zn138  1  0.81059745  0.56186240  0.56131399  1
  Zn  Zn139  1  0.44008276  0.43593061  0.18985003  1
  Zn  Zn140  1  0.43462062  0.43652118  0.69442657  1
  Zn  Zn141  1  0.44851062  0.93817621  0.18323175  1
  Zn  Zn142  1  0.43351507  0.93033258  0.69588600  1
  Zn  Zn143  1  0.93853756  0.43824856  0.18484131  1
  Zn  Zn144  1  0.93805629  0.44108355  0.69195886  1
  Zn  Zn145  1  0.94100801  0.94066560  0.18709502  1
  Zn  Zn146  1  0.94169224  0.93820250  0.69041932  1
  Zn  Zn147  1  0.06246055  0.06156664  0.31257097  1
  Zn  Zn148  1  0.06157451  0.06183627  0.81194523  1
  Zn  Zn149  1  0.06359978  0.55992767  0.31069690  1
  Zn  Zn150  1  0.05896195  0.56846493  0.81537027  1
  Zn  Zn151  1  0.55650828  0.06545693  0.30638573  1
  Zn  Zn152  1  0.55743808  0.06210406  0.80908943  1
  Zn  Zn153  1  0.55795942  0.56292063  0.31079176  1
  Zn  Zn154  1  0.55603183  0.55906694  0.81088323  1
  Zn  Zn155  1  0.42835144  0.19103841  0.42820222  1
  Zn  Zn156  1  0.43532981  0.18937600  0.93348608  1
  Zn  Zn157  1  0.43694680  0.68805363  0.43766871  1
  Zn  Zn158  1  0.43163695  0.68412312  0.93904302  1
  Zn  Zn159  1  0.93714394  0.18870583  0.43822592  1
  Zn  Zn160  1  0.93775873  0.18656722  0.93834096  1
  Zn  Zn161  1  0.93798548  0.68538899  0.43628805  1
  Zn  Zn162  1  0.93809762  0.68540642  0.93752026  1
  Zn  Zn163  1  0.06583131  0.31466641  0.06221378  1
  Zn  Zn164  1  0.06449200  0.31401601  0.56516970  1
  Zn  Zn165  1  0.06374206  0.81581966  0.06352390  1
  Zn  Zn166  1  0.06549603  0.81514184  0.56515658  1
  Zn  Zn167  1  0.56871318  0.31288789  0.06410909  1
  Zn  Zn168  1  0.56166258  0.30815618  0.56050731  1
  Zn  Zn169  1  0.56480258  0.80847586  0.06616322  1
  Zn  Zn170  1  0.56484469  0.81030779  0.56253445  1
  O  O171  1  0.11943517  0.11941519  0.12169219  1
  O  O172  1  0.11909013  0.12026366  0.61975346  1
  O  O173  1  0.12149064  0.61338852  0.12847400  1
  O  O174  1  0.11676901  0.61813140  0.62258082  1
  O  O175  1  0.61378911  0.12718155  0.12585052  1
  O  O176  1  0.62980281  0.11881198  0.61528155  1
  O  O177  1  0.61925844  0.62176334  0.11852402  1
  O  O178  1  0.61838594  0.61624759  0.61920219  1
  O  O179  1  0.38426994  0.38282350  0.36870628  1
  O  O180  1  0.38216775  0.38347357  0.87177148  1
  O  O181  1  0.39219672  0.87584395  0.38154474  1
  O  O182  1  0.36949228  0.88391287  0.88676784  1
  O  O183  1  0.88389705  0.38261722  0.37958148  1
  O  O184  1  0.87974445  0.37774433  0.88347308  1
  O  O185  1  0.87896140  0.88154900  0.37540068  1
  O  O186  1  0.86514306  0.88899245  0.88343120  1
  O  O187  1  0.25522487  -0.00146140  0.40005855  1
  O  O188  1  0.25942053  0.01225315  0.88132871  1
  O  O189  1  0.25548073  0.50063361  0.36743642  1
  O  O190  1  0.25658888  0.51009341  0.87546132  1
  O  O191  1  0.75921248  0.00858569  0.38098513  1
  O  O192  1  0.75095241  0.00851033  0.87564691  1
  O  O193  1  0.76623397  0.49656257  0.38165297  1
  O  O194  1  0.74789499  0.51081777  0.87428656  1
  O  O195  1  0.24770689  0.49711704  0.12691680  1
  O  O196  1  0.24092712  0.48676130  0.62595151  1
  O  O197  1  0.24086891  0.99516536  0.11575178  1
  O  O198  1  0.23731053  1.00318411  0.61182214  1
  O  O199  1  0.74370461  0.49314810  0.12246647  1
  O  O200  1  0.73624626  0.49349665  0.62446367  1
  O  O201  1  0.74714004  0.98613235  0.12287680  1
  O  O202  1  0.74374047  0.99249706  0.63129454  1
  O  O203  1  0.00120340  0.38210316  0.26451777  1
  O  O204  1  -0.00795158  0.36473543  0.76061147  1
  O  O205  1  0.00717942  0.86798703  0.25334836  1
  O  O206  1  0.01656515  0.87338045  0.74596687  1
  O  O207  1  0.50674273  0.36361409  0.25427094  1
  O  O208  1  0.51006626  0.36605278  0.75645598  1
  O  O209  1  0.51012047  0.87274828  0.26278724  1
  O  O210  1  0.51303805  0.86363879  0.74589962  1
  O  O211  1  0.49970046  0.14029609  0.24191528  1
  O  O212  1  0.49701786  0.13950647  0.75174188  1
  O  O213  1  0.49040448  0.62814693  0.24194596  1
  O  O214  1  0.50049577  0.63164693  0.73697145  1
  O  O215  1  0.99279094  0.12175805  0.24204741  1
  O  O216  1  0.98862897  0.13068961  0.74780257  1
  O  O217  1  1.00111658  0.63106546  0.23962687  1
  O  O218  1  0.99025771  0.62827763  0.74171680  1
  O  O219  1  0.36779133  0.24843163  0.00834183  1
  O  O220  1  0.35930790  0.24970928  0.50755073  1
  O  O221  1  0.37392817  0.76034795  0.00808997  1
  O  O222  1  0.36958197  0.74806925  0.51193529  1
  O  O223  1  0.88031800  0.26071952  0.00802506  1
  O  O224  1  0.86985899  0.25538341  0.50697596  1
  O  O225  1  0.87784248  0.76281912  -0.00088870  1
  O  O226  1  0.86012408  0.74901571  0.49370979  1
  O  O227  1  0.13064969  0.24572801  0.49715264  1
  O  O228  1  0.13965539  0.24755107  1.00433836  1
  O  O229  1  0.13300541  0.74250138  0.50241244  1
  O  O230  1  0.12564643  0.76020104  0.98435824  1
  O  O231  1  0.62771519  0.23882939  0.49000488  1
  O  O232  1  0.62888977  0.25309558  0.98507363  1
  O  O233  1  0.63171633  0.73802525  0.49635056  1
  O  O234  1  0.62464838  0.73990435  0.99139765  1
  O  O235  1  0.49725141  0.24782379  0.12801967  1
  O  O236  1  0.48668321  0.25941438  0.63180090  1
  O  O237  1  0.49428264  0.73824309  0.12684452  1
  O  O238  1  0.49373634  0.74267117  0.63272748  1
  O  O239  1  0.99197633  0.23894952  0.11839982  1
  O  O240  1  0.99293305  0.24610185  0.63149124  1
  O  O241  1  1.00252829  0.74187310  0.13041899  1
  O  O242  1  1.00129953  0.73818553  0.62428478  1
  O  O243  1  -0.00065197  0.26782636  0.38190031  1
  O  O244  1  -0.00329972  0.25713606  0.86725508  1
  O  O245  1  0.00308056  0.75381115  0.36791841  1
  O  O246  1  0.01434496  0.74394346  0.87349990  1
  O  O247  1  0.50646069  0.25566482  0.36720753  1
  O  O248  1  0.50725630  0.25686899  0.86777216  1
  O  O249  1  0.51142806  0.75241980  0.37554031  1
  O  O250  1  0.50393312  0.73914355  0.86192024  1
  O  O251  1  0.23482973  0.14457526  0.50326872  1
  O  O252  1  0.24982849  0.13252175  0.98972700  1
  O  O253  1  0.24340049  0.62664039  0.49905787  1
  O  O254  1  0.25076043  0.63098714  0.98250206  1
  O  O255  1  0.74333864  0.12964206  0.49087521  1
  O  O256  1  0.75591974  0.12703820  0.99749792  1
  O  O257  1  0.74110336  0.62998080  0.49565879  1
  O  O258  1  0.74348457  0.62635700  0.99285912  1
  O  O259  1  0.24927633  0.36775093  0.00451741  1
  O  O260  1  0.24339360  0.36408963  0.51164047  1
  O  O261  1  0.25896550  0.87217209  0.01382040  1
  O  O262  1  0.25384039  0.86325051  0.50747911  1
  O  O263  1  0.76281459  0.37914948  0.01140263  1
  O  O264  1  0.75426467  0.36724438  0.50554527  1
  O  O265  1  0.76107407  0.86928210  0.00893753  1
  O  O266  1  0.74977526  0.86604937  0.50980538  1
  O  O267  1  0.13804774  0.49712385  0.24271599  1
  O  O268  1  0.11537478  0.50244063  0.74003726  1
  O  O269  1  0.11837670  0.98792912  0.24120835  1
  O  O270  1  0.12149086  0.99082233  0.74285321  1
  O  O271  1  0.62414177  0.50138020  0.23796210  1
  O  O272  1  0.62450756  0.49038724  0.74236585  1
  O  O273  1  0.62405678  0.98956090  0.24937088  1
  O  O274  1  0.63006332  0.99210810  0.74942461  1
  O  O275  1  0.38446381  -0.00122206  0.24943112  1
  O  O276  1  0.37608029  -0.00149816  0.76664347  1
  O  O277  1  0.36506412  0.50579347  0.25232535  1
  O  O278  1  0.37796589  0.50332634  0.76624153  1
  O  O279  1  0.88038242  0.01010442  0.26288391  1
  O  O280  1  0.87017530  0.00422368  0.75919507  1
  O  O281  1  0.88086443  0.49980032  0.26473461  1
  O  O282  1  0.87020516  0.51272618  0.75302510  1
  O  O283  1  0.10962304  0.37998053  0.37556007  1
  O  O284  1  0.11346349  0.37634845  0.87733251  1
  O  O285  1  0.11752305  0.87123947  0.36601205  1
  O  O286  1  0.13055313  0.86817924  0.86679187  1
  O  O287  1  0.62101768  0.36680541  0.37333509  1
  O  O288  1  0.62137480  0.36832247  0.87023498  1
  O  O289  1  0.62005765  0.87001021  0.37052603  1
  O  O290  1  0.62677447  0.85719786  0.86695793  1
  O  O291  1  0.39059154  0.13361939  0.12317314  1
  O  O292  1  0.38274724  0.13022271  0.62183407  1
  O  O293  1  0.38016511  0.62957207  0.12482466  1
  O  O294  1  0.38117900  0.62842219  0.62780783  1
  O  O295  1  0.88166501  0.13005971  0.13368647  1
  O  O296  1  0.87987992  0.12863544  0.63179825  1
  O  O297  1  0.88649964  0.62696925  0.12466313  1
  O  O298  1  0.88271761  0.61949038  0.63194099  1
  O  O299  1  0.26022085  0.25949472  0.11438769  1
  O  O300  1  0.25567429  0.26071720  0.61949920  1
  O  O301  1  0.25768355  0.75840946  0.12339200  1
  O  O302  1  0.25826585  0.74499060  0.61842050  1
  O  O303  1  0.76491296  0.25537453  0.12671760  1
  O  O304  1  0.75442227  0.25528596  0.61981919  1
  O  O305  1  0.75350420  0.76253162  0.12224141  1
  O  O306  1  0.74238629  0.75802136  0.61599909  1
  O  O307  1  0.24336474  0.26551229  0.38805119  1
  O  O308  1  0.26135433  0.23508673  0.88311966  1
  O  O309  1  0.24855394  0.73920358  0.39267989  1
  O  O310  1  0.23977046  0.74228027  0.87763874  1
  O  O311  1  0.74361829  0.24386168  0.37921621  1
  O  O312  1  0.73558764  0.25260635  0.86915023  1
  O  O313  1  0.73591179  0.75114550  0.38521200  1
  O  O314  1  0.73861645  0.73721906  0.87664130  1
  O  O315  1  0.00128592  0.11501332  0.00816262  1
  O  O316  1  0.00835347  0.12331269  0.50459224  1
  O  O317  1  -0.00189551  0.61662307  0.01083506  1
  O  O318  1  0.00346943  0.61766442  0.50681797  1
  O  O319  1  0.50266711  0.13294424  0.00999610  1
  O  O320  1  0.50340810  0.12965906  0.50315901  1
  O  O321  1  0.50779525  0.62832176  0.00778598  1
  O  O322  1  0.50684699  0.63037017  0.51353473  1
  O  O323  1  0.50389280  0.37030471  0.48440956  1
  O  O324  1  0.50434266  0.37143239  0.98877454  1
  O  O325  1  0.50481135  0.87137322  0.48575411  1
  O  O326  1  0.48805631  0.87122360  1.00346622  1
  O  O327  1  0.99559120  0.38337955  0.49558627  1
  O  O328  1  0.99525224  0.37994205  0.99339392  1
  O  O329  1  0.99800907  0.87945257  0.49429733  1
  O  O330  1  0.99217516  0.88895615  1.00868231  1
  O  O331  1  0.49027989  0.48997147  0.36854207  1
  O  O332  1  0.49030944  0.48927421  0.87330314  1
  O  O333  1  0.50679471  0.99085619  0.37888340  1
  O  O334  1  0.48803491  1.00082290  0.87715299  1
  O  O335  1  0.99313547  0.49292623  0.38395273  1
  O  O336  1  0.99919803  0.49462784  0.88275059  1
  O  O337  1  0.99350970  0.99342744  0.38155054  1
  O  O338  1  0.99213458  1.00301643  0.88534512  1
  O  O339  1  0.00944349  0.01095092  0.12029571  1
  O  O340  1  0.00459019  0.00802348  0.61917663  1
  O  O341  1  0.00928744  0.50555170  0.12010844  1
  O  O342  1  0.00485669  0.50464630  0.61730413  1
  O  O343  1  0.50887296  0.01527232  0.11929274  1
  O  O344  1  0.50415371  0.00746033  0.63432163  1
  O  O345  1  0.50686523  0.51145254  0.12895309  1
  O  O346  1  0.50908936  0.50442367  0.62858770  1
  O  O347  1  0.25149195  0.38360078  0.23810099  1
  O  O348  1  0.24583871  0.36751487  0.73998179  1
  O  O349  1  0.24337533  0.87953650  0.23961801  1
  O  O350  1  0.23305191  0.87169614  0.74549983  1
  O  O351  1  0.75103268  0.37146825  0.23608149  1
  O  O352  1  0.73821981  0.37558863  0.74438761  1
  O  O353  1  0.74195082  0.87074749  0.24421503  1
  O  O354  1  0.74007649  0.87785784  0.74582608  1
  O  O355  1  0.25256262  0.11614269  0.24005771  1
  O  O356  1  0.25461957  0.12902893  0.76453754  1
  O  O357  1  0.25525357  0.61833718  0.25585924  1
  O  O358  1  0.24876325  0.63109071  0.76681468  1
  O  O359  1  0.75788152  0.12795228  0.26099731  1
  O  O360  1  0.76239405  0.11804731  0.74512485  1
  O  O361  1  0.75561657  0.63267323  0.25631075  1
  O  O362  1  0.75371511  0.62354304  0.75674007  1
  O  O363  1  0.35773520  0.13820886  0.36382119  1
  O  O364  1  0.37044685  0.11098499  0.87539512  1
  O  O365  1  0.37057655  0.61809717  0.36930772  1
  O  O366  1  0.36456336  0.61865496  0.87073820  1
  O  O367  1  0.86939722  0.12095647  0.37001809  1
  O  O368  1  0.87615042  0.11348911  0.86851587  1
  O  O369  1  0.87699343  0.60768165  0.37584702  1
  O  O370  1  0.86530940  0.62237186  0.87073645  1
  O  O371  1  0.13530470  0.38899328  0.12270170  1
  O  O372  1  0.13488503  0.38316150  0.62525176  1
  O  O373  1  0.13489379  0.88223443  0.13123089  1
  O  O374  1  0.12781520  0.88513512  0.63292369  1
  O  O375  1  0.63533478  0.38477052  0.12529043  1
  O  O376  1  0.62592770  0.37925892  0.63016440  1
  O  O377  1  0.63110749  0.87768357  0.13319616  1
  O  O378  1  0.63224862  0.88099444  0.63177263  1
  O  O379  1  0.12374538  0.25696070  0.24887162  1
  O  O380  1  0.11090858  0.24297037  0.74461425  1
  O  O381  1  0.11701547  0.76030830  0.24968603  1
  O  O382  1  0.11975178  0.76075168  0.76087434  1
  O  O383  1  0.62176179  0.25026292  0.26093511  1
  O  O384  1  0.61846465  0.25636095  0.75540613  1
  O  O385  1  0.62201589  0.76017448  0.25948272  1
  O  O386  1  0.61753258  0.75311227  0.75540045  1
  O  O387  1  0.38367715  0.25287785  0.23276014  1
  O  O388  1  0.38132578  0.24666863  0.73925807  1
  O  O389  1  0.37663120  0.74256781  0.23286136  1
  O  O390  1  0.38075682  0.75008791  0.74207734  1
  O  O391  1  0.87660987  0.23799731  0.24436833  1
  O  O392  1  0.87763022  0.24193466  0.74601551  1
  O  O393  1  0.89058427  0.74978019  0.24918717  1
  O  O394  1  0.87526428  0.73745799  0.75590857  1
  O  O395  1  0.37056662  0.50283257  0.48694691  1
  O  O396  1  0.37537228  0.50488740  0.97960195  1
  O  O397  1  0.39319667  1.00505646  0.51756465  1
  O  O398  1  0.37463816  0.98643265  0.99284879  1
  O  O399  1  0.88357804  0.49428223  0.49438067  1
  O  O400  1  0.88862170  0.48880689  1.00096052  1
  O  O401  1  0.88140120  0.99961097  0.48931608  1
  O  O402  1  0.88248416  0.99308433  0.99544703  1
  O  O403  1  0.11903637  -0.00014457  0.00906346  1
  O  O404  1  0.11554427  0.00840852  0.50779648  1
  O  O405  1  0.11400014  0.49777554  0.00636263  1
  O  O406  1  0.11540500  0.50479624  0.50751940  1
  O  O407  1  0.63982976  0.01185796  -0.01129974  1
  O  O408  1  0.62762544  0.01211394  0.50415770  1
  O  O409  1  0.62701796  0.51137806  0.01020350  1
  O  O410  1  0.62631310  0.51141196  0.50576999  1
  O  O411  1  0.36719814  0.37172809  0.12417410  1
  O  O412  1  0.36105971  0.37123495  0.62913468  1
  O  O413  1  0.37382335  0.87002832  0.11738254  1
  O  O414  1  0.37408081  0.86494630  0.62222482  1
  O  O415  1  0.87342316  0.36792551  0.12054870  1
  O  O416  1  0.86926060  0.37200455  0.62135878  1
  O  O417  1  0.87034115  0.87618426  0.11911142  1
  O  O418  1  0.86118614  0.88108545  0.62644073  1
  O  O419  1  0.12772669  0.12610605  0.38358944  1
  O  O420  1  0.14015493  0.11794863  0.87622960  1
  O  O421  1  0.13148120  0.62288497  0.38292228  1
  O  O422  1  0.13205928  0.63733900  0.87297839  1
  O  O423  1  0.63084586  0.12920395  0.37832231  1
  O  O424  1  0.62850012  0.13472828  0.87314524  1
  O  O425  1  0.62170331  0.62995640  0.38258859  1
  O  O426  1  0.62723267  0.62789002  0.87995790  1
