# generated using pymatgen
data_V85Zn86O256
_symmetry_space_group_name_H-M   'P 1'
_cell_length_a   16.92474708
_cell_length_b   16.93081892
_cell_length_c   16.92373855
_cell_angle_alpha   89.98129881
_cell_angle_beta   90.03342932
_cell_angle_gamma   89.98681173
_symmetry_Int_Tables_number   1
_chemical_formula_structural   V85Zn86O256
_chemical_formula_sum   'V85 Zn86 O256'
_cell_volume   4849.49315755
_cell_formula_units_Z   1
loop_
 _symmetry_equiv_pos_site_id
 _symmetry_equiv_pos_as_xyz
  1  'x, y, z'
loop_
 _atom_site_type_symbol
 _atom_site_label
 _atom_site_symmetry_multiplicity
 _atom_site_fract_x
 _atom_site_fract_y
 _atom_site_fract_z
 _atom_site_occupancy
  V  V0  1  0.25800277  0.26379748  0.00184507  1
  V  V1  1  -0.00678245  -0.00112810  0.49591290  1
  V  V2  1  0.50775568  0.74810759  0.75693882  1
  V  V3  1  0.25043410  0.24864518  0.50391236  1
  V  V4  1  -0.00906961  0.62012462  0.12995081  1
  V  V5  1  0.12409406  0.49778296  0.62483634  1
  V  V6  1  0.62879986  0.87491102  0.24881888  1
  V  V7  1  -0.00197972  0.62922869  0.62804842  1
  V  V8  1  0.74613983  0.12508247  0.88431274  1
  V  V9  1  0.49679923  0.50054090  0.00007718  1
  V  V10  1  -0.00230349  0.12253541  0.63075092  1
  V  V11  1  0.12238380  0.75287057  0.37184158  1
  V  V12  1  0.50148088  0.61741242  0.61134763  1
  V  V13  1  0.62105689  0.24920339  0.88782717  1
  V  V14  1  0.75571062  0.00741210  0.73977457  1
  V  V15  1  -0.00028628  0.49939417  -0.00063558  1
  V  V16  1  0.87206265  0.00618756  0.88501527  1
  V  V17  1  0.50233743  0.12910329  0.12414201  1
  V  V18  1  0.36654340  0.62505044  0.24637164  1
  V  V19  1  0.74676656  0.75566187  -0.00612240  1
  V  V20  1  0.24885967  0.87454581  0.62484275  1
  V  V21  1  0.12251792  0.24353294  0.88433231  1
  V  V22  1  0.63148766  0.00742150  0.12494091  1
  V  V23  1  0.74865011  0.37889955  0.13108932  1
  V  V24  1  0.13181950  0.62391440  -0.00121307  1
  V  V25  1  -0.00348203  0.24583567  0.75130611  1
  V  V26  1  0.01412587  -0.00084482  0.00397870  1
  V  V27  1  0.75096907  0.62580438  0.36556907  1
  V  V28  1  0.49459771  0.75329304  0.24671184  1
  V  V29  1  0.00014919  0.37435652  0.36918806  1
  V  V30  1  0.49742867  0.63208833  0.12301270  1
  V  V31  1  0.62478127  0.10731192  0.50321679  1
  V  V32  1  0.62408570  0.37194792  0.74907154  1
  V  V33  1  0.50014557  0.10995226  0.62481708  1
  V  V34  1  0.86848554  0.37226533  -0.00080235  1
  V  V35  1  0.87373718  0.12333419  0.25893234  1
  V  V36  1  0.13899500  0.49728607  0.12803302  1
  V  V37  1  0.62711880  0.74534701  0.38582342  1
  V  V38  1  0.12306941  0.87366587  0.75206187  1
  V  V39  1  0.24657842  0.00049264  0.24029650  1
  V  V40  1  0.12307835  -0.00104973  0.62464310  1
  V  V41  1  0.82896991  0.68273712  0.68831506  1
  V  V42  1  0.62756974  0.50636841  0.12852780  1
  V  V43  1  0.50261166  0.87802895  0.38121643  1
  V  V44  1  -0.01431994  0.87683573  0.37292686  1
  V  V45  1  -0.00653985  0.87318896  0.88142846  1
  V  V46  1  0.13473776  0.74655427  0.87735550  1
  V  V47  1  0.12495973  0.24955595  0.37379445  1
  V  V48  1  0.37881397  0.12652700  0.24941294  1
  V  V49  1  0.36877777  0.50317161  0.87775630  1
  V  V50  1  0.37743629  0.74812353  0.62623698  1
  V  V51  1  0.37370271  0.38015485  0.49971018  1
  V  V52  1  0.24740643  0.12139862  0.88630527  1
  V  V53  1  0.12444574  0.62474572  0.49713787  1
  V  V54  1  0.24870853  0.74977212  0.49810774  1
  V  V55  1  0.37786327  0.00013769  0.37871201  1
  V  V56  1  0.50741314  0.00451811  -0.00015904  1
  V  V57  1  -0.00460740  0.50037579  0.49845468  1
  V  V58  1  0.75272782  0.49830217  0.74554107  1
  V  V59  1  0.25056298  0.00118598  0.75095311  1
  V  V60  1  0.54705909  0.43208638  0.43250614  1
  V  V61  1  0.14283840  0.37602748  0.24597693  1
  V  V62  1  0.00803104  0.12620283  0.11970629  1
  V  V63  1  0.87179256  0.24380366  0.62933138  1
  V  V64  1  0.61712519  0.24222933  0.37868519  1
  V  V65  1  0.87029513  0.86732905  0.51995826  1
  V  V66  1  0.87212289  0.50824237  0.87201991  1
  V  V67  1  0.62238169  0.37933578  0.25116772  1
  V  V68  1  0.87616747  0.50675477  0.35467412  1
  V  V69  1  0.63301375  0.88404571  0.74582409  1
  V  V70  1  -0.00365946  0.37303617  0.87550745  1
  V  V71  1  0.87470210  0.75960474  0.12389309  1
  V  V72  1  -0.00319820  0.74706097  0.75270655  1
  V  V73  1  0.75079058  0.24213190  0.49112111  1
  V  V74  1  0.12567240  0.37268068  0.75152340  1
  V  V75  1  0.12123297  0.87936596  0.24392588  1
  V  V76  1  0.37949556  -0.00132757  0.87528076  1
  V  V77  1  0.36518429  0.49743061  0.37098719  1
  V  V78  1  0.37590502  0.87650400  0.49874222  1
  V  V79  1  0.75493228  0.00290882  0.26333516  1
  V  V80  1  0.49385986  0.37642971  0.87438574  1
  V  V81  1  0.24935189  0.12255507  0.37569019  1
  V  V82  1  0.75089988  0.37100753  0.62399477  1
  V  V83  1  0.24688360  0.51046274  0.75388926  1
  V  V84  1  0.37743841  0.87039833  0.01038490  1
  Zn  Zn85  1  0.75731073  0.88156254  0.11960321  1
  Zn  Zn86  1  0.25184696  0.37396320  0.62818173  1
  Zn  Zn87  1  0.61962676  0.49612658  0.61362501  1
  Zn  Zn88  1  0.00022097  0.24807553  0.24639165  1
  Zn  Zn89  1  0.24673353  0.87103625  0.12406060  1
  Zn  Zn90  1  0.49684650  0.24671361  0.74889417  1
  Zn  Zn91  1  0.87231189  0.24724027  0.12567893  1
  Zn  Zn92  1  0.49625576  0.25891331  0.25523912  1
  Zn  Zn93  1  0.37901866  0.25018694  0.62734116  1
  Zn  Zn94  1  0.74467565  0.63036592  0.87088943  1
  Zn  Zn95  1  0.12334225  0.12334448  0.49957598  1
  Zn  Zn96  1  0.24610789  0.62296960  0.36866218  1
  Zn  Zn97  1  -0.00682313  0.74526579  0.25199622  1
  Zn  Zn98  1  0.62310613  0.63131670  -0.01315625  1
  Zn  Zn99  1  0.50692707  0.87104624  0.87735944  1
  Zn  Zn100  1  0.37379045  0.62709367  0.75329305  1
  Zn  Zn101  1  0.75294812  0.74299016  0.51009399  1
  Zn  Zn102  1  0.87800204  0.36921347  0.49655608  1
  Zn  Zn103  1  0.25891136  0.74304495  0.00520417  1
  Zn  Zn104  1  0.36004310  0.26943422  0.13279195  1
  Zn  Zn105  1  0.74044792  0.24771242  0.00623873  1
  Zn  Zn106  1  0.37505984  0.12709199  0.74923256  1
  Zn  Zn107  1  0.18733321  0.18843637  0.18645762  1
  Zn  Zn108  1  0.18686994  0.18457933  0.69081792  1
  Zn  Zn109  1  0.18409628  0.69195275  0.18118934  1
  Zn  Zn110  1  0.18361417  0.68854515  0.68600753  1
  Zn  Zn111  1  0.68940065  0.19073257  0.19198127  1
  Zn  Zn112  1  0.68374241  0.18243533  0.68900960  1
  Zn  Zn113  1  0.68871387  0.69032124  0.18674044  1
  Zn  Zn114  1  0.66591816  0.67996229  0.68882806  1
  Zn  Zn115  1  0.31656251  0.31135128  0.31987039  1
  Zn  Zn116  1  0.31214229  0.31212404  0.81388753  1
  Zn  Zn117  1  0.31032451  0.81282431  0.30895970  1
  Zn  Zn118  1  0.31631139  0.81481284  0.81449168  1
  Zn  Zn119  1  0.81235816  0.31150641  0.30955181  1
  Zn  Zn120  1  0.80985301  0.30880402  0.81421578  1
  Zn  Zn121  1  0.81073921  0.80723136  0.30595966  1
  Zn  Zn122  1  0.80929968  0.82354184  0.81762790  1
  Zn  Zn123  1  0.18738663  0.43598649  0.43635310  1
  Zn  Zn124  1  0.18552612  0.43724580  0.93711233  1
  Zn  Zn125  1  0.18378282  0.93759576  0.43399567  1
  Zn  Zn126  1  0.18919559  0.93349010  0.93782114  1
  Zn  Zn127  1  0.71014824  0.43376181  0.43315305  1
  Zn  Zn128  1  0.68337956  0.44124004  0.93776102  1
  Zn  Zn129  1  0.69458151  0.93012532  0.43925450  1
  Zn  Zn130  1  0.68567379  0.93214562  0.93393709  1
  Zn  Zn131  1  0.31833145  0.06368696  0.06250692  1
  Zn  Zn132  1  0.31447102  0.06237918  0.56265642  1
  Zn  Zn133  1  0.31543778  0.56254203  0.06260074  1
  Zn  Zn134  1  0.31207717  0.56168285  0.56270228  1
  Zn  Zn135  1  0.81726858  0.06462513  0.06498619  1
  Zn  Zn136  1  0.81577960  0.06318082  0.55515624  1
  Zn  Zn137  1  0.80869004  0.56411830  0.05855167  1
  Zn  Zn138  1  0.80654871  0.55835468  0.55037472  1
  Zn  Zn139  1  0.43821181  0.44074316  0.19130749  1
  Zn  Zn140  1  0.43321438  0.43728091  0.68869536  1
  Zn  Zn141  1  0.44117826  0.94227924  0.19024719  1
  Zn  Zn142  1  0.43946731  0.93356447  0.69019161  1
  Zn  Zn143  1  0.94362091  0.43263113  0.18294058  1
  Zn  Zn144  1  0.93594538  0.43438355  0.68598086  1
  Zn  Zn145  1  0.93889716  0.94203286  0.18617341  1
  Zn  Zn146  1  0.93419781  0.94011865  0.69484328  1
  Zn  Zn147  1  0.05948983  0.06214584  0.31081396  1
  Zn  Zn148  1  0.06179336  0.06146682  0.81495007  1
  Zn  Zn149  1  0.06581921  0.56010195  0.30823575  1
  Zn  Zn150  1  0.06020080  0.56387050  0.81334551  1
  Zn  Zn151  1  0.56537370  0.06142205  0.31578946  1
  Zn  Zn152  1  0.56751509  0.06276399  0.81114117  1
  Zn  Zn153  1  0.56495731  0.57070149  0.30709060  1
  Zn  Zn154  1  0.56311720  0.56184131  0.80885481  1
  Zn  Zn155  1  0.44015965  0.18585419  0.44400467  1
  Zn  Zn156  1  0.43705376  0.18656228  0.93743401  1
  Zn  Zn157  1  0.43453426  0.68881545  0.43159684  1
  Zn  Zn158  1  0.43608586  0.68397446  0.93628040  1
  Zn  Zn159  1  0.93926826  0.18604112  0.43882252  1
  Zn  Zn160  1  0.93274812  0.18371486  0.94031007  1
  Zn  Zn161  1  0.93418066  0.68792889  0.43712177  1
  Zn  Zn162  1  0.93665618  0.68844061  0.94374287  1
  Zn  Zn163  1  0.06382571  0.31224643  0.06319302  1
  Zn  Zn164  1  0.06198069  0.31140334  0.56136893  1
  Zn  Zn165  1  0.06152645  0.80997581  0.06211140  1
  Zn  Zn166  1  0.05808530  0.81243828  0.56105997  1
  Zn  Zn167  1  0.53241050  0.32865688  0.07723697  1
  Zn  Zn168  1  0.56522917  0.30053455  0.56925540  1
  Zn  Zn169  1  0.56533272  0.81607697  0.06334070  1
  Zn  Zn170  1  0.56270416  0.81532602  0.56594562  1
  O  O171  1  0.10726115  0.12443671  0.13381489  1
  O  O172  1  0.11673113  0.11752452  0.62285139  1
  O  O173  1  0.11553109  0.61678372  0.11775291  1
  O  O174  1  0.11617090  0.61794823  0.61834598  1
  O  O175  1  0.62273489  0.11238755  0.13349791  1
  O  O176  1  0.61555151  0.12388203  0.61338206  1
  O  O177  1  0.61504120  0.62063493  0.12657935  1
  O  O178  1  0.60824558  0.61549686  0.61689755  1
  O  O179  1  0.37802204  0.38504733  0.38253265  1
  O  O180  1  0.38389319  0.38736142  0.86830338  1
  O  O181  1  0.38201304  0.88089310  0.37719898  1
  O  O182  1  0.37891247  0.88759315  0.88286395  1
  O  O183  1  0.88287051  0.38526463  0.37331282  1
  O  O184  1  0.87804785  0.38046700  0.88083764  1
  O  O185  1  0.88426933  0.86907935  0.37528123  1
  O  O186  1  0.88856501  0.88443610  0.87549103  1
  O  O187  1  0.25624521  0.00521947  0.36783701  1
  O  O188  1  0.25631443  0.00456106  0.87179902  1
  O  O189  1  0.26057904  0.50316640  0.37618709  1
  O  O190  1  0.25610173  0.49435845  0.86699310  1
  O  O191  1  0.74852439  -0.00347557  0.36248492  1
  O  O192  1  0.75573298  0.00702413  0.87555327  1
  O  O193  1  0.76898595  0.50645108  0.37239322  1
  O  O194  1  0.75695766  0.49878818  0.86429690  1
  O  O195  1  0.23843256  0.49989019  0.11980654  1
  O  O196  1  0.24124325  0.49746242  0.63345062  1
  O  O197  1  0.25561447  0.99848107  0.13738269  1
  O  O198  1  0.24494150  0.99400634  0.62964874  1
  O  O199  1  0.74103178  0.48997759  0.11877031  1
  O  O200  1  0.74805001  0.49105582  0.62718763  1
  O  O201  1  0.74487081  0.99906081  0.12990006  1
  O  O202  1  0.76146888  1.00846864  0.64138263  1
  O  O203  1  0.00635382  0.37195513  0.26011897  1
  O  O204  1  0.00867736  0.36935271  0.75471952  1
  O  O205  1  0.00402545  0.87630871  0.25758257  1
  O  O206  1  0.00471914  0.86870646  0.75911986  1
  O  O207  1  0.51747221  0.37620171  0.25739110  1
  O  O208  1  0.50796896  0.37721132  0.75757770  1
  O  O209  1  0.50548117  0.87073751  0.25876766  1
  O  O210  1  0.50515679  0.86327109  0.75261555  1
  O  O211  1  0.48859434  0.12066200  0.24733535  1
  O  O212  1  0.50109953  0.12227841  0.73697243  1
  O  O213  1  0.49253441  0.63567836  0.24296538  1
  O  O214  1  0.49912029  0.63631410  0.73863877  1
  O  O215  1  0.99082737  0.12238077  0.23917028  1
  O  O216  1  1.00367568  0.12815975  0.73835254  1
  O  O217  1  1.00653977  0.62581949  0.23290399  1
  O  O218  1  0.99969777  0.63114315  0.74077759  1
  O  O219  1  0.36014537  0.24797576  -0.00150918  1
  O  O220  1  0.36664961  0.26014801  0.49836716  1
  O  O221  1  0.37685967  0.76670088  -0.00835939  1
  O  O222  1  0.36867415  0.75609587  0.50550308  1
  O  O223  1  0.87167276  0.26350843  -0.00010718  1
  O  O224  1  0.86731758  0.24716378  0.50584363  1
  O  O225  1  0.86459629  0.74468369  0.01404972  1
  O  O226  1  0.87783032  0.76355121  0.50217693  1
  O  O227  1  0.13296817  0.24974536  0.49234868  1
  O  O228  1  0.13284421  0.25403372  0.98873222  1
  O  O229  1  0.12650263  0.74693076  0.48951681  1
  O  O230  1  0.12316389  0.74092934  0.99236906  1
  O  O231  1  0.63298975  0.24292153  0.49417944  1
  O  O232  1  0.61936756  0.26096356  0.98848051  1
  O  O233  1  0.62921297  0.76002702  0.48859311  1
  O  O234  1  0.64155926  0.75004440  1.00805022  1
  O  O235  1  0.52093465  0.23040556  0.13689848  1
  O  O236  1  0.49771271  0.23523299  0.62940766  1
  O  O237  1  0.50518004  0.74514178  0.13436592  1
  O  O238  1  0.49343768  0.74301104  0.63197313  1
  O  O239  1  0.99776125  0.23833887  0.12346232  1
  O  O240  1  0.99432046  0.24144866  0.62820663  1
  O  O241  1  0.98997840  0.73822739  0.12221656  1
  O  O242  1  1.00374841  0.73612249  0.63012880  1
  O  O243  1  0.00666520  0.25878217  0.37572581  1
  O  O244  1  0.00539548  0.25062674  0.87263035  1
  O  O245  1  0.00543733  0.75701002  0.37291243  1
  O  O246  1  0.00330313  0.75770200  0.87457474  1
  O  O247  1  0.51202149  0.24716843  0.37604104  1
  O  O248  1  0.50351173  0.25761034  0.87178847  1
  O  O249  1  0.50806802  0.75636834  0.36805795  1
  O  O250  1  0.49250511  0.74927759  0.85907527  1
  O  O251  1  0.24790356  0.13115864  0.49449165  1
  O  O252  1  0.25221752  0.12579150  0.98913896  1
  O  O253  1  0.24137529  0.63198204  0.49902896  1
  O  O254  1  0.23660997  0.62344154  1.00115534  1
  O  O255  1  0.73711043  0.13017786  0.50533134  1
  O  O256  1  0.75162050  0.12822198  0.99024795  1
  O  O257  1  0.75695984  0.62987644  0.48026557  1
  O  O258  1  0.74606681  0.63817872  0.99873028  1
  O  O259  1  0.25099892  0.36260800  -0.00418182  1
  O  O260  1  0.25615166  0.36674285  0.50124999  1
  O  O261  1  0.26720104  0.88056523  0.00269212  1
  O  O262  1  0.25357049  0.86973717  0.50507096  1
  O  O263  1  0.75491096  0.37516524  0.00624244  1
  O  O264  1  0.75589012  0.36197743  0.50781556  1
  O  O265  1  0.74896812  0.86255311  0.00256485  1
  O  O266  1  0.76621590  0.86920840  0.50332608  1
  O  O267  1  0.12579091  0.48986973  0.24073900  1
  O  O268  1  0.12784842  0.49232349  0.74790350  1
  O  O269  1  0.13484099  0.99181939  0.25773036  1
  O  O270  1  0.12956766  0.99272610  0.74565639  1
  O  O271  1  0.62162074  0.49648691  0.23753450  1
  O  O272  1  0.63670670  0.48833896  0.74612056  1
  O  O273  1  0.63318069  0.99497985  0.24563110  1
  O  O274  1  0.63900186  0.99319923  0.75021634  1
  O  O275  1  0.36774930  0.00521509  0.25974806  1
  O  O276  1  0.36889935  -0.00109428  0.75889103  1
  O  O277  1  0.38118428  0.51083974  0.25907521  1
  O  O278  1  0.36219485  0.50199055  0.75589121  1
  O  O279  1  0.86819657  0.01156722  0.24511791  1
  O  O280  1  0.86201332  -0.00402418  0.76476604  1
  O  O281  1  0.88291664  0.49885586  0.25698771  1
  O  O282  1  0.86190929  0.49078182  0.75605537  1
  O  O283  1  0.11948868  0.37109003  0.36656125  1
  O  O284  1  0.11624850  0.36734480  0.86910611  1
  O  O285  1  0.11522965  0.86785039  0.36815641  1
  O  O286  1  0.11582426  0.86736781  0.87166183  1
  O  O287  1  0.62038595  0.37451872  0.37649868  1
  O  O288  1  0.61907999  0.37057875  0.86602108  1
  O  O289  1  0.61933490  0.87140863  0.36674739  1
  O  O290  1  0.62098352  0.87707022  0.85652152  1
  O  O291  1  0.38445617  0.12847399  0.13453955  1
  O  O292  1  0.38801284  0.12529900  0.62317647  1
  O  O293  1  0.38827879  0.62127411  0.13141737  1
  O  O294  1  0.37878551  0.63535754  0.62715423  1
  O  O295  1  0.88601612  0.12819429  0.13236783  1
  O  O296  1  0.88275607  0.13557200  0.62154424  1
  O  O297  1  0.88825879  0.62599328  0.11910846  1
  O  O298  1  0.88226791  0.61723635  0.62333210  1
  O  O299  1  0.24822981  0.24538093  0.10758244  1
  O  O300  1  0.24860472  0.24851905  0.61356849  1
  O  O301  1  0.24636074  0.75730643  0.11738726  1
  O  O302  1  0.25605998  0.75490843  0.62080236  1
  O  O303  1  0.74866014  0.26401298  0.12332354  1
  O  O304  1  0.75620849  0.24993083  0.62068496  1
  O  O305  1  0.76123502  0.75372580  0.11933995  1
  O  O306  1  0.75578682  0.73171032  0.63101192  1
  O  O307  1  0.24572897  0.24310199  0.38546983  1
  O  O308  1  0.24314190  0.24269071  0.88427480  1
  O  O309  1  0.24005611  0.74995155  0.38005449  1
  O  O310  1  0.23787716  0.75630035  0.87934256  1
  O  O311  1  0.74198020  0.25611646  0.38691947  1
  O  O312  1  0.73989843  0.24297789  0.87800166  1
  O  O313  1  0.74199682  0.74519767  0.37439124  1
  O  O314  1  0.76052805  0.74937502  0.88996173  1
  O  O315  1  -0.00123690  0.11625635  0.01036856  1
  O  O316  1  -0.00010936  0.11516318  0.50990959  1
  O  O317  1  0.00768611  0.61763916  0.00837489  1
  O  O318  1  0.00376064  0.61815375  0.50586627  1
  O  O319  1  0.49545772  0.11631125  0.01031328  1
  O  O320  1  0.51316168  0.12366329  0.51027265  1
  O  O321  1  0.50265561  0.62199379  0.00713658  1
  O  O322  1  0.49027000  0.63015015  0.51335766  1
  O  O323  1  0.49463015  0.37228912  0.49932774  1
  O  O324  1  0.50828792  0.38789956  0.98123340  1
  O  O325  1  0.49426431  0.86980428  0.48789938  1
  O  O326  1  0.49313226  0.88205270  0.99793513  1
  O  O327  1  1.00210552  0.38207019  0.48700420  1
  O  O328  1  0.99167199  0.38049672  0.99554688  1
  O  O329  1  0.99020643  0.87964742  0.49416856  1
  O  O330  1  1.00518039  0.88823325  0.99510695  1
  O  O331  1  0.49546701  0.50198134  0.37803980  1
  O  O332  1  0.49329383  0.49522747  0.87899901  1
  O  O333  1  0.49051985  0.98979006  0.36942448  1
  O  O334  1  0.49543039  1.00226375  0.88321642  1
  O  O335  1  0.99369961  0.49590086  0.37829889  1
  O  O336  1  0.99137960  0.49283269  0.87780035  1
  O  O337  1  1.00476378  0.99058007  0.38629171  1
  O  O338  1  0.99478531  0.99647339  0.88443594  1
  O  O339  1  -0.00235842  0.00795425  0.11059884  1
  O  O340  1  0.00145970  0.00593969  0.62214608  1
  O  O341  1  0.00450519  0.50811757  0.11864376  1
  O  O342  1  0.00342088  0.50514583  0.61767377  1
  O  O343  1  0.50831713  0.00946758  0.12082906  1
  O  O344  1  0.49519702  0.00986860  0.62462893  1
  O  O345  1  0.50717018  0.51053833  0.11685955  1
  O  O346  1  0.49550103  0.51371122  0.62701945  1
  O  O347  1  0.24246315  0.36743873  0.25106936  1
  O  O348  1  0.23601977  0.37962942  0.75079794  1
  O  O349  1  0.24110406  0.88420432  0.25015856  1
  O  O350  1  0.24405605  0.88009429  0.74501288  1
  O  O351  1  0.73925271  0.37475025  0.24347562  1
  O  O352  1  0.74422344  0.37914181  0.74365730  1
  O  O353  1  0.74324012  0.88225716  0.24547828  1
  O  O354  1  0.74214373  0.88866584  0.75169975  1
  O  O355  1  0.26009447  0.12017962  0.25396007  1
  O  O356  1  0.25086427  0.11613158  0.76024912  1
  O  O357  1  0.26337667  0.63289647  0.24753724  1
  O  O358  1  0.24643322  0.61366691  0.74781174  1
  O  O359  1  0.76463329  0.11893552  0.24700483  1
  O  O360  1  0.74383304  0.11238257  0.76139945  1
  O  O361  1  0.74830699  0.62935194  0.26341095  1
  O  O362  1  0.75591887  0.61874253  0.74426977  1
  O  O363  1  0.37249620  0.11806694  0.37098596  1
  O  O364  1  0.36839178  0.11256494  0.87469329  1
  O  O365  1  0.37243043  0.61710159  0.36577983  1
  O  O366  1  0.37673266  0.60980786  0.87111191  1
  O  O367  1  0.88502250  0.12462686  0.35853134  1
  O  O368  1  0.86395561  0.11844589  0.87476079  1
  O  O369  1  0.87593109  0.61258742  0.37141352  1
  O  O370  1  0.87383494  0.61059562  0.87962088  1
  O  O371  1  0.11772613  0.38482439  0.13482970  1
  O  O372  1  0.12372279  0.37980791  0.63393265  1
  O  O373  1  0.11968366  0.87263983  0.14023528  1
  O  O374  1  0.12766424  0.87826283  0.63104740  1
  O  O375  1  0.62808151  0.38341750  0.13400614  1
  O  O376  1  0.62996461  0.37599108  0.63107901  1
  O  O377  1  0.62295977  0.88685143  0.13824483  1
  O  O378  1  0.61909925  0.87298718  0.64533283  1
  O  O379  1  0.12342560  0.25635530  0.25740679  1
  O  O380  1  0.11947490  0.25633910  0.75876277  1
  O  O381  1  0.12055358  0.75650311  0.26036328  1
  O  O382  1  0.11775746  0.75331260  0.75841857  1
  O  O383  1  0.62804374  0.25858640  0.26493878  1
  O  O384  1  0.62488375  0.26188411  0.75623271  1
  O  O385  1  0.61710510  0.76006101  0.25545232  1
  O  O386  1  0.61244716  0.75803104  0.75067177  1
  O  O387  1  0.37755939  0.24159378  0.25020130  1
  O  O388  1  0.37547211  0.24569334  0.74757272  1
  O  O389  1  0.38803159  0.74426293  0.25727666  1
  O  O390  1  0.38192969  0.75013336  0.74187231  1
  O  O391  1  0.87769297  0.23849403  0.24820090  1
  O  O392  1  0.88360893  0.25456532  0.74182196  1
  O  O393  1  0.87632602  0.74746473  0.23112515  1
  O  O394  1  0.87820205  0.75054365  0.75359095  1
  O  O395  1  0.37016344  0.48804553  0.49266660  1
  O  O396  1  0.38769562  0.50374974  0.99367293  1
  O  O397  1  0.36867908  0.99296976  0.48631475  1
  O  O398  1  0.38703459  0.99311569  0.99550918  1
  O  O399  1  0.88808910  0.49454811  0.49354233  1
  O  O400  1  0.87729890  0.49007851  0.99168573  1
  O  O401  1  0.88494184  0.98591930  0.50405729  1
  O  O402  1  0.88537326  1.00339668  0.98960453  1
  O  O403  1  0.11290394  0.00149106  -0.00665577  1
  O  O404  1  0.11284852  -0.00301891  0.50774601  1
  O  O405  1  0.11838739  0.50428264  0.00436012  1
  O  O406  1  0.11428801  0.50329193  0.50191087  1
  O  O407  1  0.61513066  -0.00734804  0.00905262  1
  O  O408  1  0.63087105  0.00886072  0.49612283  1
  O  O409  1  0.61451087  0.50333027  0.01051547  1
  O  O410  1  0.61497873  0.48312068  0.48920403  1
  O  O411  1  0.42475323  0.35861678  0.11897648  1
  O  O412  1  0.37163445  0.37271942  0.61543169  1
  O  O413  1  0.38000650  0.88120318  0.11230156  1
  O  O414  1  0.37159556  0.86494654  0.61999611  1
  O  O415  1  0.86636878  0.37465565  0.11820874  1
  O  O416  1  0.87238946  0.36078594  0.62072796  1
  O  O417  1  0.87971887  0.86276299  0.12382785  1
  O  O418  1  0.88139376  0.87158512  0.61840104  1
  O  O419  1  0.12957570  0.13189921  0.37609886  1
  O  O420  1  0.13311462  0.13391413  0.87033751  1
  O  O421  1  0.12432630  0.63294123  0.37833789  1
  O  O422  1  0.11663750  0.63498507  0.88482105  1
  O  O423  1  0.62189741  0.13005968  0.38978467  1
  O  O424  1  0.63113759  0.13699109  0.87323518  1
  O  O425  1  0.63239170  0.63543044  0.37275182  1
  O  O426  1  0.63087049  0.62158938  0.87275585  1
