# generated using pymatgen
data_V85Zn86O256
_symmetry_space_group_name_H-M   'P 1'
_cell_length_a   16.95128056
_cell_length_b   16.94281129
_cell_length_c   16.94052706
_cell_angle_alpha   90.03397537
_cell_angle_beta   90.09769951
_cell_angle_gamma   89.90280515
_symmetry_Int_Tables_number   1
_chemical_formula_structural   V85Zn86O256
_chemical_formula_sum   'V85 Zn86 O256'
_cell_volume   4865.34422155
_cell_formula_units_Z   1
loop_
 _symmetry_equiv_pos_site_id
 _symmetry_equiv_pos_as_xyz
  1  'x, y, z'
loop_
 _atom_site_type_symbol
 _atom_site_label
 _atom_site_symmetry_multiplicity
 _atom_site_fract_x
 _atom_site_fract_y
 _atom_site_fract_z
 _atom_site_occupancy
  V  V0  1  0.25043438  0.74964871  -0.00299397  1
  V  V1  1  0.75408021  0.36508192  0.12341135  1
  V  V2  1  0.26089195  0.87257808  0.62538926  1
  V  V3  1  0.87110478  0.37519010  0.50873622  1
  V  V4  1  0.62539651  0.37533432  0.24356344  1
  V  V5  1  0.63344021  0.24573221  0.87486650  1
  V  V6  1  0.87187822  0.62204012  0.74866577  1
  V  V7  1  0.13476773  0.24962150  0.87377281  1
  V  V8  1  0.12092011  0.00119405  0.62428672  1
  V  V9  1  0.12438116  0.12248587  0.00116401  1
  V  V10  1  0.75149173  0.25408910  0.50555585  1
  V  V11  1  0.88920318  0.00183341  0.88030744  1
  V  V12  1  0.75072576  0.87807007  0.62782862  1
  V  V13  1  0.12646995  0.37094937  0.74647477  1
  V  V14  1  0.74401368  0.50077256  0.24061545  1
  V  V15  1  0.12342537  0.87617015  0.25338622  1
  V  V16  1  0.00010339  0.50060173  0.50047633  1
  V  V17  1  0.50018902  0.63841213  0.63000012  1
  V  V18  1  0.24779079  0.62329288  0.86621055  1
  V  V19  1  0.62505172  0.61847543  0.00367332  1
  V  V20  1  0.37306280  0.63049951  0.24657760  1
  V  V21  1  0.25227301  0.87278824  0.12725999  1
  V  V22  1  0.62057871  0.76001645  0.37684649  1
  V  V23  1  0.12340313  0.24942437  0.37485651  1
  V  V24  1  0.37342188  0.49767193  0.87197997  1
  V  V25  1  0.49964421  0.49361892  0.00182180  1
  V  V26  1  0.37524773  0.13115069  0.74639977  1
  V  V27  1  -0.00631112  0.88232242  0.38041676  1
  V  V28  1  0.87161468  0.49938885  0.37628329  1
  V  V29  1  0.50378606  0.25332712  0.74875194  1
  V  V30  1  0.74649435  0.62029330  0.87010218  1
  V  V31  1  -0.00458116  0.24753180  0.23725356  1
  V  V32  1  0.62641082  0.25139422  0.37038897  1
  V  V33  1  0.50251640  0.37314850  0.87369426  1
  V  V34  1  0.12482861  0.62182857  -0.00701598  1
  V  V35  1  0.25280088  0.00132493  0.74855046  1
  V  V36  1  0.00224831  0.62037801  0.12585762  1
  V  V37  1  0.62457251  0.00621771  0.62489358  1
  V  V38  1  0.87305069  0.49445230  0.87535944  1
  V  V39  1  0.62685778  0.48457838  0.63207488  1
  V  V40  1  0.75875693  -0.00814063  0.25085486  1
  V  V41  1  0.42459029  0.06395289  0.30974931  1
  V  V42  1  0.49722051  0.37230674  0.37987880  1
  V  V43  1  0.74886950  0.75207319  -0.00459149  1
  V  V44  1  0.37342092  0.49890341  0.37944472  1
  V  V45  1  0.62620291  0.12530513  0.50064171  1
  V  V46  1  0.88186092  0.24348043  0.63776226  1
  V  V47  1  0.87303575  0.75185314  0.62295814  1
  V  V48  1  0.12472672  0.74799305  0.37864536  1
  V  V49  1  0.49927438  0.63037101  0.12287855  1
  V  V50  1  0.26504853  0.37744034  0.62733597  1
  V  V51  1  0.62218764  0.74705203  0.86895307  1
  V  V52  1  0.06651031  0.80679875  0.91569463  1
  V  V53  1  0.12872946  0.49830131  0.62899482  1
  V  V54  1  0.87342891  0.62287431  0.24916453  1
  V  V55  1  0.87498794  0.12640660  0.23755889  1
  V  V56  1  0.62865726  0.12184037  0.00186606  1
  V  V57  1  0.12017946  0.12821170  0.50270822  1
  V  V58  1  0.87827278  0.36070244  0.00295388  1
  V  V59  1  0.25020741  0.49748126  0.24249632  1
  V  V60  1  -0.00139287  0.37523160  0.37354564  1
  V  V61  1  0.49839749  0.86656315  0.87065458  1
  V  V62  1  0.25738775  0.74811421  0.50343355  1
  V  V63  1  0.44090775  0.29922664  0.19576644  1
  V  V64  1  0.49564126  0.12780764  0.62340824  1
  V  V65  1  0.76297277  0.12139624  0.37708676  1
  V  V66  1  0.37803512  0.63777150  0.74892662  1
  V  V67  1  0.37940589  0.00066125  0.87443280  1
  V  V68  1  0.49676233  0.49852454  0.50505846  1
  V  V69  1  0.26144082  0.26308721  0.01763497  1
  V  V70  1  0.12753168  0.37387815  0.24172169  1
  V  V71  1  0.75416874  0.01905835  0.75943784  1
  V  V72  1  0.49763998  0.75527208  0.25180945  1
  V  V73  1  0.48702349  0.12078267  0.12391698  1
  V  V74  1  0.24667803  0.00784979  0.25413835  1
  V  V75  1  0.37716490  0.88214984  0.48267749  1
  V  V76  1  0.00377968  0.37193959  0.87054164  1
  V  V77  1  0.12192453  0.87242947  0.74790577  1
  V  V78  1  0.37670455  0.86965746  0.00240280  1
  V  V79  1  0.25877547  0.25517527  0.50547810  1
  V  V80  1  0.74465576  0.62513505  0.37650367  1
  V  V81  1  0.00050252  0.62330879  0.62383179  1
  V  V82  1  0.61955242  0.87184392  0.74709845  1
  V  V83  1  0.00289813  0.74929781  0.74926014  1
  V  V84  1  0.87244595  0.75028363  0.12390909  1
  Zn  Zn85  1  0.25007644  0.62348019  0.37628484  1
  Zn  Zn86  1  0.12942259  0.62307444  0.50125285  1
  Zn  Zn87  1  -0.00249479  0.74838459  0.25540748  1
  Zn  Zn88  1  0.13152711  0.49538944  0.12016964  1
  Zn  Zn89  1  0.74814499  0.87383903  0.12243417  1
  Zn  Zn90  1  0.74628483  0.75071832  0.50154105  1
  Zn  Zn91  1  0.86917388  0.88493104  0.49828051  1
  Zn  Zn92  1  0.00178202  0.49586033  0.00049228  1
  Zn  Zn93  1  -0.01077944  0.00886496  0.50252432  1
  Zn  Zn94  1  0.89017586  0.87230675  -0.00956422  1
  Zn  Zn95  1  0.62608305  -0.00367653  0.12389050  1
  Zn  Zn96  1  0.25970617  0.13217187  0.88105793  1
  Zn  Zn97  1  0.49571779  -0.00025925  0.49142950  1
  Zn  Zn98  1  0.75787869  0.23701262  0.00114957  1
  Zn  Zn99  1  0.61992440  0.87656631  0.24866203  1
  Zn  Zn100  1  0.00014549  0.13043762  0.65835791  1
  Zn  Zn101  1  -0.01332221  0.11902270  0.09955887  1
  Zn  Zn102  1  0.11444677  -0.00237580  0.11813752  1
  Zn  Zn103  1  0.62329797  0.62525623  0.50336331  1
  Zn  Zn104  1  0.25115399  0.12153922  0.37757527  1
  Zn  Zn105  1  0.50265841  -0.00278124  0.00097760  1
  Zn  Zn106  1  0.74806218  0.48036914  0.74641876  1
  Zn  Zn107  1  0.18693205  0.18841048  0.18270094  1
  Zn  Zn108  1  0.18872252  0.18929894  0.68688346  1
  Zn  Zn109  1  0.18802747  0.68836227  0.18643292  1
  Zn  Zn110  1  0.18818411  0.68850648  0.68637794  1
  Zn  Zn111  1  0.68487945  0.18301765  0.18527294  1
  Zn  Zn112  1  0.68650403  0.30114186  0.68813564  1
  Zn  Zn113  1  0.68377822  0.68922684  0.18656392  1
  Zn  Zn114  1  0.68461439  0.68544574  0.68658263  1
  Zn  Zn115  1  0.30664961  0.31554173  0.31868721  1
  Zn  Zn116  1  0.31663793  0.31645457  0.81132277  1
  Zn  Zn117  1  0.30973155  0.81111878  0.31278266  1
  Zn  Zn118  1  0.30775667  0.81085768  0.81484003  1
  Zn  Zn119  1  0.81331677  0.31091037  0.31408775  1
  Zn  Zn120  1  0.81373590  0.30728955  0.81713918  1
  Zn  Zn121  1  0.81350774  0.80783673  0.31462362  1
  Zn  Zn122  1  0.81244969  0.81679044  0.81060348  1
  Zn  Zn123  1  0.18792954  0.43552757  0.43793333  1
  Zn  Zn124  1  0.19278983  0.43720134  0.93868702  1
  Zn  Zn125  1  0.18728407  0.93890555  0.43865368  1
  Zn  Zn126  1  0.19554847  0.94375488  0.93762568  1
  Zn  Zn127  1  0.68404469  0.43889721  0.43842867  1
  Zn  Zn128  1  0.68693624  0.43251595  0.93565578  1
  Zn  Zn129  1  0.68978507  0.93957834  0.43832768  1
  Zn  Zn130  1  0.68806176  0.93808212  0.93520675  1
  Zn  Zn131  1  0.30615417  0.06078270  0.06164680  1
  Zn  Zn132  1  0.31001200  0.06293669  0.56097017  1
  Zn  Zn133  1  0.31610042  0.56193597  0.05994932  1
  Zn  Zn134  1  0.31586773  0.56222600  0.56558329  1
  Zn  Zn135  1  0.81452536  0.05459865  0.05788401  1
  Zn  Zn136  1  0.81380880  0.06484012  0.56796769  1
  Zn  Zn137  1  0.81190628  0.55894499  0.05982298  1
  Zn  Zn138  1  0.80773270  0.56201314  0.56311032  1
  Zn  Zn139  1  0.44209080  0.46029727  0.18786414  1
  Zn  Zn140  1  0.43970739  0.44322810  0.69474202  1
  Zn  Zn141  1  0.43753921  0.93343652  0.18002822  1
  Zn  Zn142  1  0.43998302  0.94072151  0.68541914  1
  Zn  Zn143  1  0.93642599  0.43635322  0.18705628  1
  Zn  Zn144  1  0.93848797  0.43382972  0.68939925  1
  Zn  Zn145  1  0.93840940  0.93947049  0.18542810  1
  Zn  Zn146  1  0.93617593  0.94134518  0.69498355  1
  Zn  Zn147  1  0.06111692  0.06363243  0.31080502  1
  Zn  Zn148  1  0.07158216  0.05730553  0.81870165  1
  Zn  Zn149  1  0.06374151  0.56207425  0.31262833  1
  Zn  Zn150  1  0.06230823  0.55768099  0.81014051  1
  Zn  Zn151  1  0.58511995  0.06488455  0.30933515  1
  Zn  Zn152  1  0.56556073  0.06329707  0.81238246  1
  Zn  Zn153  1  0.56189176  0.56343965  0.31257144  1
  Zn  Zn154  1  0.55999981  0.56074411  0.80951828  1
  Zn  Zn155  1  0.44036046  0.19388234  0.44128470  1
  Zn  Zn156  1  0.43934687  0.18867218  0.94100466  1
  Zn  Zn157  1  0.43699462  0.68670031  0.43913131  1
  Zn  Zn158  1  0.43555766  0.68698565  0.93703496  1
  Zn  Zn159  1  0.93876084  0.18997008  0.43750456  1
  Zn  Zn160  1  0.95879606  0.16837574  0.86934872  1
  Zn  Zn161  1  0.93609629  0.68965249  0.43935413  1
  Zn  Zn162  1  0.93150021  0.67878980  0.93978492  1
  Zn  Zn163  1  0.06513718  0.30685128  0.05664129  1
  Zn  Zn164  1  0.06043369  0.31299720  0.56308016  1
  Zn  Zn165  1  0.06514663  0.80558294  0.07996166  1
  Zn  Zn166  1  0.06497962  0.81280517  0.56182388  1
  Zn  Zn167  1  0.56628193  0.31088132  0.05886210  1
  Zn  Zn168  1  0.55619263  0.30998224  0.55864042  1
  Zn  Zn169  1  0.56478393  0.81034358  0.06303546  1
  Zn  Zn170  1  0.55988571  0.81597002  0.55798534  1
  O  O171  1  0.12294385  0.12457968  0.10953928  1
  O  O172  1  0.12121739  0.11981134  0.62095675  1
  O  O173  1  0.11748188  0.62562735  0.11469969  1
  O  O174  1  0.12075187  0.61505339  0.62475105  1
  O  O175  1  0.61225651  0.12274532  0.12024139  1
  O  O176  1  0.61805400  0.11378628  0.61796621  1
  O  O177  1  0.61841482  0.62852147  0.11238792  1
  O  O178  1  0.61150462  0.61717776  0.62523042  1
  O  O179  1  0.38526180  0.38806958  0.36834031  1
  O  O180  1  0.38769119  0.38521626  0.87098531  1
  O  O181  1  0.37191558  0.87737756  0.38422100  1
  O  O182  1  0.38101495  0.87895099  0.87772215  1
  O  O183  1  0.87989359  0.38075854  0.38257655  1
  O  O184  1  0.88498649  0.37761206  0.88015199  1
  O  O185  1  0.89067817  0.86608845  0.37800731  1
  O  O186  1  0.86767662  0.88865536  0.87541144  1
  O  O187  1  0.24549927  0.00229336  0.36417165  1
  O  O188  1  0.26597923  0.00109183  0.86639939  1
  O  O189  1  0.25805044  0.50103772  0.36977902  1
  O  O190  1  0.26096675  0.51119630  0.88176472  1
  O  O191  1  0.74565634  0.00961755  0.36419767  1
  O  O192  1  0.74411127  0.00143033  0.86078550  1
  O  O193  1  0.75280640  0.50660305  0.36763833  1
  O  O194  1  0.75599194  0.50226849  0.87126300  1
  O  O195  1  0.25154271  0.50433071  0.13804628  1
  O  O196  1  0.24262121  0.48575632  0.61579338  1
  O  O197  1  0.24457242  0.98715817  0.13200583  1
  O  O198  1  0.23944429  0.99418156  0.62966801  1
  O  O199  1  0.75264031  0.49337230  0.13668537  1
  O  O200  1  0.73037805  0.50342738  0.62506121  1
  O  O201  1  0.75289800  0.99433540  0.13806372  1
  O  O202  1  0.74280385  0.99510694  0.63486163  1
  O  O203  1  0.00316573  0.36751056  0.25512794  1
  O  O204  1  0.01260047  0.37824452  0.75844369  1
  O  O205  1  0.00680127  0.87180799  0.26165925  1
  O  O206  1  0.01356624  0.86749514  0.74617554  1
  O  O207  1  0.50471202  0.37118588  0.25292820  1
  O  O208  1  0.49685853  0.36395991  0.75774711  1
  O  O209  1  0.49561965  0.85873202  0.24645125  1
  O  O210  1  0.51099635  0.87992181  0.75477240  1
  O  O211  1  0.49125198  0.11542395  0.24981314  1
  O  O212  1  0.49407363  0.12918409  0.74246369  1
  O  O213  1  0.49347397  0.62859425  0.24169481  1
  O  O214  1  0.49444347  0.62605057  0.73875396  1
  O  O215  1  0.98884688  0.13366949  0.25547935  1
  O  O216  1  1.00727782  0.13417007  0.77021593  1
  O  O217  1  0.99311545  0.62460171  0.24331876  1
  O  O218  1  0.99372635  0.62912071  0.74373156  1
  O  O219  1  0.35951847  0.24782449  -0.00482312  1
  O  O220  1  0.35719776  0.24926830  0.49658869  1
  O  O221  1  0.36577743  0.76087333  -0.00472973  1
  O  O222  1  0.36449411  0.76197126  0.49418199  1
  O  O223  1  0.87359076  0.26126513  -0.00583405  1
  O  O224  1  0.86903181  0.25810926  0.50222216  1
  O  O225  1  0.86604502  0.74900875  0.00476175  1
  O  O226  1  0.87278960  0.75440800  0.51408781  1
  O  O227  1  0.12917085  0.24659496  0.49383981  1
  O  O228  1  0.13934666  0.24471386  0.99277248  1
  O  O229  1  0.13600220  0.74914237  0.49420917  1
  O  O230  1  0.12661582  0.74550459  0.99059655  1
  O  O231  1  0.63356895  0.24796588  0.49212443  1
  O  O232  1  0.62714379  0.24068129  0.99286470  1
  O  O233  1  0.62457334  0.74736888  0.49155510  1
  O  O234  1  0.63065583  0.73896243  0.99061152  1
  O  O235  1  0.49982612  0.24250438  0.13061572  1
  O  O236  1  0.50500559  0.23747327  0.63207573  1
  O  O237  1  0.50278098  0.73785847  0.13260856  1
  O  O238  1  0.50272742  0.73666744  0.62177380  1
  O  O239  1  1.00477438  0.24260169  0.13514470  1
  O  O240  1  0.98594166  0.24877691  0.62140743  1
  O  O241  1  0.99138701  0.73562097  0.13077277  1
  O  O242  1  0.99406312  0.74476720  0.62971497  1
  O  O243  1  0.01050379  0.25563101  0.36980682  1
  O  O244  1  0.01907652  0.26585793  0.88088787  1
  O  O245  1  0.00884950  0.75661312  0.37630038  1
  O  O246  1  -0.00198569  0.74197031  0.86565612  1
  O  O247  1  0.51135880  0.26079168  0.38048621  1
  O  O248  1  0.50411403  0.25668450  0.86918456  1
  O  O249  1  0.51000585  0.73913104  0.36532755  1
  O  O250  1  0.50337137  0.76029230  0.87649840  1
  O  O251  1  0.23903500  0.13745474  0.50283308  1
  O  O252  1  0.24300457  0.13503630  0.99978927  1
  O  O253  1  0.25182516  0.63392429  0.49980337  1
  O  O254  1  0.24235484  0.63238637  0.99626411  1
  O  O255  1  0.74568485  0.13187015  0.49368987  1
  O  O256  1  0.73370315  0.12356476  1.01264186  1
  O  O257  1  0.74616930  0.62730976  0.49013524  1
  O  O258  1  0.74327042  0.62979490  0.99261614  1
  O  O259  1  0.24715800  0.36295216  0.00404225  1
  O  O260  1  0.24538127  0.36370286  0.51060388  1
  O  O261  1  0.25479371  0.86860642  0.00508929  1
  O  O262  1  0.25892022  0.87069172  0.50624537  1
  O  O263  1  0.75779351  0.37541148  0.00945680  1
  O  O264  1  0.75934403  0.36763339  0.49195102  1
  O  O265  1  0.74519853  0.85793309  -0.00140436  1
  O  O266  1  0.74822131  0.87375856  0.51515303  1
  O  O267  1  0.13335855  0.49306723  0.24921658  1
  O  O268  1  0.12453293  0.49072307  0.73645695  1
  O  O269  1  0.13018066  0.98817841  0.25143967  1
  O  O270  1  0.13400086  0.99121206  0.74544025  1
  O  O271  1  0.63282752  0.48932762  0.25593025  1
  O  O272  1  0.62284858  0.49804194  0.73483904  1
  O  O273  1  0.64282454  0.99494259  0.24547938  1
  O  O274  1  0.63115253  0.99474177  0.74222675  1
  O  O275  1  0.36793564  -0.00173687  0.25220519  1
  O  O276  1  0.37279721  0.00833671  0.75512672  1
  O  O277  1  0.36817271  0.51067471  0.25867585  1
  O  O278  1  0.38149262  0.51365618  0.76587788  1
  O  O279  1  0.86570520  0.00873550  0.25137474  1
  O  O280  1  0.86191478  -0.00230324  0.76056380  1
  O  O281  1  0.86605096  0.50408131  0.25663010  1
  O  O282  1  0.87220647  0.50093083  0.75924172  1
  O  O283  1  0.11832382  0.36930674  0.36665593  1
  O  O284  1  0.12331227  0.37430527  0.86613506  1
  O  O285  1  0.11846949  0.86601616  0.37221550  1
  O  O286  1  0.13193611  0.87462286  0.86641240  1
  O  O287  1  0.61738055  0.37129065  0.36552955  1
  O  O288  1  0.61098923  0.36357446  0.88189520  1
  O  O289  1  0.62834484  0.86354054  0.37221487  1
  O  O290  1  0.61665310  0.86955469  0.86659330  1
  O  O291  1  0.38706004  0.11761742  0.12094115  1
  O  O292  1  0.38375125  0.11923877  0.63261016  1
  O  O293  1  0.38355107  0.62184331  0.13482151  1
  O  O294  1  0.38936745  0.61785806  0.63515590  1
  O  O295  1  0.87218832  0.12597140  0.13342097  1
  O  O296  1  0.88122072  0.13983549  0.62492315  1
  O  O297  1  0.88035118  0.63078183  0.12626888  1
  O  O298  1  0.87772436  0.63086206  0.62989200  1
  O  O299  1  0.25310587  0.25223603  0.11781606  1
  O  O300  1  0.24686485  0.26262595  0.61421735  1
  O  O301  1  0.24081861  0.76122976  0.11122428  1
  O  O302  1  0.24465864  0.76027394  0.61539169  1
  O  O303  1  0.74770300  0.26221335  0.12534936  1
  O  O304  1  0.76160063  0.25004626  0.61137469  1
  O  O305  1  0.75730159  0.74635389  0.11523818  1
  O  O306  1  0.75683979  0.75704998  0.62607259  1
  O  O307  1  0.23832436  0.25084469  0.38698735  1
  O  O308  1  0.24313896  0.25484970  0.87600162  1
  O  O309  1  0.24092195  0.74883911  0.38344312  1
  O  O310  1  0.24988344  0.74045507  0.88769151  1
  O  O311  1  0.74534725  0.24453673  0.38434587  1
  O  O312  1  0.73648547  0.24949705  0.88082462  1
  O  O313  1  0.74111222  0.74148278  0.37596836  1
  O  O314  1  0.74599680  0.74122259  0.87897316  1
  O  O315  1  0.02250284  0.13726960  -0.01244472  1
  O  O316  1  0.01353395  0.12639383  0.49736170  1
  O  O317  1  0.00848286  0.62237260  0.00603977  1
  O  O318  1  0.00086852  0.61868151  0.50685238  1
  O  O319  1  0.50660300  0.12253721  0.00952067  1
  O  O320  1  0.50553276  0.12435028  0.50669742  1
  O  O321  1  0.50661537  0.62201799  0.00442513  1
  O  O322  1  0.49909008  0.61747015  0.51280441  1
  O  O323  1  0.50131773  0.38250706  0.48899383  1
  O  O324  1  0.50417421  0.38794016  0.99683139  1
  O  O325  1  0.48132965  0.87888955  0.50291819  1
  O  O326  1  0.49180129  0.87282163  0.99204764  1
  O  O327  1  0.99216132  0.38134503  0.49342885  1
  O  O328  1  0.99459711  0.37666641  0.99474042  1
  O  O329  1  1.00148722  0.87604776  0.48848968  1
  O  O330  1  1.00996899  0.85509857  0.99014208  1
  O  O331  1  0.49539503  0.49422363  0.38259745  1
  O  O332  1  0.49734084  0.49265118  0.88062109  1
  O  O333  1  0.49279492  1.01333801  0.36764390  1
  O  O334  1  0.49126232  0.98839956  0.87436769  1
  O  O335  1  0.99237774  0.49678295  0.38009520  1
  O  O336  1  0.99270998  0.48959823  0.87579770  1
  O  O337  1  1.00715998  0.98444981  0.37799581  1
  O  O338  1  0.98916410  0.99528693  0.87269204  1
  O  O339  1  0.00168283  0.00830337  0.12654575  1
  O  O340  1  0.01195569  0.00399886  0.63019729  1
  O  O341  1  0.00030116  0.51143960  0.12432076  1
  O  O342  1  0.00678688  0.50352579  0.62035208  1
  O  O343  1  0.50284860  0.00633386  0.12252192  1
  O  O344  1  0.50796429  0.01099692  0.62333514  1
  O  O345  1  0.50329569  0.51542738  0.11334272  1
  O  O346  1  0.50955136  0.50071665  0.62018779  1
  O  O347  1  0.23915682  0.38497676  0.25623737  1
  O  O348  1  0.24575513  0.37269524  0.73383996  1
  O  O349  1  0.24363962  0.87862661  0.24397863  1
  O  O350  1  0.24137969  0.87632544  0.74290582  1
  O  O351  1  0.74459590  0.38114586  0.24523042  1
  O  O352  1  0.74596153  0.36856818  0.75351140  1
  O  O353  1  0.75567501  0.88495635  0.25194963  1
  O  O354  1  0.73746409  0.87731149  0.73917092  1
  O  O355  1  0.24201050  0.11122442  0.24944572  1
  O  O356  1  0.25996157  0.12133531  0.75024134  1
  O  O357  1  0.25669881  0.62054359  0.25216926  1
  O  O358  1  0.25416936  0.62918295  0.76108708  1
  O  O359  1  0.75714401  0.11847336  0.25607332  1
  O  O360  1  0.74649808  0.11363676  0.74778047  1
  O  O361  1  0.75162304  0.61755835  0.25453742  1
  O  O362  1  0.75606559  0.62204071  0.75557402  1
  O  O363  1  0.37212036  0.12604675  0.37300993  1
  O  O364  1  0.37903739  0.11558163  0.86789509  1
  O  O365  1  0.37554914  0.61363152  0.36847290  1
  O  O366  1  0.36784970  0.62171794  0.86869527  1
  O  O367  1  0.86490962  0.13110421  0.36860089  1
  O  O368  1  0.86924881  0.10367632  0.88449757  1
  O  O369  1  0.86353659  0.62259812  0.37055580  1
  O  O370  1  0.86813290  0.61329261  0.86877656  1
  O  O371  1  0.11546381  0.37650618  0.13853836  1
  O  O372  1  0.12896017  0.37983350  0.63083030  1
  O  O373  1  0.13108766  0.87648046  0.13724872  1
  O  O374  1  0.13214970  0.88254307  0.63033664  1
  O  O375  1  0.63054633  0.37069807  0.13778806  1
  O  O376  1  0.62322331  0.38023944  0.62296299  1
  O  O377  1  0.62944372  0.87472373  0.12984654  1
  O  O378  1  0.62661280  0.88457795  0.62936118  1
  O  O379  1  0.12042386  0.25528224  0.25680158  1
  O  O380  1  0.13268503  0.26299132  0.75668320  1
  O  O381  1  0.12506132  0.75971549  0.25832151  1
  O  O382  1  0.11339854  0.75529908  0.74733589  1
  O  O383  1  0.63329372  0.25720787  0.26319440  1
  O  O384  1  0.61142795  0.24368788  0.75876684  1
  O  O385  1  0.61547941  0.74970420  0.25794363  1
  O  O386  1  0.62821863  0.76005741  0.75565637  1
  O  O387  1  0.37836535  0.25022476  0.25578781  1
  O  O388  1  0.38522674  0.23755884  0.75566442  1
  O  O389  1  0.38019444  0.73774786  0.25767065  1
  O  O390  1  0.37175530  0.73776517  0.75427393  1
  O  O391  1  0.88459834  0.24225775  0.25394748  1
  O  O392  1  0.87618996  0.25346318  0.73649962  1
  O  O393  1  0.87376595  0.73999694  0.24115490  1
  O  O394  1  0.88309126  0.74608526  0.74079129  1
  O  O395  1  0.38708876  0.50318128  0.49343611  1
  O  O396  1  0.38872872  0.51014797  0.98653237  1
  O  O397  1  0.37267219  0.98717090  0.50015530  1
  O  O398  1  0.37378652  0.98722343  0.99057692  1
  O  O399  1  0.87717579  0.49338225  0.49707560  1
  O  O400  1  0.87583830  0.49407662  0.98596994  1
  O  O401  1  0.87710048  0.99766242  0.50606716  1
  O  O402  1  0.87148870  0.98742393  0.98748489  1
  O  O403  1  0.13363931  0.01672773  -0.00221420  1
  O  O404  1  0.12393048  0.00910558  0.50994934  1
  O  O405  1  0.12405662  0.50805825  0.00299346  1
  O  O406  1  0.11878692  0.49955145  0.50926916  1
  O  O407  1  0.62188311  0.00603262  0.00117655  1
  O  O408  1  0.62021888  0.00484844  0.50621168  1
  O  O409  1  0.61722536  0.51160341  -0.00898445  1
  O  O410  1  0.61386452  0.50050808  0.50927751  1
  O  O411  1  0.39053276  0.36656344  0.14300548  1
  O  O412  1  0.36360653  0.38231259  0.62946086  1
  O  O413  1  0.36492207  0.87424782  0.11437532  1
  O  O414  1  0.36272155  0.87972642  0.62503347  1
  O  O415  1  0.86680659  0.38026356  0.11504915  1
  O  O416  1  0.87945061  0.36768117  0.61338044  1
  O  O417  1  0.87634532  0.85866556  0.12153845  1
  O  O418  1  0.86601530  0.86808280  0.63048698  1
  O  O419  1  0.12718687  0.13410902  0.38180525  1
  O  O420  1  0.13798500  0.13438530  0.88226388  1
  O  O421  1  0.12616234  0.63612644  0.37734467  1
  O  O422  1  0.13192207  0.61704888  0.88373621  1
  O  O423  1  0.63644450  0.13593881  0.38077157  1
  O  O424  1  0.61366605  0.13422899  0.88804058  1
  O  O425  1  0.63468547  0.62951199  0.37570511  1
  O  O426  1  0.62818250  0.62833933  0.87759023  1
