# generated using pymatgen
data_V85Zn86O256
_symmetry_space_group_name_H-M   'P 1'
_cell_length_a   16.93310555
_cell_length_b   16.93225638
_cell_length_c   16.92714987
_cell_angle_alpha   89.93022268
_cell_angle_beta   90.00355840
_cell_angle_gamma   89.94804834
_symmetry_Int_Tables_number   1
_chemical_formula_structural   V85Zn86O256
_chemical_formula_sum   'V85 Zn86 O256'
_cell_volume   4853.27375667
_cell_formula_units_Z   1
loop_
 _symmetry_equiv_pos_site_id
 _symmetry_equiv_pos_as_xyz
  1  'x, y, z'
loop_
 _atom_site_type_symbol
 _atom_site_label
 _atom_site_symmetry_multiplicity
 _atom_site_fract_x
 _atom_site_fract_y
 _atom_site_fract_z
 _atom_site_occupancy
  V  V0  1  -0.00365393  0.24485302  0.75922061  1
  V  V1  1  0.37520684  0.12704728  0.25250249  1
  V  V2  1  0.25179068  0.51128309  0.74804303  1
  V  V3  1  0.62350177  0.87568410  0.25248042  1
  V  V4  1  0.37522519  0.87210198  0.50543726  1
  V  V5  1  0.49953181  0.49957733  0.49961802  1
  V  V6  1  0.87353941  0.24587517  0.12134312  1
  V  V7  1  0.00005348  0.00469870  0.00796458  1
  V  V8  1  0.37506609  0.00024146  0.37760192  1
  V  V9  1  0.55807841  0.70765877  0.30982031  1
  V  V10  1  0.74732328  0.25406750  -0.00324504  1
  V  V11  1  0.12405773  0.87553667  0.75005229  1
  V  V12  1  0.37345299  0.00679293  0.87177424  1
  V  V13  1  0.49561174  0.62265345  0.62913112  1
  V  V14  1  0.62596230  0.75059383  0.87542016  1
  V  V15  1  -0.00669975  0.74586661  0.73745986  1
  V  V16  1  0.11733518  0.62673637  0.49070434  1
  V  V17  1  0.37602624  0.37550396  -0.00277046  1
  V  V18  1  0.24720719  0.12679665  0.37553934  1
  V  V19  1  0.25424705  0.49943184  0.25810112  1
  V  V20  1  0.75029302  0.61776455  0.86854613  1
  V  V21  1  0.62685295  0.25031363  0.38277737  1
  V  V22  1  0.63219208  0.49854469  0.63383873  1
  V  V23  1  0.62461776  0.12842002  -0.01139284  1
  V  V24  1  0.75247405  0.12798760  0.37685742  1
  V  V25  1  0.37310521  0.87600245  -0.00001277  1
  V  V26  1  0.37739370  0.75019694  0.13034425  1
  V  V27  1  0.87506496  0.24285187  0.61247830  1
  V  V28  1  0.37715052  0.50820121  0.86897220  1
  V  V29  1  0.50092717  0.24993405  0.25282156  1
  V  V30  1  0.62632262  0.62656101  -0.00110717  1
  V  V31  1  -0.00414078  0.88218073  0.87442941  1
  V  V32  1  0.76569850  0.00245574  0.75222325  1
  V  V33  1  -0.00145044  -0.00150259  0.50219881  1
  V  V34  1  0.12375716  0.74165785  0.87909747  1
  V  V35  1  0.24460521  0.74874678  0.49576497  1
  V  V36  1  0.24639011  0.13563485  0.87248981  1
  V  V37  1  0.75179939  0.00035618  0.24878402  1
  V  V38  1  0.00736099  0.86853523  0.37541117  1
  V  V39  1  0.49192514  0.74739516  0.75039078  1
  V  V40  1  0.87468145  0.88348615  -0.00021000  1
  V  V41  1  0.50686703  0.36599414  0.86820051  1
  V  V42  1  0.24803391  0.37936921  0.12391838  1
  V  V43  1  0.93396560  0.69232051  0.07881365  1
  V  V44  1  0.75537195  0.86467318  0.62458407  1
  V  V45  1  0.50059972  0.49884908  -0.00053147  1
  V  V46  1  0.62640263  0.87767710  0.74887285  1
  V  V47  1  0.50093291  0.12601958  0.12463700  1
  V  V48  1  0.24903163  0.37501321  0.62786827  1
  V  V49  1  0.76173899  0.37335734  0.62144710  1
  V  V50  1  0.87094638  0.62060262  0.73395869  1
  V  V51  1  0.24932920  0.87587288  0.12550199  1
  V  V52  1  0.62482798  0.00318625  0.12368904  1
  V  V53  1  0.24783127  -0.00008380  0.25068301  1
  V  V54  1  0.37415068  0.25207688  0.12477221  1
  V  V55  1  0.87479331  0.38305634  0.00180576  1
  V  V56  1  0.86403473  0.49694755  0.37669747  1
  V  V57  1  0.74667504  0.74420828  0.48045201  1
  V  V58  1  0.87622185  -0.00307333  0.37386787  1
  V  V59  1  0.75296018  0.87057750  0.12324371  1
  V  V60  1  0.49970959  0.87650859  0.87593407  1
  V  V61  1  0.63102911  0.49353715  0.12360303  1
  V  V62  1  0.37156703  0.37710919  0.50043619  1
  V  V63  1  0.50230954  0.00201346  0.51207808  1
  V  V64  1  0.76821330  0.12565753  0.87067576  1
  V  V65  1  0.12187999  0.25207981  0.37495936  1
  V  V66  1  0.00716061  0.38449399  0.87753533  1
  V  V67  1  0.50293632  0.23450581  0.73912038  1
  V  V68  1  0.11277139  0.51308621  0.11552819  1
  V  V69  1  0.49179768  0.37315087  0.37515570  1
  V  V70  1  0.12013256  0.50573686  0.62468083  1
  V  V71  1  0.50267215  0.63066263  0.12663232  1
  V  V72  1  0.11983272  0.12796457  0.50369727  1
  V  V73  1  -0.00084523  0.24471714  0.24338304  1
  V  V74  1  0.87025200  0.63078108  0.25982238  1
  V  V75  1  0.12261048  0.37781838  0.24850672  1
  V  V76  1  0.50227294  0.87578023  0.37328031  1
  V  V77  1  0.00748537  0.74202956  0.25551099  1
  V  V78  1  0.37676647  0.62518608  0.25892335  1
  V  V79  1  0.63536701  0.36959691  0.24689191  1
  V  V80  1  -0.00884962  0.50149213  0.50389521  1
  V  V81  1  0.24935064  0.00646742  0.74972037  1
  V  V82  1  0.12177692  0.13459601  0.00333183  1
  V  V83  1  0.62852827  0.12498199  0.50745168  1
  V  V84  1  -0.00746996  0.37510524  0.38038012  1
  Zn  Zn85  1  0.24402929  0.25701675  -0.00817073  1
  Zn  Zn86  1  0.75191767  0.49949975  0.24955006  1
  Zn  Zn87  1  0.62847462  0.00500211  0.62943580  1
  Zn  Zn88  1  0.12270232  0.00170030  0.62771206  1
  Zn  Zn89  1  0.24933470  0.62505900  0.37556186  1
  Zn  Zn90  1  0.75480166  0.74915797  -0.00141858  1
  Zn  Zn91  1  0.36922727  0.23191323  0.63694125  1
  Zn  Zn92  1  0.12676977  0.37277489  0.75569950  1
  Zn  Zn93  1  0.12227779  0.00444465  0.12753518  1
  Zn  Zn94  1  0.87407635  0.49984719  0.86970085  1
  Zn  Zn95  1  0.63503981  0.37038031  0.75473352  1
  Zn  Zn96  1  -0.00556717  0.12123290  0.63651535  1
  Zn  Zn97  1  0.12796864  0.86836378  0.25375223  1
  Zn  Zn98  1  0.62368971  0.62907906  0.49058223  1
  Zn  Zn99  1  0.87834549  0.86470055  0.50486859  1
  Zn  Zn100  1  0.88140657  0.12053810  0.24193234  1
  Zn  Zn101  1  0.36793920  0.74181851  0.63093798  1
  Zn  Zn102  1  0.49912620  0.00298364  -0.00069878  1
  Zn  Zn103  1  0.25059465  0.62506379  0.87904538  1
  Zn  Zn104  1  0.24919440  0.87372145  0.62655317  1
  Zn  Zn105  1  0.24281900  0.74184489  0.00616631  1
  Zn  Zn106  1  0.24729027  0.25145628  0.50408000  1
  Zn  Zn107  1  0.18666652  0.19063869  0.18429916  1
  Zn  Zn108  1  0.17936779  0.19090833  0.68907530  1
  Zn  Zn109  1  0.18898328  0.68573101  0.18835383  1
  Zn  Zn110  1  0.18246310  0.68781990  0.68299512  1
  Zn  Zn111  1  0.69212889  0.18816570  0.18498711  1
  Zn  Zn112  1  0.69121874  0.19487609  0.69323703  1
  Zn  Zn113  1  0.69625399  0.68441745  0.18286521  1
  Zn  Zn114  1  0.68243714  0.68566639  0.68642249  1
  Zn  Zn115  1  0.31079515  0.31227533  0.31480230  1
  Zn  Zn116  1  0.31976828  0.31653605  0.80685791  1
  Zn  Zn117  1  0.31511439  0.81015298  0.31487234  1
  Zn  Zn118  1  0.30874418  0.81596369  0.81442524  1
  Zn  Zn119  1  0.81418142  0.30902286  0.31367983  1
  Zn  Zn120  1  0.81623484  0.31302771  0.80921303  1
  Zn  Zn121  1  0.81809372  0.81350050  0.31017887  1
  Zn  Zn122  1  0.81245516  0.80982005  0.81291536  1
  Zn  Zn123  1  0.18217877  0.43946917  0.43824633  1
  Zn  Zn124  1  0.18794338  0.44482204  0.93819921  1
  Zn  Zn125  1  0.18631324  0.93766229  0.43959169  1
  Zn  Zn126  1  0.18465357  0.94032125  0.93676947  1
  Zn  Zn127  1  0.68443451  0.43332945  0.44414672  1
  Zn  Zn128  1  0.68919025  0.43708143  0.93697531  1
  Zn  Zn129  1  0.68852098  0.93547571  0.43933333  1
  Zn  Zn130  1  0.68964822  0.94330191  0.93551074  1
  Zn  Zn131  1  0.30944305  0.06505408  0.06012637  1
  Zn  Zn132  1  0.30765751  0.06089435  0.56563520  1
  Zn  Zn133  1  0.30995086  0.56303293  0.06469501  1
  Zn  Zn134  1  0.31223170  0.56171225  0.56056394  1
  Zn  Zn135  1  0.81259344  0.06381734  0.05921772  1
  Zn  Zn136  1  0.81147542  0.05974129  0.56387889  1
  Zn  Zn137  1  0.80795545  0.55968558  0.06013023  1
  Zn  Zn138  1  0.80624554  0.56567681  0.55701839  1
  Zn  Zn139  1  0.43973422  0.43997194  0.18839189  1
  Zn  Zn140  1  0.43597769  0.43598571  0.68670940  1
  Zn  Zn141  1  0.43801553  0.93920303  0.18894381  1
  Zn  Zn142  1  0.43602663  0.93894982  0.68990878  1
  Zn  Zn143  1  0.93545557  0.43574631  0.18802437  1
  Zn  Zn144  1  0.93636851  0.43470252  0.68955629  1
  Zn  Zn145  1  0.93845496  0.93081257  0.18687387  1
  Zn  Zn146  1  0.93686665  0.93469588  0.68602371  1
  Zn  Zn147  1  0.06271186  0.06203418  0.31373552  1
  Zn  Zn148  1  0.06330483  0.06451275  0.81916152  1
  Zn  Zn149  1  0.05865264  0.55924812  0.31017212  1
  Zn  Zn150  1  0.05868747  0.56206682  0.80724417  1
  Zn  Zn151  1  0.56335319  0.06271582  0.31722499  1
  Zn  Zn152  1  0.56446154  0.06076203  0.81161832  1
  Zn  Zn153  1  0.56178744  0.54409121  0.31165692  1
  Zn  Zn154  1  0.56095157  0.56168575  0.81205022  1
  Zn  Zn155  1  0.42305559  0.17273968  0.47185598  1
  Zn  Zn156  1  0.43612935  0.18939494  0.93514977  1
  Zn  Zn157  1  0.43243292  0.68436244  0.44676723  1
  Zn  Zn158  1  0.43544379  0.68951804  0.94114861  1
  Zn  Zn159  1  0.93661956  0.18576899  0.43571944  1
  Zn  Zn160  1  0.94059960  0.19253374  0.93881341  1
  Zn  Zn161  1  0.93195641  0.68607335  0.44173037  1
  Zn  Zn162  1  0.93683702  0.68994615  0.91624324  1
  Zn  Zn163  1  0.05955996  0.31771361  0.06232883  1
  Zn  Zn164  1  0.05852381  0.31482541  0.56655820  1
  Zn  Zn165  1  0.06690165  0.81924005  0.06164356  1
  Zn  Zn166  1  0.06510827  0.81269536  0.56250606  1
  Zn  Zn167  1  0.56338375  0.31031659  0.06066825  1
  Zn  Zn168  1  0.56527478  0.31390563  0.56549174  1
  Zn  Zn169  1  0.56335879  0.81382439  0.06265592  1
  Zn  Zn170  1  0.56638894  0.81095153  0.56438621  1
  O  O171  1  0.13293506  0.12224054  0.10881711  1
  O  O172  1  0.11762492  0.12321391  0.61603866  1
  O  O173  1  0.12683926  0.61218635  0.12878801  1
  O  O174  1  0.12663446  0.61123659  0.61455996  1
  O  O175  1  0.62128079  0.12035817  0.11818919  1
  O  O176  1  0.63751053  0.12729229  0.61059400  1
  O  O177  1  0.61971878  0.61879945  0.12104511  1
  O  O178  1  0.61696219  0.61284208  0.62387236  1
  O  O179  1  0.38643797  0.37493460  0.37713679  1
  O  O180  1  0.38470182  0.38332912  0.88168619  1
  O  O181  1  0.38241774  0.87919057  0.38460779  1
  O  O182  1  0.37681952  0.88349516  0.88354712  1
  O  O183  1  0.88286039  0.38143424  0.37041737  1
  O  O184  1  0.88202266  0.37856402  0.88356366  1
  O  O185  1  0.88346102  0.88553335  0.37657451  1
  O  O186  1  0.88250865  0.86550350  0.88951186  1
  O  O187  1  0.25391401  0.00424163  0.36865714  1
  O  O188  1  0.25494977  0.00795559  0.86883860  1
  O  O189  1  0.24764206  0.49866699  0.36170078  1
  O  O190  1  0.25884444  0.50074843  0.86604236  1
  O  O191  1  0.75867423  0.00180877  0.36930527  1
  O  O192  1  0.74823545  0.01507882  0.86754487  1
  O  O193  1  0.76016309  0.49048987  0.37657187  1
  O  O194  1  0.74778565  0.51376749  0.87415017  1
  O  O195  1  0.24680796  0.49039671  0.13395838  1
  O  O196  1  0.24426921  0.49623413  0.63104136  1
  O  O197  1  0.25307055  0.99323115  0.13448804  1
  O  O198  1  0.24584556  0.99725063  0.63518045  1
  O  O199  1  0.73484823  0.50042595  0.12599778  1
  O  O200  1  0.73871176  0.49257897  0.62018617  1
  O  O201  1  0.74438718  0.99262145  0.12808474  1
  O  O202  1  0.74860721  0.99114042  0.63478382  1
  O  O203  1  0.00350396  0.36683202  0.25904891  1
  O  O204  1  0.00043309  0.37157348  0.76468845  1
  O  O205  1  0.00065376  0.86386551  0.25797205  1
  O  O206  1  0.00261112  0.86839703  0.75668212  1
  O  O207  1  0.50671556  0.37120080  0.25826569  1
  O  O208  1  0.50134227  0.37527824  0.76286332  1
  O  O209  1  0.50767383  0.87695513  0.25954892  1
  O  O210  1  0.50819679  0.87138504  0.75565253  1
  O  O211  1  0.49414004  0.12902968  0.24712847  1
  O  O212  1  0.50367492  0.13499293  0.74974634  1
  O  O213  1  0.50070088  0.63044710  0.24780114  1
  O  O214  1  0.50504806  0.63648989  0.74352466  1
  O  O215  1  1.00039845  0.13977455  0.25524125  1
  O  O216  1  1.00261500  0.13868274  0.75498782  1
  O  O217  1  0.98720082  0.63113185  0.25335141  1
  O  O218  1  0.98793893  0.63790348  0.75142459  1
  O  O219  1  0.37349390  0.26266930  0.00414534  1
  O  O220  1  0.36777349  0.27131240  0.49160130  1
  O  O221  1  0.37507309  0.76417970  0.00746240  1
  O  O222  1  0.36737801  0.75716437  0.50623334  1
  O  O223  1  0.86851228  0.25659535  0.00441885  1
  O  O224  1  0.88226255  0.25106840  0.51303515  1
  O  O225  1  0.87890132  0.75304031  0.00935582  1
  O  O226  1  0.85510522  0.75049399  0.49696702  1
  O  O227  1  0.12272402  0.24342065  0.49540091  1
  O  O228  1  0.12511180  0.23912850  1.00400457  1
  O  O229  1  0.13057584  0.73941020  0.50475470  1
  O  O230  1  0.12437152  0.75743189  0.98303004  1
  O  O231  1  0.61899271  0.24209205  0.48927187  1
  O  O232  1  0.63624304  0.24211697  1.00435449  1
  O  O233  1  0.64001878  0.74951261  0.50267135  1
  O  O234  1  0.62413112  0.74417612  0.99185889  1
  O  O235  1  0.49387776  0.24543111  0.13218096  1
  O  O236  1  0.49729009  0.25366716  0.63641907  1
  O  O237  1  0.49692119  0.73798682  0.12153175  1
  O  O238  1  0.50028682  0.74153314  0.63356807  1
  O  O239  1  0.99122712  0.25609513  0.13362481  1
  O  O240  1  0.98812815  0.25064340  0.63199648  1
  O  O241  1  0.99904224  0.75352209  0.13249466  1
  O  O242  1  0.99903603  0.75593882  0.63907770  1
  O  O243  1  0.00219719  0.25754099  0.36904631  1
  O  O244  1  -0.00444706  0.26148970  0.86460917  1
  O  O245  1  -0.00697277  0.75748318  0.36857295  1
  O  O246  1  0.00997175  0.76177701  0.86571686  1
  O  O247  1  0.50912371  0.25624093  0.36886995  1
  O  O248  1  0.49629741  0.26245911  0.86820164  1
  O  O249  1  0.49636532  0.76096188  0.37947412  1
  O  O250  1  0.50439008  0.75583379  0.86942369  1
  O  O251  1  0.23252928  0.12284763  0.49261708  1
  O  O252  1  0.24090944  0.13027795  0.99198460  1
  O  O253  1  0.24296411  0.63050163  0.49710144  1
  O  O254  1  0.26097793  0.63107512  0.99316248  1
  O  O255  1  0.74387893  0.11532073  0.48445942  1
  O  O256  1  0.74459812  0.12971101  0.98828264  1
  O  O257  1  0.74261711  0.63847559  0.49465332  1
  O  O258  1  0.74330753  0.62820099  0.99155853  1
  O  O259  1  0.25821425  0.37609914  0.00552598  1
  O  O260  1  0.25592197  0.38084117  0.50657487  1
  O  O261  1  0.25598115  0.87451123  0.00828723  1
  O  O262  1  0.25733037  0.86980937  0.50165519  1
  O  O263  1  0.76138215  0.36515864  -0.00884759  1
  O  O264  1  0.73887585  0.36966932  0.52236279  1
  O  O265  1  0.75764816  0.87619522  0.00406724  1
  O  O266  1  0.74952746  0.86802456  0.51139920  1
  O  O267  1  0.13317431  0.49408226  0.24380393  1
  O  O268  1  0.13020043  0.49767324  0.74141805  1
  O  O269  1  0.13721904  1.00036655  0.24873783  1
  O  O270  1  0.12981085  0.99274109  0.75239295  1
  O  O271  1  0.62911513  0.48803024  0.24169528  1
  O  O272  1  0.62251087  0.49834668  0.73640767  1
  O  O273  1  0.63029611  0.99437298  0.24445643  1
  O  O274  1  0.63165046  0.98826589  0.75105324  1
  O  O275  1  0.36598470  0.00581797  0.25680548  1
  O  O276  1  0.36403664  -0.00402966  0.76020404  1
  O  O277  1  0.36717946  0.51036576  0.24422826  1
  O  O278  1  0.36611738  0.49532813  0.75808468  1
  O  O279  1  0.87194326  0.00028959  0.25583619  1
  O  O280  1  0.86505297  -0.00519508  0.75243142  1
  O  O281  1  0.87306633  0.50816463  0.25695589  1
  O  O282  1  0.87962886  0.51697159  0.74833098  1
  O  O283  1  0.11688363  0.37065509  0.36804675  1
  O  O284  1  0.11138555  0.37870753  0.87897760  1
  O  O285  1  0.11159785  0.87951950  0.37305897  1
  O  O286  1  0.11834460  0.86909991  0.86553403  1
  O  O287  1  0.61912280  0.36617304  0.36910338  1
  O  O288  1  0.61029195  0.37967245  0.87481313  1
  O  O289  1  0.61883529  0.87987389  0.36168750  1
  O  O290  1  0.62121604  0.87137900  0.86988797  1
  O  O291  1  0.37924582  0.13189228  0.12969025  1
  O  O292  1  0.38442705  0.13759457  0.57780653  1
  O  O293  1  0.38590182  0.62830696  0.13541246  1
  O  O294  1  0.39042778  0.62353831  0.62153933  1
  O  O295  1  0.87249827  0.13865678  0.12368833  1
  O  O296  1  0.87610840  0.13741825  0.62061744  1
  O  O297  1  0.87303366  0.62670329  0.13221764  1
  O  O298  1  0.86795866  0.62569314  0.63521211  1
  O  O299  1  0.25667350  0.26476146  0.12461923  1
  O  O300  1  0.25104730  0.25922069  0.62527440  1
  O  O301  1  0.25630987  0.75977134  0.12618084  1
  O  O302  1  0.25084449  0.75243596  0.61546241  1
  O  O303  1  0.75809825  0.24755029  0.11015770  1
  O  O304  1  0.76693537  0.25720413  0.62870088  1
  O  O305  1  0.74356943  0.76634796  0.11864318  1
  O  O306  1  0.74540084  0.76374006  0.62714777  1
  O  O307  1  0.23967047  0.24502266  0.37693859  1
  O  O308  1  0.25829895  0.23925119  0.87118960  1
  O  O309  1  0.25361124  0.74854732  0.39031032  1
  O  O310  1  0.23345550  0.74924910  0.87053605  1
  O  O311  1  0.74168062  0.23955098  0.37108613  1
  O  O312  1  0.75531052  0.23706235  0.88212621  1
  O  O313  1  0.74608311  0.75918553  0.38202116  1
  O  O314  1  0.74239060  0.74127893  0.87728914  1
  O  O315  1  0.01289610  0.11963439  -0.00688288  1
  O  O316  1  0.00783782  0.11608106  0.49694621  1
  O  O317  1  -0.01489310  0.63959030  0.01272363  1
  O  O318  1  0.00465329  0.61531774  0.49716182  1
  O  O319  1  0.50744563  0.12767416  0.00527837  1
  O  O320  1  0.51762144  0.10934243  0.48408947  1
  O  O321  1  0.50507306  0.61938366  0.00798061  1
  O  O322  1  0.50382903  0.61672776  0.50716094  1
  O  O323  1  0.49417449  0.37958800  0.49511690  1
  O  O324  1  0.49481143  0.37699981  0.99057229  1
  O  O325  1  0.49625078  0.88024141  0.49473631  1
  O  O326  1  0.49186533  0.87840342  0.99431814  1
  O  O327  1  1.00589582  0.38434655  0.48712050  1
  O  O328  1  0.98779610  0.36782903  0.98634941  1
  O  O329  1  0.99806933  0.88006710  0.49445686  1
  O  O330  1  0.99409811  0.88301054  0.99508282  1
  O  O331  1  0.50381999  0.48550296  0.38683616  1
  O  O332  1  0.49474618  0.49169248  0.87989870  1
  O  O333  1  0.49569232  0.98906670  0.38103666  1
  O  O334  1  0.49039554  0.99478230  0.87529940  1
  O  O335  1  0.98915734  0.49206142  0.38072964  1
  O  O336  1  0.99713391  0.48842199  0.87346585  1
  O  O337  1  0.99326363  0.99370303  0.38005547  1
  O  O338  1  1.00445673  0.98709941  0.88445295  1
  O  O339  1  0.00231319  -0.00500054  0.11303985  1
  O  O340  1  -0.00062190  0.00192976  0.61654368  1
  O  O341  1  0.01421867  0.49548241  0.13064776  1
  O  O342  1  0.00680399  0.49038011  0.61428495  1
  O  O343  1  0.50539733  0.00859077  0.12407994  1
  O  O344  1  0.50455990  -0.00320444  0.61550856  1
  O  O345  1  0.50888660  0.51050487  0.12147922  1
  O  O346  1  0.50820943  0.50344690  0.62141942  1
  O  O347  1  0.24636709  0.38107061  0.24322200  1
  O  O348  1  0.24721248  0.38392446  0.74311695  1
  O  O349  1  0.25154918  0.88261612  0.24547858  1
  O  O350  1  0.24048809  0.88541756  0.75066787  1
  O  O351  1  0.73800172  0.37289556  0.25120906  1
  O  O352  1  0.74863077  0.37022492  0.73364230  1
  O  O353  1  0.74517044  0.87977503  0.24211231  1
  O  O354  1  0.74558319  0.87899691  0.74440901  1
  O  O355  1  0.25489133  0.12006547  0.25438027  1
  O  O356  1  0.24052272  0.11592730  0.75714560  1
  O  O357  1  0.25973975  0.61801495  0.25318446  1
  O  O358  1  0.24541834  0.61456252  0.75216830  1
  O  O359  1  0.75168971  0.11707807  0.25952239  1
  O  O360  1  0.74724036  0.11949026  0.76331691  1
  O  O361  1  0.76487162  0.62196627  0.24845834  1
  O  O362  1  0.76203582  0.63457058  0.75421268  1
  O  O363  1  0.36718221  0.11953454  0.37492149  1
  O  O364  1  0.36598178  0.11243751  0.88421560  1
  O  O365  1  0.37756246  0.62757021  0.36289999  1
  O  O366  1  0.38102255  0.61117242  0.87641201  1
  O  O367  1  0.86958851  0.11436578  0.37161602  1
  O  O368  1  0.86624587  0.12428912  0.87909975  1
  O  O369  1  0.87480237  0.61553649  0.36453496  1
  O  O370  1  0.86531650  0.62175393  0.86423409  1
  O  O371  1  0.13339261  0.37908727  0.12992357  1
  O  O372  1  0.13631280  0.38614168  0.62139303  1
  O  O373  1  0.13888513  0.87916567  0.12950343  1
  O  O374  1  0.12440938  0.87789292  0.63911341  1
  O  O375  1  0.61512578  0.38206226  0.13454636  1
  O  O376  1  0.62829023  0.38737618  0.62930579  1
  O  O377  1  0.62809684  0.88312810  0.13348670  1
  O  O378  1  0.63463870  0.87800153  0.63446637  1
  O  O379  1  0.11809256  0.25729247  0.25240188  1
  O  O380  1  0.10325997  0.25898187  0.74099506  1
  O  O381  1  0.11237238  0.74808627  0.24910726  1
  O  O382  1  0.11380822  0.75493484  0.75485302  1
  O  O383  1  0.62081773  0.25323857  0.25591680  1
  O  O384  1  0.60966983  0.25422246  0.74856213  1
  O  O385  1  0.62544803  0.75748229  0.24508675  1
  O  O386  1  0.61675357  0.76110101  0.75571201  1
  O  O387  1  0.37984108  0.24511839  0.24602166  1
  O  O388  1  0.39375901  0.25248626  0.74858136  1
  O  O389  1  0.37319808  0.74062983  0.24251699  1
  O  O390  1  0.38753500  0.76028360  0.74959679  1
  O  O391  1  0.88123392  0.24915436  0.23943579  1
  O  O392  1  0.89120200  0.25554902  0.73976224  1
  O  O393  1  0.88224067  0.73724334  0.25064611  1
  O  O394  1  0.88748793  0.74282766  0.75462835  1
  O  O395  1  0.38838919  0.49122729  0.50442689  1
  O  O396  1  0.38167726  0.48979091  0.99608992  1
  O  O397  1  0.38247920  0.99023888  0.49451137  1
  O  O398  1  0.37462516  0.99023878  0.99495307  1
  O  O399  1  0.88222190  0.50644291  0.49223224  1
  O  O400  1  0.86967653  0.48597583  0.99777362  1
  O  O401  1  0.88541433  0.99802198  0.49256636  1
  O  O402  1  0.88391195  0.99398608  1.00023029  1
  O  O403  1  0.11793267  0.00915290  0.00302282  1
  O  O404  1  0.11293234  0.00593786  0.50048919  1
  O  O405  1  0.12747562  0.49893811  0.01647001  1
  O  O406  1  0.11410886  0.50701115  0.50485995  1
  O  O407  1  0.62302917  0.00872757  0.00724041  1
  O  O408  1  0.61936856  0.00540740  0.50233407  1
  O  O409  1  0.61937625  0.50399218  0.00595124  1
  O  O410  1  0.61416915  0.50176236  0.50943199  1
  O  O411  1  0.37081914  0.37383852  0.11745719  1
  O  O412  1  0.36260955  0.37601234  0.61726239  1
  O  O413  1  0.36843981  0.87265742  0.12073030  1
  O  O414  1  0.37535416  0.87467109  0.61352338  1
  O  O415  1  0.87916482  0.36728917  0.10926796  1
  O  O416  1  0.86719258  0.36993010  0.62262983  1
  O  O417  1  0.86548750  0.87809308  0.11313415  1
  O  O418  1  0.85970917  0.87570249  0.62351649  1
  O  O419  1  0.12756411  0.13214191  0.38105573  1
  O  O420  1  0.13548974  0.12270232  0.88953002  1
  O  O421  1  0.12612423  0.61758075  0.38690656  1
  O  O422  1  0.11953600  0.63958001  0.87101381  1
  O  O423  1  0.63416570  0.13193936  0.37909420  1
  O  O424  1  0.62726126  0.12206554  0.88705289  1
  O  O425  1  0.60894995  0.63506504  0.36664680  1
  O  O426  1  0.62940541  0.63029171  0.87769879  1
