# generated using pymatgen
data_V85Zn86O256
_symmetry_space_group_name_H-M   'P 1'
_cell_length_a   16.92183857
_cell_length_b   16.92645467
_cell_length_c   16.93366683
_cell_angle_alpha   89.94767360
_cell_angle_beta   89.99195726
_cell_angle_gamma   89.96601774
_symmetry_Int_Tables_number   1
_chemical_formula_structural   V85Zn86O256
_chemical_formula_sum   'V85 Zn86 O256'
_cell_volume   4850.25195436
_cell_formula_units_Z   1
loop_
 _symmetry_equiv_pos_site_id
 _symmetry_equiv_pos_as_xyz
  1  'x, y, z'
loop_
 _atom_site_type_symbol
 _atom_site_label
 _atom_site_symmetry_multiplicity
 _atom_site_fract_x
 _atom_site_fract_y
 _atom_site_fract_z
 _atom_site_occupancy
  V  V0  1  0.24795318  0.36824530  0.61816867  1
  V  V1  1  0.00628287  0.50019310  0.00133889  1
  V  V2  1  0.49863896  0.74692132  0.75063314  1
  V  V3  1  0.75381569  0.11896350  0.38297781  1
  V  V4  1  0.62684814  0.60806480  -0.00035012  1
  V  V5  1  0.49976689  0.87457795  0.37491222  1
  V  V6  1  -0.00311776  0.24826343  0.74425009  1
  V  V7  1  0.24841931  0.75110728  -0.00006891  1
  V  V8  1  0.87576249  0.11792337  0.25156863  1
  V  V9  1  0.50557674  0.25485500  0.24420301  1
  V  V10  1  0.37612772  0.12918294  0.24481868  1
  V  V11  1  0.37169144  0.74815074  0.62703724  1
  V  V12  1  0.26545032  0.25092707  0.00334110  1
  V  V13  1  0.35697137  0.61278299  0.76070548  1
  V  V14  1  0.25453090  0.87422874  0.12823923  1
  V  V15  1  0.49820631  0.61966295  0.62924499  1
  V  V16  1  -0.00707109  -0.00069533  0.00759074  1
  V  V17  1  0.87556659  0.50400685  0.87145128  1
  V  V18  1  0.25086493  0.50020351  0.25102557  1
  V  V19  1  0.48229085  0.49245157  -0.00087054  1
  V  V20  1  0.24706075  0.75071263  0.50160173  1
  V  V21  1  0.73685569  0.49635207  0.24600427  1
  V  V22  1  0.37578243  0.63102337  0.24777010  1
  V  V23  1  -0.00410883  0.00123835  0.49659728  1
  V  V24  1  0.11930106  0.88296818  0.74935277  1
  V  V25  1  0.87221999  0.12611088  0.75565747  1
  V  V26  1  0.62888031  0.87110634  0.74439715  1
  V  V27  1  0.87560255  0.61628835  0.25046047  1
  V  V28  1  0.75383307  0.74632711  -0.00248793  1
  V  V29  1  0.00170835  0.24255711  0.24778915  1
  V  V30  1  0.13309249  0.37545913  0.74894700  1
  V  V31  1  0.24983380  0.62706907  0.37707950  1
  V  V32  1  -0.01228270  0.87779118  0.37381481  1
  V  V33  1  0.37076047  0.36481668  0.49575321  1
  V  V34  1  -0.01212453  0.50484463  0.49713581  1
  V  V35  1  0.00343654  0.62681210  0.12213758  1
  V  V36  1  0.49879411  0.75173366  0.24076811  1
  V  V37  1  0.74313904  0.24178860  0.00405413  1
  V  V38  1  0.12361708  0.75067178  0.87905916  1
  V  V39  1  0.62857782  -0.00037344  0.62372582  1
  V  V40  1  0.75055074  -0.00151478  0.74930770  1
  V  V41  1  0.37464418  -0.00213077  0.87239574  1
  V  V42  1  0.49925603  0.13252138  0.11903762  1
  V  V43  1  0.73636195  0.37772032  0.12545588  1
  V  V44  1  0.25320911  0.12823515  0.37929893  1
  V  V45  1  0.37883267  0.86895067  0.00490594  1
  V  V46  1  0.12663824  0.50321290  0.12628348  1
  V  V47  1  0.50425652  0.62131957  0.12228745  1
  V  V48  1  -0.00151505  0.73735500  0.74265845  1
  V  V49  1  0.87163941  -0.00935143  0.88044125  1
  V  V50  1  0.75559153  0.61920414  0.37448777  1
  V  V51  1  0.12574978  0.37430515  0.25262287  1
  V  V52  1  0.62780743  0.25448282  0.87251069  1
  V  V53  1  0.12850069  0.12159723  0.50733057  1
  V  V54  1  0.75076672  0.87498322  0.12135149  1
  V  V55  1  0.50777171  0.00399477  -0.00252101  1
  V  V56  1  0.49718811  0.49935800  0.50012487  1
  V  V57  1  -0.00174520  0.11780307  0.62768080  1
  V  V58  1  0.25047768  0.12299145  0.87681672  1
  V  V59  1  0.37432737  0.49971832  0.37635794  1
  V  V60  1  0.88004293  0.24905723  0.12423293  1
  V  V61  1  0.51143621  0.37642533  0.36986648  1
  V  V62  1  0.24469354  0.88303393  0.62565036  1
  V  V63  1  0.12383707  0.24467908  0.87909618  1
  V  V64  1  0.62610566  0.74585354  0.87547927  1
  V  V65  1  0.62732754  0.00626414  0.12424258  1
  V  V66  1  -0.01289590  0.37678548  0.37375513  1
  V  V67  1  0.62665097  0.62180160  0.50332636  1
  V  V68  1  0.86590169  0.88107636  0.51095609  1
  V  V69  1  0.50006651  -0.00106529  0.49910567  1
  V  V70  1  0.50463164  0.25417923  0.74676309  1
  V  V71  1  0.12429345  0.87574134  0.25395726  1
  V  V72  1  0.87259917  0.36726511  0.51927092  1
  V  V73  1  0.12695264  0.24997040  0.38258848  1
  V  V74  1  0.26264645  0.37249833  0.12316573  1
  V  V75  1  0.50036067  0.87412237  0.87386602  1
  V  V76  1  0.87542806  0.75213423  0.12284719  1
  V  V77  1  0.63678523  0.48882757  0.63905404  1
  V  V78  1  0.00139463  0.37215693  0.87864002  1
  V  V79  1  0.49916767  0.12621564  0.62441495  1
  V  V80  1  0.12508535  0.00665718  0.12500356  1
  V  V81  1  0.62561127  0.74738717  0.37354430  1
  V  V82  1  0.11851283  0.62562107  0.50273232  1
  V  V83  1  0.48535649  0.37897123  0.86969106  1
  V  V84  1  0.12354275  0.50056103  0.62188481  1
  Zn  Zn85  1  0.24563620  0.00282985  0.74698267  1
  Zn  Zn86  1  0.62198558  0.13330808  0.49557889  1
  Zn  Zn87  1  0.37606329  0.00116940  0.37355767  1
  Zn  Zn88  1  0.19497914  0.58817482  -0.05701588  1
  Zn  Zn89  1  0.87435371  0.37371060  0.00399516  1
  Zn  Zn90  1  0.86477094  0.74506106  0.62514415  1
  Zn  Zn91  1  0.87155063  0.61357555  0.73317714  1
  Zn  Zn92  1  0.62721480  0.87616942  0.24888796  1
  Zn  Zn93  1  0.37056683  0.24720097  0.62390697  1
  Zn  Zn94  1  0.74940065  0.75479307  0.50302602  1
  Zn  Zn95  1  0.37448862  0.12671108  0.74897642  1
  Zn  Zn96  1  0.37298717  0.87460136  0.50029933  1
  Zn  Zn97  1  0.74166874  0.26291815  0.50036602  1
  Zn  Zn98  1  0.12261342  0.75361508  0.37700974  1
  Zn  Zn99  1  -0.00546045  0.87327013  0.87884717  1
  Zn  Zn100  1  -0.00057800  0.74897435  0.25179753  1
  Zn  Zn101  1  0.73868201  0.12128427  0.88149543  1
  Zn  Zn102  1  0.74639822  0.61590564  0.86807994  1
  Zn  Zn103  1  0.75452160  -0.00329753  0.25148618  1
  Zn  Zn104  1  0.63082730  0.25186928  0.36775519  1
  Zn  Zn105  1  0.12151493  0.12634890  0.00701794  1
  Zn  Zn106  1  0.25294590  0.00218572  0.25119687  1
  Zn  Zn107  1  0.19104603  0.18985221  0.18983969  1
  Zn  Zn108  1  0.18609161  0.18733705  0.68936979  1
  Zn  Zn109  1  0.18842439  0.69174365  0.18606616  1
  Zn  Zn110  1  0.18085157  0.69124466  0.68690105  1
  Zn  Zn111  1  0.68928140  0.18586480  0.18856562  1
  Zn  Zn112  1  0.70479090  0.30706637  0.68463726  1
  Zn  Zn113  1  0.68668929  0.68415383  0.18589042  1
  Zn  Zn114  1  0.69678750  0.68281963  0.68589060  1
  Zn  Zn115  1  0.31597257  0.30891688  0.30975659  1
  Zn  Zn116  1  0.31416541  0.30898181  0.80957179  1
  Zn  Zn117  1  0.31319026  0.81294055  0.31357761  1
  Zn  Zn118  1  0.30873880  0.80948964  0.81219630  1
  Zn  Zn119  1  0.80949857  0.30799648  0.30921515  1
  Zn  Zn120  1  0.81616978  0.31547415  0.81639272  1
  Zn  Zn121  1  0.81238578  0.80772719  0.30951811  1
  Zn  Zn122  1  0.81202256  0.80846637  0.80885434  1
  Zn  Zn123  1  0.18520176  0.43786095  0.43811943  1
  Zn  Zn124  1  0.19585574  0.42526513  0.93397469  1
  Zn  Zn125  1  0.18478928  0.94249712  0.43796466  1
  Zn  Zn126  1  0.18482787  0.93524174  0.93904564  1
  Zn  Zn127  1  0.69204426  0.44270537  0.44021935  1
  Zn  Zn128  1  0.69103242  0.42435804  0.92219644  1
  Zn  Zn129  1  0.68638873  0.94292945  0.43374064  1
  Zn  Zn130  1  0.68892801  0.93199557  0.93714891  1
  Zn  Zn131  1  0.31535181  0.06032771  0.06007522  1
  Zn  Zn132  1  0.31522876  0.06223436  0.55862808  1
  Zn  Zn133  1  0.31884641  0.56449400  0.07205895  1
  Zn  Zn134  1  0.30805764  0.55856574  0.56739614  1
  Zn  Zn135  1  0.81632665  0.06565230  0.06672807  1
  Zn  Zn136  1  0.77285491  0.12557612  0.60723247  1
  Zn  Zn137  1  0.81605147  0.55950391  0.06000756  1
  Zn  Zn138  1  0.81296019  0.56479139  0.56563542  1
  Zn  Zn139  1  0.44246990  0.44203915  0.18755665  1
  Zn  Zn140  1  0.43245947  0.43802780  0.68739122  1
  Zn  Zn141  1  0.43907429  0.94284915  0.18743588  1
  Zn  Zn142  1  0.43618610  0.93550077  0.68680641  1
  Zn  Zn143  1  0.93441136  0.43447158  0.18908645  1
  Zn  Zn144  1  0.94645561  0.43876057  0.68777555  1
  Zn  Zn145  1  0.93866865  0.93474459  0.18415808  1
  Zn  Zn146  1  0.93888613  0.93873198  0.68818746  1
  Zn  Zn147  1  0.06411502  0.06107912  0.31487379  1
  Zn  Zn148  1  0.05926843  0.05909998  0.81894097  1
  Zn  Zn149  1  0.06167733  0.56310875  0.31559146  1
  Zn  Zn150  1  0.08790442  0.55262654  0.82035951  1
  Zn  Zn151  1  0.56726821  0.06421526  0.30887592  1
  Zn  Zn152  1  0.56463212  0.06793086  0.81027169  1
  Zn  Zn153  1  0.56330034  0.56219409  0.31239145  1
  Zn  Zn154  1  0.55804256  0.55965640  0.81411533  1
  Zn  Zn155  1  0.44203083  0.18896194  0.43273774  1
  Zn  Zn156  1  0.44100850  0.18698417  0.93317765  1
  Zn  Zn157  1  0.43781641  0.68876393  0.43871614  1
  Zn  Zn158  1  0.43443112  0.68456440  0.93668786  1
  Zn  Zn159  1  0.93496680  0.18834981  0.43676822  1
  Zn  Zn160  1  0.93532840  0.18116483  0.94060224  1
  Zn  Zn161  1  0.93591173  0.69365209  0.43831052  1
  Zn  Zn162  1  0.94327966  0.68742182  0.93712861  1
  Zn  Zn163  1  0.06866562  0.31283028  0.06553925  1
  Zn  Zn164  1  0.05661830  0.31023463  0.56141420  1
  Zn  Zn165  1  0.06358118  0.81916137  0.06407540  1
  Zn  Zn166  1  0.06044892  0.81542360  0.56414407  1
  Zn  Zn167  1  0.56133192  0.31434644  0.05596703  1
  Zn  Zn168  1  0.56158153  0.31256073  0.55716774  1
  Zn  Zn169  1  0.56911805  0.81188828  0.06067438  1
  Zn  Zn170  1  0.56452388  0.81003576  0.56307120  1
  O  O171  1  0.13226875  0.11080768  0.12850265  1
  O  O172  1  0.11680296  0.12987502  0.61658837  1
  O  O173  1  0.11814662  0.61342799  0.13527235  1
  O  O174  1  0.12898475  0.61631602  0.61191218  1
  O  O175  1  0.61860684  0.11335873  0.12620026  1
  O  O176  1  0.60813593  0.11089671  0.61916153  1
  O  O177  1  0.61301901  0.62831631  0.11544141  1
  O  O178  1  0.61557744  0.61820666  0.61815169  1
  O  O179  1  0.37866818  0.38109429  0.37941793  1
  O  O180  1  0.38581900  0.37170711  0.87630657  1
  O  O181  1  0.38831740  0.87535306  0.37690164  1
  O  O182  1  0.38059493  0.87957120  0.88033186  1
  O  O183  1  0.88606392  0.37197427  0.37145776  1
  O  O184  1  0.89080383  0.38159361  0.88103918  1
  O  O185  1  0.88458405  0.87289000  0.37586467  1
  O  O186  1  0.87054395  0.88695744  0.87387474  1
  O  O187  1  0.25195251  0.01390737  0.37369220  1
  O  O188  1  0.25799353  0.00589249  0.87757353  1
  O  O189  1  0.25379076  0.50635302  0.36910655  1
  O  O190  1  0.19476152  0.51024668  0.86560035  1
  O  O191  1  0.74917502  0.01284435  0.36829482  1
  O  O192  1  0.75319037  0.00172471  0.87189951  1
  O  O193  1  0.74632037  0.51182815  0.36398834  1
  O  O194  1  0.77267592  0.49686512  0.88643793  1
  O  O195  1  0.24375308  0.49659040  0.13098483  1
  O  O196  1  0.23327783  0.48568355  0.61865926  1
  O  O197  1  0.24435456  0.99024943  0.12466735  1
  O  O198  1  0.25820528  0.98682353  0.62652806  1
  O  O199  1  0.75543938  0.48492185  0.12792355  1
  O  O200  1  0.73451095  0.50224239  0.62224507  1
  O  O201  1  0.74448463  0.99191638  0.12204229  1
  O  O202  1  0.73615273  1.01238582  0.63426065  1
  O  O203  1  0.00630477  0.36876161  0.25698821  1
  O  O204  1  0.00738343  0.36361158  0.75769281  1
  O  O205  1  0.00644549  0.87526160  0.25693274  1
  O  O206  1  0.00734049  0.87066363  0.75277731  1
  O  O207  1  0.49360567  0.36797784  0.25704517  1
  O  O208  1  0.49331193  0.37216926  0.76170271  1
  O  O209  1  0.50094890  0.86721314  0.25541253  1
  O  O210  1  0.50540663  0.86730975  0.75492943  1
  O  O211  1  0.49562101  0.13111000  0.24048703  1
  O  O212  1  0.49728306  0.13264132  0.74027484  1
  O  O213  1  0.49609583  0.63000479  0.24323596  1
  O  O214  1  0.49229637  0.62929164  0.74330023  1
  O  O215  1  0.99444482  0.13547675  0.25865849  1
  O  O216  1  0.99703125  0.12755077  0.74645821  1
  O  O217  1  0.99368877  0.62427605  0.24119875  1
  O  O218  1  1.00451363  0.63773318  0.75669284  1
  O  O219  1  0.36440882  0.24492270  -0.00240791  1
  O  O220  1  0.37976852  0.26209989  0.49989351  1
  O  O221  1  0.37067989  0.76356170  -0.00426690  1
  O  O222  1  0.36914539  0.74917357  0.51226386  1
  O  O223  1  0.87063235  0.25056453  0.00838411  1
  O  O224  1  0.87792756  0.26571069  0.50096419  1
  O  O225  1  0.86236410  0.73991978  0.00654962  1
  O  O226  1  0.87574136  0.76990177  0.49915733  1
  O  O227  1  0.11612388  0.24019634  0.48856826  1
  O  O228  1  0.12931473  0.24701434  0.99003730  1
  O  O229  1  0.12817714  0.74185255  0.50115244  1
  O  O230  1  0.13582095  0.76217636  0.99383169  1
  O  O231  1  0.62241465  0.25026004  0.48605818  1
  O  O232  1  0.63372951  0.25157866  0.99296161  1
  O  O233  1  0.62115977  0.73815397  0.48962246  1
  O  O234  1  0.63440144  0.73975447  0.99511258  1
  O  O235  1  0.50417488  0.23994736  0.12604366  1
  O  O236  1  0.49878808  0.24278895  0.62920355  1
  O  O237  1  0.50634728  0.74583313  0.13630641  1
  O  O238  1  0.49298026  0.73839480  0.62789200  1
  O  O239  1  0.99601338  0.25511037  0.13663417  1
  O  O240  1  1.00398288  0.23935775  0.63848391  1
  O  O241  1  0.99423021  0.74363220  0.12449862  1
  O  O242  1  1.00234107  0.75175201  0.64088171  1
  O  O243  1  0.00713288  0.25683000  0.36781355  1
  O  O244  1  0.00676257  0.25325721  0.87339055  1
  O  O245  1  0.00345162  0.76184185  0.37136129  1
  O  O246  1  0.00434609  0.75703529  0.86961538  1
  O  O247  1  0.50151172  0.26084200  0.36305986  1
  O  O248  1  0.50162975  0.26029703  0.86833463  1
  O  O249  1  0.50619391  0.75416669  0.36673237  1
  O  O250  1  0.50626541  0.75381925  0.87102115  1
  O  O251  1  0.24115416  0.12256752  0.49389290  1
  O  O252  1  0.24786542  0.12959745  0.99116120  1
  O  O253  1  0.24303384  0.63044542  0.49674034  1
  O  O254  1  0.25593891  0.64394717  1.01625087  1
  O  O255  1  0.74941884  0.11982442  0.48730495  1
  O  O256  1  0.75345954  0.13742387  1.00187095  1
  O  O257  1  0.74122585  0.62310613  0.48976276  1
  O  O258  1  0.74221081  0.62732357  0.99803655  1
  O  O259  1  0.24709363  0.36407871  0.00971599  1
  O  O260  1  0.25783401  0.37681001  0.50453359  1
  O  O261  1  0.25909684  0.87052574  0.00765560  1
  O  O262  1  0.24838003  0.86947997  0.50662333  1
  O  O263  1  0.75255091  0.36612609  0.01138940  1
  O  O264  1  0.76974924  0.37935746  0.49490808  1
  O  O265  1  0.74485834  0.86216825  0.01227881  1
  O  O266  1  0.76429165  0.88065506  0.49210775  1
  O  O267  1  0.13221741  0.49538524  0.24731474  1
  O  O268  1  0.10764535  0.48370639  0.73231190  1
  O  O269  1  0.12710076  0.99142888  0.24395062  1
  O  O270  1  0.12621028  0.98767441  0.75633218  1
  O  O271  1  0.63719195  0.50678793  0.24494787  1
  O  O272  1  0.62056498  0.50410266  0.73648213  1
  O  O273  1  0.62836589  0.99599306  0.23757553  1
  O  O274  1  0.62940201  0.99288445  0.74489507  1
  O  O275  1  0.37641827  0.01344398  0.25407155  1
  O  O276  1  0.37389260  -0.00131613  0.76333689  1
  O  O277  1  0.37123837  0.51248325  0.25538634  1
  O  O278  1  0.37098693  0.51383151  0.74643338  1
  O  O279  1  0.87663130  0.01433384  0.23952509  1
  O  O280  1  0.86749139  0.00153694  0.75833970  1
  O  O281  1  0.86704682  0.51235977  0.24327745  1
  O  O282  1  0.89081533  0.49906181  0.76802201  1
  O  O283  1  0.11934755  0.36599433  0.37200164  1
  O  O284  1  0.11659965  0.36292375  0.86758097  1
  O  O285  1  0.11875178  0.87644415  0.36745191  1
  O  O286  1  0.12393691  0.86790695  0.86650480  1
  O  O287  1  0.61376385  0.38141378  0.37659628  1
  O  O288  1  0.60523628  0.36220432  0.88309423  1
  O  O289  1  0.61657041  0.86599915  0.37339280  1
  O  O290  1  0.61934171  0.86867162  0.86423006  1
  O  O291  1  0.38654480  0.11835331  0.13165159  1
  O  O292  1  0.38573834  0.12475227  0.62483745  1
  O  O293  1  0.39098751  0.62641607  0.13559046  1
  O  O294  1  0.37980921  0.62972353  0.63050669  1
  O  O295  1  0.87102665  0.14049600  0.13543034  1
  O  O296  1  0.88374395  0.12201281  0.64614834  1
  O  O297  1  0.88233816  0.63175883  0.12975870  1
  O  O298  1  0.88232005  0.63004868  0.62071209  1
  O  O299  1  0.24395469  0.25998802  0.11591279  1
  O  O300  1  0.24994852  0.26238343  0.62785225  1
  O  O301  1  0.24590225  0.76702192  0.11974629  1
  O  O302  1  0.25536308  0.75768009  0.62022982  1
  O  O303  1  0.75519326  0.25876735  0.12235082  1
  O  O304  1  0.73907571  0.23297605  0.61149339  1
  O  O305  1  0.75560386  0.75301436  0.11889408  1
  O  O306  1  0.74767272  0.75336634  0.61638397  1
  O  O307  1  0.24082531  0.23915724  0.37012453  1
  O  O308  1  0.24383612  0.24325108  0.88098866  1
  O  O309  1  0.24851747  0.74592156  0.38450869  1
  O  O310  1  0.24069009  0.75490687  0.88751793  1
  O  O311  1  0.74934981  0.23862105  0.37731238  1
  O  O312  1  0.74300720  0.24826371  0.88807168  1
  O  O313  1  0.74036123  0.74098405  0.37692549  1
  O  O314  1  0.74398808  0.74920710  0.88340016  1
  O  O315  1  0.00511334  0.10682221  -0.00406319  1
  O  O316  1  0.00150100  0.12000815  0.50770827  1
  O  O317  1  -0.00111098  0.61753800  0.01504457  1
  O  O318  1  0.00753033  0.61661361  0.48826413  1
  O  O319  1  0.49449433  0.11489410  0.00631060  1
  O  O320  1  0.50017817  0.11573833  0.50321378  1
  O  O321  1  0.50342596  0.61631726  0.00475020  1
  O  O322  1  0.50511094  0.61998818  0.50749377  1
  O  O323  1  0.49037831  0.38220798  0.48979221  1
  O  O324  1  0.49483905  0.38719165  0.99504210  1
  O  O325  1  0.49996568  0.87904299  0.49201346  1
  O  O326  1  0.49561554  0.87948480  0.99545091  1
  O  O327  1  0.98892594  0.37982058  0.49308881  1
  O  O328  1  1.00490930  0.38122621  0.99424340  1
  O  O329  1  0.99684514  0.88248456  0.49295364  1
  O  O330  1  1.00329623  0.89249130  0.99828780  1
  O  O331  1  0.49359814  0.49517899  0.37770708  1
  O  O332  1  0.49975659  0.48782997  0.88474209  1
  O  O333  1  0.50402103  0.99140199  0.38086595  1
  O  O334  1  0.49578882  0.99641385  0.87992870  1
  O  O335  1  1.00662431  0.48780631  0.38418575  1
  O  O336  1  1.00220393  0.49130308  0.88514981  1
  O  O337  1  1.00359805  0.99141870  0.38406970  1
  O  O338  1  0.98990031  0.99505446  0.88575226  1
  O  O339  1  0.00739385  -0.00248166  0.11554129  1
  O  O340  1  -0.00084011  0.01180973  0.61866446  1
  O  O341  1  0.00662346  0.50412208  0.12197054  1
  O  O342  1  0.01246581  0.49214699  0.60845818  1
  O  O343  1  0.50831844  0.00729916  0.11633089  1
  O  O344  1  0.50297407  0.00329960  0.61790509  1
  O  O345  1  0.49891410  0.50623016  0.10954390  1
  O  O346  1  0.50239412  0.50853414  0.62066117  1
  O  O347  1  0.24494988  0.37863617  0.24563376  1
  O  O348  1  0.23757851  0.37013652  0.74429388  1
  O  O349  1  0.24571169  0.87832625  0.24523493  1
  O  O350  1  0.24128980  0.87484572  0.74197594  1
  O  O351  1  0.75370991  0.38198325  0.23686966  1
  O  O352  1  0.73262520  0.36708334  0.77158326  1
  O  O353  1  0.74966257  0.87398598  0.23633123  1
  O  O354  1  0.74085515  0.88660055  0.75366562  1
  O  O355  1  0.25971219  0.12520528  0.25678452  1
  O  O356  1  0.25170532  0.12303512  0.76225573  1
  O  O357  1  0.25872364  0.62410939  0.25364276  1
  O  O358  1  0.25873099  0.63014431  0.74400389  1
  O  O359  1  0.75993868  0.12436343  0.25831116  1
  O  O360  1  0.75913860  0.11047269  0.75734574  1
  O  O361  1  0.75558726  0.61836467  0.25345417  1
  O  O362  1  0.75984446  0.62685174  0.75772304  1
  O  O363  1  0.36832284  0.12617105  0.36893893  1
  O  O364  1  0.36820050  0.11515847  0.87432321  1
  O  O365  1  0.37045412  0.62023908  0.37009695  1
  O  O366  1  0.37214668  0.62925518  0.85990692  1
  O  O367  1  0.86451715  0.12859433  0.36690211  1
  O  O368  1  0.87421236  0.11115794  0.86843323  1
  O  O369  1  0.86524729  0.63197115  0.36575097  1
  O  O370  1  0.88114778  0.60783954  0.87962943  1
  O  O371  1  0.13097709  0.38744789  0.13363839  1
  O  O372  1  0.12833962  0.37526335  0.62819083  1
  O  O373  1  0.13231358  0.88566739  0.13400544  1
  O  O374  1  0.13369852  0.87137374  0.63491487  1
  O  O375  1  0.63773137  0.37237510  0.12368442  1
  O  O376  1  0.62190972  0.38615668  0.62229322  1
  O  O377  1  0.63252873  0.88462786  0.12555716  1
  O  O378  1  0.61646535  0.88352032  0.63710876  1
  O  O379  1  0.11841737  0.25256108  0.25903294  1
  O  O380  1  0.11758428  0.25316574  0.76163467  1
  O  O381  1  0.12345511  0.76424693  0.25011485  1
  O  O382  1  0.11564206  0.75835790  0.75754961  1
  O  O383  1  0.61068077  0.24653289  0.24921269  1
  O  O384  1  0.60905201  0.25275672  0.75554557  1
  O  O385  1  0.61795960  0.74835452  0.25971879  1
  O  O386  1  0.61905048  0.75584387  0.75325958  1
  O  O387  1  0.38695920  0.23754643  0.25082180  1
  O  O388  1  0.38657411  0.24723705  0.74539921  1
  O  O389  1  0.38404876  0.73902535  0.25660319  1
  O  O390  1  0.37844226  0.74475388  0.73984479  1
  O  O391  1  0.88443983  0.24268814  0.24446105  1
  O  O392  1  0.88771720  0.23901739  0.76566595  1
  O  O393  1  0.87573001  0.73710502  0.23932535  1
  O  O394  1  0.89008080  0.75044712  0.74968267  1
  O  O395  1  0.37872176  0.49447374  0.49476083  1
  O  O396  1  0.38389609  0.50548051  0.99690839  1
  O  O397  1  0.38820498  0.99540524  0.49583185  1
  O  O398  1  0.38453446  0.98995459  0.98992855  1
  O  O399  1  0.88477097  0.49065676  0.50200029  1
  O  O400  1  0.89152058  0.49547239  0.99543010  1
  O  O401  1  0.88908784  0.98647347  0.49925027  1
  O  O402  1  0.88411866  1.00271631  0.99766542  1
  O  O403  1  0.11821422  0.00107471  0.00928404  1
  O  O404  1  0.11380376  0.01381620  0.49794580  1
  O  O405  1  0.11821029  0.50169921  0.01259152  1
  O  O406  1  0.11670534  0.50749865  0.50232647  1
  O  O407  1  0.61348937  -0.00626385  0.00347238  1
  O  O408  1  0.61486963  -0.00295830  0.50822541  1
  O  O409  1  0.61954880  0.50710430  -0.00890500  1
  O  O410  1  0.61780592  0.50977265  0.50428721  1
  O  O411  1  0.36138397  0.38251748  0.13072262  1
  O  O412  1  0.36543138  0.37600037  0.61428515  1
  O  O413  1  0.36881659  0.88242170  0.11669060  1
  O  O414  1  0.36817157  0.86391869  0.62429383  1
  O  O415  1  0.87018324  0.36211879  0.12543004  1
  O  O416  1  0.87906850  0.37427816  0.61847626  1
  O  O417  1  0.86951886  0.85976816  0.12713781  1
  O  O418  1  0.87667377  0.87591415  0.61266044  1
  O  O419  1  0.13209921  0.13150928  0.38222543  1
  O  O420  1  0.13266250  0.12995040  0.87670491  1
  O  O421  1  0.13238149  0.62773980  0.38406122  1
  O  O422  1  0.11318965  0.64678422  0.88263776  1
  O  O423  1  0.63920716  0.12582419  0.37382041  1
  O  O424  1  0.62163740  0.14447794  0.87210368  1
  O  O425  1  0.62952934  0.63016981  0.38185414  1
  O  O426  1  0.62374532  0.62887768  0.88276765  1
