# generated using pymatgen
data_V85Zn86O256
_symmetry_space_group_name_H-M   'P 1'
_cell_length_a   16.91215807
_cell_length_b   16.91343120
_cell_length_c   16.91201572
_cell_angle_alpha   90.09149036
_cell_angle_beta   89.97058091
_cell_angle_gamma   90.03192013
_symmetry_Int_Tables_number   1
_chemical_formula_structural   V85Zn86O256
_chemical_formula_sum   'V85 Zn86 O256'
_cell_volume   4837.54976574
_cell_formula_units_Z   1
loop_
 _symmetry_equiv_pos_site_id
 _symmetry_equiv_pos_as_xyz
  1  'x, y, z'
loop_
 _atom_site_type_symbol
 _atom_site_label
 _atom_site_symmetry_multiplicity
 _atom_site_fract_x
 _atom_site_fract_y
 _atom_site_fract_z
 _atom_site_occupancy
  V  V0  1  0.63060610  0.87328412  0.24749260  1
  V  V1  1  0.38136981  0.25491214  0.63096817  1
  V  V2  1  0.26127308  0.01229213  0.24504919  1
  V  V3  1  0.25133607  0.49442127  0.74729454  1
  V  V4  1  0.87088105  0.00815821  0.37386604  1
  V  V5  1  0.74931878  0.50331223  0.75422092  1
  V  V6  1  0.74979363  0.11831791  0.86724434  1
  V  V7  1  0.62442139  0.12728043  0.00258856  1
  V  V8  1  0.25242380  0.62783550  0.86713610  1
  V  V9  1  0.87386099  0.74395953  0.12193937  1
  V  V10  1  0.25174708  0.75474268  -0.00212790  1
  V  V11  1  0.24927953  0.00087703  0.75305840  1
  V  V12  1  0.62675603  0.62072130  0.00073206  1
  V  V13  1  0.12564708  0.37607586  0.24858070  1
  V  V14  1  0.63154360  0.11571247  0.49751993  1
  V  V15  1  0.49533128  0.62924422  0.64319340  1
  V  V16  1  0.37341407  -0.00984226  0.87933834  1
  V  V17  1  -0.00085588  0.50306702  0.00312360  1
  V  V18  1  0.62548492  0.50098461  0.62690818  1
  V  V19  1  0.00087672  0.61971898  0.62002037  1
  V  V20  1  0.49824187  0.36952189  0.87009509  1
  V  V21  1  -0.00214638  0.87145405  0.37109264  1
  V  V22  1  0.36998950  0.62618209  0.25457020  1
  V  V23  1  0.62047622  0.88246758  0.75487430  1
  V  V24  1  0.62300413  0.74078494  0.86722385  1
  V  V25  1  0.25556354  0.87636360  0.12407318  1
  V  V26  1  0.75039977  0.62149179  0.36640569  1
  V  V27  1  0.37136110  0.38080367  0.50833552  1
  V  V28  1  0.31008780  0.07310467  0.41529400  1
  V  V29  1  -0.00093922  0.74045632  0.24377153  1
  V  V30  1  0.00102280  0.24902944  0.75003475  1
  V  V31  1  0.37646826  0.75050152  0.11961624  1
  V  V32  1  0.25247371  0.87424557  0.61504511  1
  V  V33  1  0.87216150  0.50792916  0.87591888  1
  V  V34  1  0.37181074  0.50655281  0.37707885  1
  V  V35  1  0.00105814  0.74999328  0.75187674  1
  V  V36  1  0.13314824  0.62185349  0.49900083  1
  V  V37  1  -0.00021371  0.88425190  0.87801045  1
  V  V38  1  0.12521179  -0.00052502  0.62367374  1
  V  V39  1  0.74762711  0.00651818  0.25155270  1
  V  V40  1  0.13129693  0.74554577  0.37450049  1
  V  V41  1  -0.00044965  -0.00125219  0.49715477  1
  V  V42  1  0.62378167  0.62658030  0.50102434  1
  V  V43  1  0.87037608  0.24723628  0.61933695  1
  V  V44  1  -0.00477341  0.11937230  0.11892133  1
  V  V45  1  0.74851371  0.74980047  -0.00096868  1
  V  V46  1  0.49869813  0.50646292  0.50259347  1
  V  V47  1  0.25012538  0.13347094  0.87831593  1
  V  V48  1  0.87323590  0.37437878  -0.00300380  1
  V  V49  1  0.48897536  0.88580149  0.38705512  1
  V  V50  1  -0.00016515  0.24813562  0.25150421  1
  V  V51  1  0.38020719  0.75612030  0.63259348  1
  V  V52  1  0.37640316  0.50612794  0.87641103  1
  V  V53  1  0.12579314  0.12473979  0.48945187  1
  V  V54  1  0.87322165  0.87379137  0.49963248  1
  V  V55  1  0.62386196  0.75070824  0.37555445  1
  V  V56  1  0.62247802  0.24864709  0.86616663  1
  V  V57  1  0.25349983  0.25632457  0.49772952  1
  V  V58  1  0.12204409  0.62736142  -0.00023609  1
  V  V59  1  0.63548179  0.37743499  0.25454786  1
  V  V60  1  0.36997319  0.36058570  -0.00086122  1
  V  V61  1  0.00342130  0.37948957  0.37972975  1
  V  V62  1  0.87077097  0.25010341  0.12448949  1
  V  V63  1  0.12563594  0.13094529  0.00051425  1
  V  V64  1  0.00020271  0.12433848  0.62254813  1
  V  V65  1  0.12576801  0.49208578  0.62317213  1
  V  V66  1  0.62846773  -0.00324968  0.12461123  1
  V  V67  1  0.49600445  -0.00966170  0.00230812  1
  V  V68  1  0.12038722  -0.00215390  0.12157561  1
  V  V69  1  0.25018569  0.50256782  0.25267987  1
  V  V70  1  0.38789528  0.12896331  0.75471360  1
  V  V71  1  0.87358627  0.49958051  0.37026229  1
  V  V72  1  0.49886953  0.75111802  0.25119991  1
  V  V73  1  0.48869587  0.13122604  0.13005006  1
  V  V74  1  0.87536577  0.74836236  0.62541307  1
  V  V75  1  0.50156389  0.37581163  0.37591195  1
  V  V76  1  0.25177637  0.36496485  0.11951326  1
  V  V77  1  0.12424026  0.50494831  0.12433465  1
  V  V78  1  0.74991897  0.88299656  0.63396417  1
  V  V79  1  0.87280354  0.88358133  0.00468995  1
  V  V80  1  0.64012320  0.24561629  0.38224890  1
  V  V81  1  0.62690274  0.49944995  0.13303608  1
  V  V82  1  0.87787758  0.37988300  0.50226516  1
  V  V83  1  0.75070921  0.74905091  0.50057227  1
  V  V84  1  0.74746866  0.37233369  0.62163960  1
  Zn  Zn85  1  0.86890966  0.12696444  0.25198638  1
  Zn  Zn86  1  0.86926112  0.11756748  0.74218699  1
  Zn  Zn87  1  0.74824387  0.25104151  -0.00139197  1
  Zn  Zn88  1  0.12486531  0.87491116  0.24791765  1
  Zn  Zn89  1  0.12798503  0.37079425  0.74956963  1
  Zn  Zn90  1  0.49395772  0.86601180  0.87593654  1
  Zn  Zn91  1  0.49269574  0.24492772  0.25223105  1
  Zn  Zn92  1  0.75215181  0.38048563  0.12881770  1
  Zn  Zn93  1  0.87090413  -0.00255294  0.86788377  1
  Zn  Zn94  1  0.13441838  0.24771851  0.37024720  1
  Zn  Zn95  1  0.12402491  0.75270257  0.87498848  1
  Zn  Zn96  1  0.87268671  0.62553308  0.75179370  1
  Zn  Zn97  1  0.87454063  0.61577454  0.23990120  1
  Zn  Zn98  1  0.49789051  0.49617625  0.00589324  1
  Zn  Zn99  1  0.00128060  0.37446233  0.87288701  1
  Zn  Zn100  1  0.61978482  0.37129086  0.74708718  1
  Zn  Zn101  1  0.12462250  0.25316815  0.87777426  1
  Zn  Zn102  1  0.50145155  0.12170545  0.61645893  1
  Zn  Zn103  1  0.25928064  0.75104856  0.49282631  1
  Zn  Zn104  1  0.12512941  0.87516784  0.75104566  1
  Zn  Zn105  1  0.61759080  -0.00213577  0.62154833  1
  Zn  Zn106  1  0.49764357  0.61763681  0.12665559  1
  Zn  Zn107  1  0.18542107  0.18645829  0.18523553  1
  Zn  Zn108  1  0.19199390  0.18803666  0.68333364  1
  Zn  Zn109  1  0.18728619  0.68732302  0.18750281  1
  Zn  Zn110  1  0.18765789  0.68800859  0.68573805  1
  Zn  Zn111  1  0.68182565  0.19015917  0.19083308  1
  Zn  Zn112  1  0.68505668  0.18657784  0.68385944  1
  Zn  Zn113  1  0.68940485  0.68775088  0.18272899  1
  Zn  Zn114  1  0.68887619  0.68714633  0.68805273  1
  Zn  Zn115  1  0.31729588  0.31206136  0.31311712  1
  Zn  Zn116  1  0.31239594  0.31455151  0.81249603  1
  Zn  Zn117  1  0.31245758  0.81939240  0.30796532  1
  Zn  Zn118  1  0.31172751  0.81184517  0.80551008  1
  Zn  Zn119  1  0.81495398  0.31380173  0.31288850  1
  Zn  Zn120  1  0.81199881  0.31112739  0.80940130  1
  Zn  Zn121  1  0.81189324  0.81230254  0.30891095  1
  Zn  Zn122  1  0.81088356  0.81089314  0.81626099  1
  Zn  Zn123  1  0.18810835  0.43836066  0.43863705  1
  Zn  Zn124  1  0.18758583  0.43594249  0.93379074  1
  Zn  Zn125  1  0.18572927  0.93340358  0.43354252  1
  Zn  Zn126  1  0.18412742  0.93955531  0.94006458  1
  Zn  Zn127  1  0.69028555  0.43820423  0.44051769  1
  Zn  Zn128  1  0.68715061  0.43664940  0.93896947  1
  Zn  Zn129  1  0.68642017  0.93411802  0.43446747  1
  Zn  Zn130  1  0.68742211  0.93421330  0.93919718  1
  Zn  Zn131  1  0.31147717  0.06444222  0.05932802  1
  Zn  Zn132  1  0.31743447  0.06430912  0.57839805  1
  Zn  Zn133  1  0.31062583  0.56204094  0.06202141  1
  Zn  Zn134  1  0.31175473  0.56967107  0.56796259  1
  Zn  Zn135  1  0.80650376  0.06250254  0.06263395  1
  Zn  Zn136  1  0.80510524  0.06449001  0.55651827  1
  Zn  Zn137  1  0.80689123  0.56359068  0.06129430  1
  Zn  Zn138  1  0.81333800  0.56006648  0.55942408  1
  Zn  Zn139  1  0.43407637  0.41559945  0.19416184  1
  Zn  Zn140  1  0.43558772  0.44256001  0.69193613  1
  Zn  Zn141  1  0.44097725  0.93615478  0.18864889  1
  Zn  Zn142  1  0.44105433  0.93837464  0.68786753  1
  Zn  Zn143  1  0.93860457  0.43680013  0.18654337  1
  Zn  Zn144  1  0.93878423  0.43729600  0.68857892  1
  Zn  Zn145  1  0.93463089  0.93308749  0.18690683  1
  Zn  Zn146  1  0.93568162  0.93823775  0.69033115  1
  Zn  Zn147  1  0.06289353  0.06011267  0.30567076  1
  Zn  Zn148  1  0.06046703  0.06443324  0.81175432  1
  Zn  Zn149  1  0.06088653  0.56261578  0.31516198  1
  Zn  Zn150  1  0.06319222  0.56252256  0.81207784  1
  Zn  Zn151  1  0.55883545  0.06416267  0.31424184  1
  Zn  Zn152  1  0.56254878  0.05735927  0.81550114  1
  Zn  Zn153  1  0.56125727  0.56150682  0.31063396  1
  Zn  Zn154  1  0.56431015  0.55704941  0.81743938  1
  Zn  Zn155  1  0.44657061  0.19334512  0.44070402  1
  Zn  Zn156  1  0.44025477  0.18313172  0.93911934  1
  Zn  Zn157  1  0.43594221  0.69418824  0.44124973  1
  Zn  Zn158  1  0.44126752  0.68397931  0.93902900  1
  Zn  Zn159  1  0.93674643  0.19162847  0.43852618  1
  Zn  Zn160  1  0.93688602  0.18532208  0.93734887  1
  Zn  Zn161  1  0.94115263  0.68412487  0.43754879  1
  Zn  Zn162  1  0.93902753  0.68952453  0.93798817  1
  Zn  Zn163  1  0.05927863  0.31388061  0.06316068  1
  Zn  Zn164  1  0.06295093  0.30998012  0.56144281  1
  Zn  Zn165  1  0.05973210  0.81361319  0.06204424  1
  Zn  Zn166  1  0.06459561  0.81036874  0.56150471  1
  Zn  Zn167  1  0.56110713  0.31408024  0.06048386  1
  Zn  Zn168  1  0.56137619  0.30996605  0.55914962  1
  Zn  Zn169  1  0.56371857  0.81030654  0.06280962  1
  Zn  Zn170  1  0.56051846  0.81350312  0.56566939  1
  O  O171  1  0.11615171  0.11878815  0.11964700  1
  O  O172  1  0.12320488  0.11848338  0.61058660  1
  O  O173  1  0.13117354  0.61272717  0.11677260  1
  O  O174  1  0.11883715  0.61889932  0.61841584  1
  O  O175  1  0.62003287  0.11777512  0.11809218  1
  O  O176  1  0.62607883  0.12302939  0.61173241  1
  O  O177  1  0.62220988  0.61718676  0.12033185  1
  O  O178  1  0.61472769  0.62367734  0.62132086  1
  O  O179  1  0.38484568  0.38688527  0.39028129  1
  O  O180  1  0.37799261  0.38031518  0.88406401  1
  O  O181  1  0.38968844  0.86730786  0.37462169  1
  O  O182  1  0.37467575  0.88559653  0.86920188  1
  O  O183  1  0.88066192  0.37975285  0.38229809  1
  O  O184  1  0.87776090  0.38219842  0.88202659  1
  O  O185  1  0.88379926  0.87910939  0.37804972  1
  O  O186  1  0.88008902  0.87507117  0.88585349  1
  O  O187  1  0.24910663  0.00250671  0.36124760  1
  O  O188  1  0.25456942  0.00513108  0.86989988  1
  O  O189  1  0.25532306  0.49500297  0.36093862  1
  O  O190  1  0.25527382  0.50926697  0.86961681  1
  O  O191  1  0.76063260  -0.00788681  0.36571677  1
  O  O192  1  0.74626143  0.01534233  0.88041091  1
  O  O193  1  0.75939414  0.51020826  0.38097073  1
  O  O194  1  0.75834393  0.49277588  0.86623513  1
  O  O195  1  0.24264759  0.49384154  0.13310607  1
  O  O196  1  0.24100473  0.51017095  0.63742808  1
  O  O197  1  0.24585109  0.99430639  0.12931462  1
  O  O198  1  0.24676829  0.99430664  0.63327024  1
  O  O199  1  0.73446901  0.49764302  0.12066147  1
  O  O200  1  0.74375470  0.49398596  0.62937152  1
  O  O201  1  0.73616738  1.00029788  0.13194768  1
  O  O202  1  0.74489185  0.98504323  0.61925451  1
  O  O203  1  0.00610494  0.36687789  0.25405855  1
  O  O204  1  0.00010771  0.35994999  0.74868735  1
  O  O205  1  0.00104527  0.86497517  0.25705391  1
  O  O206  1  0.00117126  0.86657162  0.75801329  1
  O  O207  1  0.52053121  0.39570906  0.27190727  1
  O  O208  1  0.49881275  0.37884754  0.76535526  1
  O  O209  1  0.50648480  0.86377823  0.25491648  1
  O  O210  1  0.51597618  0.87222823  0.75469378  1
  O  O211  1  0.50169438  0.12670919  0.23525337  1
  O  O212  1  0.48939402  0.12549500  0.75796501  1
  O  O213  1  0.49344109  0.63712187  0.24874935  1
  O  O214  1  0.50567236  0.62253726  0.74099070  1
  O  O215  1  0.99768947  0.13374700  0.23978381  1
  O  O216  1  0.99880063  0.13324653  0.74013663  1
  O  O217  1  0.99426422  0.63645314  0.25501149  1
  O  O218  1  0.99881932  0.63286615  0.74085964  1
  O  O219  1  0.37338660  0.26158311  -0.00504182  1
  O  O220  1  0.37237292  0.26219322  0.50517691  1
  O  O221  1  0.36790981  0.74279676  0.01190481  1
  O  O222  1  0.37098540  0.74153591  0.52105349  1
  O  O223  1  0.87511094  0.25778806  0.00733943  1
  O  O224  1  0.87814002  0.26117827  0.51069549  1
  O  O225  1  0.86755019  0.75361042  0.00333970  1
  O  O226  1  0.87123333  0.75512202  0.50373475  1
  O  O227  1  0.13543287  0.24169181  0.49895250  1
  O  O228  1  0.11767860  0.23600595  1.00116924  1
  O  O229  1  0.12798085  0.74334575  0.49091972  1
  O  O230  1  0.13224533  0.74249539  1.00100034  1
  O  O231  1  0.62851835  0.25069189  0.48589647  1
  O  O232  1  0.62597085  0.24183508  0.99230259  1
  O  O233  1  0.63060061  0.74464677  0.49668706  1
  O  O234  1  0.63132021  0.74385410  0.99578166  1
  O  O235  1  0.50599781  0.23352344  0.12280528  1
  O  O236  1  0.48612774  0.24896448  0.62259847  1
  O  O237  1  0.49090261  0.74937353  0.13188835  1
  O  O238  1  0.49227409  0.74091455  0.62709388  1
  O  O239  1  0.98925166  0.24467764  0.13233554  1
  O  O240  1  0.99327356  0.24249131  0.62803369  1
  O  O241  1  0.99172293  0.75256485  0.13346353  1
  O  O242  1  0.99411830  0.74578315  0.63184684  1
  O  O243  1  -0.00068870  0.25905925  0.36446529  1
  O  O244  1  0.00040038  0.24711015  0.86358133  1
  O  O245  1  0.00557729  0.75577105  0.36847475  1
  O  O246  1  0.00048970  0.75742741  0.86660524  1
  O  O247  1  0.50896281  0.26459285  0.37309629  1
  O  O248  1  0.50860371  0.25646066  0.88080235  1
  O  O249  1  0.50659814  0.75300139  0.36740373  1
  O  O250  1  0.51751562  0.75109726  0.88385204  1
  O  O251  1  0.24828745  0.12781153  0.48845641  1
  O  O252  1  0.24022734  0.12231605  0.99062573  1
  O  O253  1  0.23749285  0.63003260  0.50277612  1
  O  O254  1  0.24140369  0.63423389  0.99388741  1
  O  O255  1  0.73347375  0.12974108  0.49673796  1
  O  O256  1  0.73694004  0.12690060  0.99393958  1
  O  O257  1  0.74405883  0.63101158  0.49349656  1
  O  O258  1  0.73578895  0.63240595  1.00108781  1
  O  O259  1  0.26006032  0.37746301  0.00373463  1
  O  O260  1  0.26045061  0.37071746  0.50070868  1
  O  O261  1  0.24636736  0.86232679  0.00583867  1
  O  O262  1  0.24866654  0.87620481  0.51128713  1
  O  O263  1  0.76227763  0.37268142  0.00269535  1
  O  O264  1  0.75940981  0.37961942  0.51379521  1
  O  O265  1  0.76324801  0.86662872  -0.00394807  1
  O  O266  1  0.75359123  0.86637627  0.50638990  1
  O  O267  1  0.12926056  0.49888079  0.24277131  1
  O  O268  1  0.13178102  0.49872846  0.74218031  1
  O  O269  1  0.13386070  0.99841855  0.23727478  1
  O  O270  1  0.13256940  1.00162087  0.74248876  1
  O  O271  1  0.62953230  0.49692693  0.24399040  1
  O  O272  1  0.63224627  0.49479495  0.74588262  1
  O  O273  1  0.62927370  0.99358287  0.24546867  1
  O  O274  1  0.62853530  0.98501185  0.75311354  1
  O  O275  1  0.36027385  -0.00216942  0.24331323  1
  O  O276  1  0.36802247  0.00848429  0.75860247  1
  O  O277  1  0.36799696  0.50694473  0.25346369  1
  O  O278  1  0.36608292  0.49890769  0.76457515  1
  O  O279  1  0.86540012  -0.00163324  0.25563036  1
  O  O280  1  0.87455804  0.00493652  0.75341286  1
  O  O281  1  0.87863523  0.49896675  0.26320943  1
  O  O282  1  0.86979195  0.49994852  0.75954887  1
  O  O283  1  0.11789958  0.37350737  0.36923663  1
  O  O284  1  0.11978741  0.37076911  0.87126903  1
  O  O285  1  0.11189771  0.86779160  0.37310146  1
  O  O286  1  0.11576495  0.87319141  0.87504525  1
  O  O287  1  0.62407617  0.36898102  0.37483523  1
  O  O288  1  0.61605911  0.36590888  0.87693149  1
  O  O289  1  0.61781713  0.86719908  0.36591650  1
  O  O290  1  0.62601044  0.86507509  0.86627156  1
  O  O291  1  0.39006288  0.12402946  0.11854550  1
  O  O292  1  0.38018679  0.13497216  0.63815532  1
  O  O293  1  0.37498187  0.63137983  0.13544703  1
  O  O294  1  0.39056717  0.62977725  0.62848710  1
  O  O295  1  0.87906263  0.13057015  0.12542935  1
  O  O296  1  0.87832802  0.13216932  0.61901841  1
  O  O297  1  0.87161015  0.63681407  0.12325789  1
  O  O298  1  0.88332792  0.62944431  0.62359237  1
  O  O299  1  0.24439185  0.26565821  0.12842490  1
  O  O300  1  0.26434483  0.24162562  0.60852780  1
  O  O301  1  0.25557763  0.75692132  0.11942282  1
  O  O302  1  0.25648704  0.75970125  0.62465424  1
  O  O303  1  0.76136762  0.24985030  0.12561211  1
  O  O304  1  0.75922190  0.25906464  0.63114140  1
  O  O305  1  0.75673885  0.74982022  0.11136319  1
  O  O306  1  0.75703714  0.75385579  0.61926977  1
  O  O307  1  0.25162489  0.25673154  0.38782050  1
  O  O308  1  0.24655997  0.23631950  0.86881027  1
  O  O309  1  0.23502087  0.75952358  0.37253801  1
  O  O310  1  0.24992310  0.74585165  0.88131979  1
  O  O311  1  0.73880533  0.25056816  0.37080309  1
  O  O312  1  0.74188289  0.24135834  0.87707696  1
  O  O313  1  0.74503857  0.74507318  0.38142101  1
  O  O314  1  0.73685365  0.75052286  0.88676874  1
  O  O315  1  0.00351567  0.12500242  0.01255362  1
  O  O316  1  0.00758528  0.12084641  0.50321675  1
  O  O317  1  0.01337598  0.61971845  -0.00345995  1
  O  O318  1  0.01061843  0.63095239  0.51374201  1
  O  O319  1  0.50961906  0.11455596  0.00602898  1
  O  O320  1  0.52193903  0.13522006  0.49997718  1
  O  O321  1  0.51207436  0.62118406  0.00612781  1
  O  O322  1  0.50707950  0.62190490  0.50619146  1
  O  O323  1  0.49640515  0.38639091  0.49407748  1
  O  O324  1  0.48662858  0.37532363  0.99230415  1
  O  O325  1  0.50602489  0.87233600  0.48606149  1
  O  O326  1  0.50376056  0.88657492  0.99929824  1
  O  O327  1  0.99317768  0.36921764  0.48999760  1
  O  O328  1  0.98879842  0.38324314  0.99971514  1
  O  O329  1  0.99404075  0.87862507  0.49234966  1
  O  O330  1  0.98502311  0.86771926  0.99093718  1
  O  O331  1  0.49310720  0.50112912  0.38554957  1
  O  O332  1  0.49174407  0.49239927  0.87971007  1
  O  O333  1  0.50034135  0.98459144  0.36896686  1
  O  O334  1  0.49113865  0.99683439  0.88474397  1
  O  O335  1  0.99388335  0.48667284  0.37237186  1
  O  O336  1  0.99378326  0.49907322  0.88634585  1
  O  O337  1  0.99411459  0.99075264  0.37604012  1
  O  O338  1  0.99810433  0.98786631  0.87308376  1
  O  O339  1  0.00661697  0.00744625  0.13260774  1
  O  O340  1  0.00498952  0.00367480  0.61567706  1
  O  O341  1  0.00711008  0.49768110  0.11253655  1
  O  O342  1  0.00936525  0.51002474  0.63142953  1
  O  O343  1  0.50762772  0.00739275  0.12093878  1
  O  O344  1  0.50409126  0.00735789  0.63028015  1
  O  O345  1  0.51138678  0.49536923  0.12711877  1
  O  O346  1  0.50446845  0.51155093  0.62346625  1
  O  O347  1  0.24187927  0.38393751  0.24238084  1
  O  O348  1  0.24772905  0.38947667  0.75314720  1
  O  O349  1  0.24512650  0.88417152  0.23936180  1
  O  O350  1  0.24742178  0.88786058  0.74272248  1
  O  O351  1  0.74039359  0.37539791  0.25074566  1
  O  O352  1  0.75056710  0.38426824  0.73789234  1
  O  O353  1  0.73656567  0.88161145  0.25291356  1
  O  O354  1  0.73924070  0.86577886  0.74282359  1
  O  O355  1  0.24930748  0.11239191  0.24408828  1
  O  O356  1  0.25591877  0.11460304  0.75542512  1
  O  O357  1  0.25766177  0.61646765  0.24613106  1
  O  O358  1  0.24286788  0.61922192  0.76315538  1
  O  O359  1  0.74833595  0.11128510  0.24755318  1
  O  O360  1  0.74752844  0.12788395  0.76408791  1
  O  O361  1  0.75431320  0.63305390  0.26321704  1
  O  O362  1  0.75314871  0.60877342  0.74337549  1
  O  O363  1  0.37387016  0.13471428  0.36916566  1
  O  O364  1  0.36733871  0.11764002  0.87232003  1
  O  O365  1  0.37830667  0.62381474  0.36282404  1
  O  O366  1  0.36593896  0.61895030  0.88060846  1
  O  O367  1  0.88219899  0.11199505  0.37325985  1
  O  O368  1  0.85789277  0.12391483  0.87917810  1
  O  O369  1  0.86885612  0.61538087  0.37751266  1
  O  O370  1  0.87788978  0.61189177  0.87573821  1
  O  O371  1  0.12983635  0.38617779  0.12646619  1
  O  O372  1  0.12084708  0.38842920  0.62383224  1
  O  O373  1  0.13398285  0.88157967  0.12291126  1
  O  O374  1  0.13287365  0.88186440  0.62569010  1
  O  O375  1  0.62555018  0.37887268  0.13607905  1
  O  O376  1  0.63103836  0.37908633  0.62502968  1
  O  O377  1  0.61704589  0.88372325  0.13532046  1
  O  O378  1  0.63174938  0.87021269  0.63942267  1
  O  O379  1  0.11623730  0.25490131  0.25042726  1
  O  O380  1  0.11690952  0.24921162  0.74628880  1
  O  O381  1  0.11666735  0.74966337  0.25503401  1
  O  O382  1  0.11307872  0.75209408  0.74993307  1
  O  O383  1  0.61936925  0.25988250  0.26090382  1
  O  O384  1  0.62613255  0.25169325  0.76163643  1
  O  O385  1  0.61808278  0.75498575  0.25156355  1
  O  O386  1  0.62943582  0.75200356  0.76444587  1
  O  O387  1  0.39941338  0.30795557  0.24095468  1
  O  O388  1  0.36766802  0.24246944  0.74274140  1
  O  O389  1  0.37905511  0.74472659  0.24179188  1
  O  O390  1  0.36904487  0.74377923  0.73325301  1
  O  O391  1  0.88211774  0.24861742  0.24369523  1
  O  O392  1  0.88172086  0.24500728  0.73737999  1
  O  O393  1  0.88070185  0.75080137  0.23902481  1
  O  O394  1  0.88364711  0.74720853  0.74606585  1
  O  O395  1  0.37709641  0.49918360  0.49973853  1
  O  O396  1  0.37390754  0.49646634  0.98833640  1
  O  O397  1  0.36190012  1.01985347  0.48137220  1
  O  O398  1  0.38282152  1.00285460  0.99141771  1
  O  O399  1  0.87572405  0.48778735  0.49051645  1
  O  O400  1  0.88023882  0.49598207  0.99622679  1
  O  O401  1  0.87802235  0.99364982  0.49202461  1
  O  O402  1  0.86929990  0.98593345  1.00017662  1
  O  O403  1  0.12834477  0.01017478  0.01428506  1
  O  O404  1  0.12059417  0.00613402  0.50087736  1
  O  O405  1  0.11912285  0.50580241  0.00487776  1
  O  O406  1  0.12987525  0.50835314  0.50902297  1
  O  O407  1  0.61946492  0.00434066  0.00741237  1
  O  O408  1  0.62896950  0.01128640  0.49619290  1
  O  O409  1  0.62231473  0.50562727  0.00618312  1
  O  O410  1  0.62011907  0.50746889  0.50772858  1
  O  O411  1  0.36501106  0.38567190  0.10446928  1
  O  O412  1  0.38069712  0.37310755  0.61654774  1
  O  O413  1  0.36457383  0.86631778  0.12827973  1
  O  O414  1  0.36939496  0.86462102  0.63104612  1
  O  O415  1  0.87394344  0.36754356  0.11846176  1
  O  O416  1  0.87059608  0.37095349  0.61846121  1
  O  O417  1  0.87867645  0.86455704  0.11068199  1
  O  O418  1  0.86788431  0.86803197  0.62031599  1
  O  O419  1  0.11748779  0.12659445  0.38491163  1
  O  O420  1  0.13150250  0.12335284  0.88391953  1
  O  O421  1  0.11763723  0.63346466  0.38550262  1
  O  O422  1  0.13306095  0.62752822  0.88336423  1
  O  O423  1  0.62182619  0.13818916  0.37960246  1
  O  O424  1  0.63083539  0.12948716  0.88101784  1
  O  O425  1  0.63205334  0.62992811  0.37951324  1
  O  O426  1  0.62325733  0.63379805  0.88203796  1
