# generated using pymatgen
data_V85Zn86O256
_symmetry_space_group_name_H-M   'P 1'
_cell_length_a   16.92063632
_cell_length_b   16.91544416
_cell_length_c   16.91638097
_cell_angle_alpha   90.05044457
_cell_angle_beta   89.99055211
_cell_angle_gamma   90.09623740
_symmetry_Int_Tables_number   1
_chemical_formula_structural   V85Zn86O256
_chemical_formula_sum   'V85 Zn86 O256'
_cell_volume   4841.79912407
_cell_formula_units_Z   1
loop_
 _symmetry_equiv_pos_site_id
 _symmetry_equiv_pos_as_xyz
  1  'x, y, z'
loop_
 _atom_site_type_symbol
 _atom_site_label
 _atom_site_symmetry_multiplicity
 _atom_site_fract_x
 _atom_site_fract_y
 _atom_site_fract_z
 _atom_site_occupancy
  V  V0  1  0.63981759  0.49488731  0.62901591  1
  V  V1  1  0.26016365  0.63040233  0.87551581  1
  V  V2  1  0.12979134  0.74754642  0.38874004  1
  V  V3  1  0.00142772  0.62366316  0.11688237  1
  V  V4  1  0.62268175  0.12793882  0.49181505  1
  V  V5  1  0.87855810  0.75581839  0.12183385  1
  V  V6  1  0.00451324  0.75008516  0.74920035  1
  V  V7  1  0.37439468  0.24678390  0.62921981  1
  V  V8  1  0.74912611  0.87668624  0.62462958  1
  V  V9  1  0.75040590  0.75167087  0.49885562  1
  V  V10  1  0.24533057  0.37469418  0.12857486  1
  V  V11  1  0.12570251  0.38063600  0.75044029  1
  V  V12  1  0.00117489  0.87967393  0.38498375  1
  V  V13  1  0.12401684  0.12293962  -0.00036823  1
  V  V14  1  0.49688109  0.86945196  0.36376907  1
  V  V15  1  0.87831804  0.49153902  0.37356389  1
  V  V16  1  0.37548157  0.86011983  0.00384693  1
  V  V17  1  0.00143356  0.37947542  0.88165755  1
  V  V18  1  0.49741447  0.62148759  0.63125895  1
  V  V19  1  0.62579784  0.62366275  0.50137092  1
  V  V20  1  0.87238743  0.38021841  0.00129073  1
  V  V21  1  0.49104442  0.11569025  0.13397946  1
  V  V22  1  0.87203754  0.12265359  0.75072766  1
  V  V23  1  0.75213128  0.62253006  0.87205292  1
  V  V24  1  0.12870474  0.87904395  0.25136203  1
  V  V25  1  0.25060488  0.37633656  0.62586141  1
  V  V26  1  0.61854829  0.11715077  0.00406491  1
  V  V27  1  0.87557498  0.00472761  0.38112591  1
  V  V28  1  0.49650683  0.63636877  0.12756710  1
  V  V29  1  0.25002726  0.86210638  0.11899732  1
  V  V30  1  0.62415178  0.00133793  0.62414803  1
  V  V31  1  0.86709741  0.25689957  0.62396442  1
  V  V32  1  0.12892612  0.75031750  0.88239110  1
  V  V33  1  0.49361962  0.26465434  0.25103822  1
  V  V34  1  0.49300021  0.74510560  0.75256911  1
  V  V35  1  0.00049190  0.26782016  0.25280750  1
  V  V36  1  0.11967510  0.11465747  0.49824477  1
  V  V37  1  0.37820885  0.37434329  0.49839009  1
  V  V38  1  0.38015080  0.49531333  0.37122201  1
  V  V39  1  0.74840388  0.13011742  0.88301633  1
  V  V40  1  -0.00592682  0.87586026  0.87773594  1
  V  V41  1  -0.00034745  0.12456684  0.13089471  1
  V  V42  1  0.00782505  0.49527111  0.49361202  1
  V  V43  1  0.25362393  0.12525338  0.36536338  1
  V  V44  1  0.75255975  0.87867425  0.12448666  1
  V  V45  1  0.36682068  0.74906117  0.61988442  1
  V  V46  1  0.49733840  -0.00617174  0.49661962  1
  V  V47  1  -0.00012040  0.25079036  0.74914852  1
  V  V48  1  0.13360817  0.88959269  0.74781465  1
  V  V49  1  0.37801877  0.49801808  0.86847900  1
  V  V50  1  0.62618837  0.62392075  0.00024881  1
  V  V51  1  0.01040446  0.62490569  0.61752188  1
  V  V52  1  0.11993617  0.26404308  0.37283301  1
  V  V53  1  0.24586749  0.25166236  0.49789671  1
  V  V54  1  0.24492126  0.49857780  0.25015817  1
  V  V55  1  0.62149349  0.49770286  0.13049318  1
  V  V56  1  0.49966739  0.88401997  0.87995997  1
  V  V57  1  0.49817181  0.25598615  0.75490868  1
  V  V58  1  0.87104894  0.25101795  0.12182201  1
  V  V59  1  0.62497827  0.74904415  0.87392871  1
  V  V60  1  0.87445833  0.61848368  0.74720858  1
  V  V61  1  0.00203437  0.11412502  0.62165687  1
  V  V62  1  0.75599217  0.75598172  -0.00311799  1
  V  V63  1  0.87553875  0.74974733  0.62351152  1
  V  V64  1  0.74825743  0.49679885  0.24916623  1
  V  V65  1  -0.00912424  -0.00230309  0.00257004  1
  V  V66  1  0.87488633  0.50034116  0.87548020  1
  V  V67  1  0.63942061  0.37504864  0.75072119  1
  V  V68  1  0.62175824  0.74829786  0.36572578  1
  V  V69  1  0.12192813  0.49795472  0.11850366  1
  V  V70  1  0.25047441  0.24860342  0.00004164  1
  V  V71  1  0.62133293  0.26988267  0.36774169  1
  V  V72  1  0.24898124  0.62801299  0.38679451  1
  V  V73  1  0.00219951  0.75005837  0.25278735  1
  V  V74  1  0.62436158  0.87428316  0.74994025  1
  V  V75  1  0.37773466  0.37311604  -0.00261178  1
  V  V76  1  0.37227649  0.00130304  0.87990293  1
  V  V77  1  0.74290401  0.37108359  0.12210831  1
  V  V78  1  0.37629964  0.63538445  0.24612411  1
  V  V79  1  0.25128515  0.12211751  0.86942865  1
  V  V80  1  0.75234333  0.62505512  0.37311683  1
  V  V81  1  0.62195619  0.25581334  0.88535953  1
  V  V82  1  0.49586280  0.12441559  0.62959645  1
  V  V83  1  0.50058821  0.49586032  -0.00291460  1
  V  V84  1  0.50376261  0.49350714  0.49831577  1
  Zn  Zn85  1  0.12712555  -0.00107110  0.12524618  1
  Zn  Zn86  1  0.24368277  0.89706505  0.61893345  1
  Zn  Zn87  1  0.87930986  0.88203644  0.50532320  1
  Zn  Zn88  1  0.74755215  0.00144972  0.75262259  1
  Zn  Zn89  1  0.74392055  0.25688050  0.50113337  1
  Zn  Zn90  1  0.31517520  0.06071550  0.71097110  1
  Zn  Zn91  1  0.12482426  0.25137769  0.87487765  1
  Zn  Zn92  1  0.13096952  0.50608573  0.62018695  1
  Zn  Zn93  1  0.87137026  0.12552107  0.25108314  1
  Zn  Zn94  1  0.13065728  0.62614429  0.00062130  1
  Zn  Zn95  1  0.87186710  0.37654266  0.50110481  1
  Zn  Zn96  1  0.36475959  0.86618035  0.49408533  1
  Zn  Zn97  1  0.25679326  0.50311582  0.74911100  1
  Zn  Zn98  1  0.26194084  0.00606386  0.23852042  1
  Zn  Zn99  1  0.86932227  -0.00347123  0.87941728  1
  Zn  Zn100  1  0.74830077  0.00125462  0.25234365  1
  Zn  Zn101  1  0.74727573  0.12774114  0.37233476  1
  Zn  Zn102  1  0.37872237  0.00127754  0.36615019  1
  Zn  Zn103  1  0.87658522  0.62580461  0.24929638  1
  Zn  Zn104  1  0.61995327  -0.00520582  0.12586088  1
  Zn  Zn105  1  0.62425344  0.87320083  0.24609584  1
  Zn  Zn106  1  0.37144108  0.24379167  0.13056691  1
  Zn  Zn107  1  0.18097807  0.19204270  0.18714070  1
  Zn  Zn108  1  0.18135164  0.18994601  0.68396236  1
  Zn  Zn109  1  0.18637006  0.68593901  0.19366388  1
  Zn  Zn110  1  0.18863371  0.68664453  0.69750966  1
  Zn  Zn111  1  0.68416788  0.18658126  0.19153479  1
  Zn  Zn112  1  0.68439629  0.18637404  0.69042002  1
  Zn  Zn113  1  0.68986216  0.68594489  0.18445497  1
  Zn  Zn114  1  0.68668757  0.68549013  0.68763649  1
  Zn  Zn115  1  0.31190028  0.31248566  0.31183243  1
  Zn  Zn116  1  0.31379413  0.31144625  0.81419193  1
  Zn  Zn117  1  0.31006793  0.81343920  0.31146885  1
  Zn  Zn118  1  0.31350927  0.81351503  0.81051051  1
  Zn  Zn119  1  0.80805374  0.31248247  0.30879075  1
  Zn  Zn120  1  0.81195386  0.30802054  0.81566465  1
  Zn  Zn121  1  0.81544995  0.81586202  0.31159080  1
  Zn  Zn122  1  0.81451497  0.81040153  0.80864194  1
  Zn  Zn123  1  0.19034879  0.44071527  0.43676023  1
  Zn  Zn124  1  0.19081945  0.44045575  0.93819041  1
  Zn  Zn125  1  0.19192877  0.93760422  0.43789956  1
  Zn  Zn126  1  0.18719642  0.93773005  0.93840349  1
  Zn  Zn127  1  0.69393511  0.43506491  0.44192421  1
  Zn  Zn128  1  0.68956200  0.43617181  0.93706479  1
  Zn  Zn129  1  0.68619015  0.93695350  0.43580402  1
  Zn  Zn130  1  0.68855258  0.93935565  0.93849622  1
  Zn  Zn131  1  0.31457530  0.05311879  0.05908709  1
  Zn  Zn132  1  0.30993820  0.06099738  0.54519754  1
  Zn  Zn133  1  0.31215519  0.56470258  0.05993237  1
  Zn  Zn134  1  0.31839108  0.56227252  0.56484443  1
  Zn  Zn135  1  0.80946533  0.06826112  0.06105175  1
  Zn  Zn136  1  0.80997434  0.06771957  0.55970005  1
  Zn  Zn137  1  0.81444284  0.56412940  0.06143910  1
  Zn  Zn138  1  0.81791831  0.56278692  0.55889760  1
  Zn  Zn139  1  0.43194221  0.43993264  0.18259169  1
  Zn  Zn140  1  0.44460670  0.43214166  0.68645022  1
  Zn  Zn141  1  0.43289348  0.93575687  0.18775011  1
  Zn  Zn142  1  0.43766482  0.93103486  0.68844568  1
  Zn  Zn143  1  0.93451577  0.44178728  0.18520738  1
  Zn  Zn144  1  0.94130818  0.44025522  0.68701969  1
  Zn  Zn145  1  0.93623288  0.93818451  0.19408258  1
  Zn  Zn146  1  0.93826481  0.93714671  0.69159646  1
  Zn  Zn147  1  0.06270095  0.06370051  0.31494692  1
  Zn  Zn148  1  0.05961994  0.06384391  0.81590217  1
  Zn  Zn149  1  0.06551858  0.56392137  0.31080875  1
  Zn  Zn150  1  0.06354184  0.56386952  0.81440281  1
  Zn  Zn151  1  0.56223248  0.05823450  0.30668596  1
  Zn  Zn152  1  0.56157003  0.06431069  0.81238666  1
  Zn  Zn153  1  0.56115986  0.56191996  0.31186625  1
  Zn  Zn154  1  0.56414324  0.55763933  0.81263827  1
  Zn  Zn155  1  0.43948654  0.19054883  0.43672913  1
  Zn  Zn156  1  0.43822251  0.18499823  0.93986234  1
  Zn  Zn157  1  0.43892487  0.68221261  0.43733486  1
  Zn  Zn158  1  0.43923612  0.68512107  0.93856424  1
  Zn  Zn159  1  0.93918692  0.18919442  0.43763137  1
  Zn  Zn160  1  0.93629422  0.19040455  0.93975359  1
  Zn  Zn161  1  0.93807714  0.68531859  0.43734554  1
  Zn  Zn162  1  0.93950796  0.68869622  0.93772670  1
  Zn  Zn163  1  0.06264134  0.31177872  0.06326643  1
  Zn  Zn164  1  0.06017747  0.31282372  0.56277173  1
  Zn  Zn165  1  0.06268937  0.81473968  0.06251695  1
  Zn  Zn166  1  0.06759045  0.81521312  0.56536179  1
  Zn  Zn167  1  0.55869329  0.30940034  0.06686550  1
  Zn  Zn168  1  0.56570760  0.31275468  0.56558786  1
  Zn  Zn169  1  0.56438877  0.81326367  0.05942646  1
  Zn  Zn170  1  0.56004322  0.81019097  0.55992601  1
  O  O171  1  0.11632903  0.12347728  0.11752262  1
  O  O172  1  0.11642210  0.13218846  0.60930067  1
  O  O173  1  0.11994451  0.61924061  0.12357215  1
  O  O174  1  0.11426170  0.62530694  0.63197812  1
  O  O175  1  0.61719222  0.12574405  0.11552156  1
  O  O176  1  0.61773021  0.12242564  0.61422099  1
  O  O177  1  0.61942152  0.61710052  0.11920780  1
  O  O178  1  0.61676115  0.61770240  0.62196012  1
  O  O179  1  0.36880216  0.38781440  0.38153107  1
  O  O180  1  0.36903166  0.38200746  0.88923543  1
  O  O181  1  0.38389513  0.87200870  0.37684757  1
  O  O182  1  0.38083780  0.87593225  0.88371617  1
  O  O183  1  0.87167001  0.38845129  0.37171226  1
  O  O184  1  0.87918223  0.37955278  0.88071899  1
  O  O185  1  0.88401146  0.88412940  0.37825256  1
  O  O186  1  0.88923859  0.87569556  0.86813564  1
  O  O187  1  0.24744563  0.01763723  0.37187822  1
  O  O188  1  0.25644342  0.00995898  0.87798165  1
  O  O189  1  0.25634475  0.50668269  0.36687724  1
  O  O190  1  0.26109736  0.50695243  0.87344352  1
  O  O191  1  0.76240092  0.00000298  0.37630991  1
  O  O192  1  0.75073377  0.01265131  0.87451058  1
  O  O193  1  0.75462189  0.50456011  0.36640486  1
  O  O194  1  0.76499254  0.50592959  0.87938180  1
  O  O195  1  0.24480640  0.49377676  0.13009574  1
  O  O196  1  0.25173296  0.49070239  0.62820716  1
  O  O197  1  0.24523715  0.98816666  0.12331976  1
  O  O198  1  0.25887266  1.00986941  0.62937755  1
  O  O199  1  0.74199494  0.49692397  0.12932874  1
  O  O200  1  0.73848595  0.50995212  0.62392626  1
  O  O201  1  0.75486124  0.98505598  0.11927492  1
  O  O202  1  0.74297745  0.99468176  0.62542739  1
  O  O203  1  -0.00135573  0.36619987  0.24509580  1
  O  O204  1  0.00536063  0.37031191  0.75880906  1
  O  O205  1  0.00700299  0.86582643  0.25719024  1
  O  O206  1  0.00793342  0.86786398  0.75653576  1
  O  O207  1  0.49730587  0.36392506  0.24134189  1
  O  O208  1  0.51195989  0.36009716  0.74712419  1
  O  O209  1  0.50196740  0.87176599  0.26006449  1
  O  O210  1  0.50663045  0.86515828  0.75942746  1
  O  O211  1  0.50355071  0.13200008  0.23598999  1
  O  O212  1  0.50917184  0.13471104  0.73589035  1
  O  O213  1  0.48544171  0.61778043  0.24259209  1
  O  O214  1  0.50832201  0.63222649  0.74311520  1
  O  O215  1  0.99844344  0.12879427  0.23836482  1
  O  O216  1  0.99457918  0.13332277  0.74643379  1
  O  O217  1  1.00293475  0.63819015  0.24179504  1
  O  O218  1  0.99466124  0.63211561  0.74409643  1
  O  O219  1  0.36765033  0.25645455  0.00282376  1
  O  O220  1  0.36890862  0.25571320  0.50643668  1
  O  O221  1  0.37273788  0.76098950  -0.00529522  1
  O  O222  1  0.38204059  0.74565588  0.51639466  1
  O  O223  1  0.88058713  0.26225877  0.01385584  1
  O  O224  1  0.87869316  0.25094685  0.51561195  1
  O  O225  1  0.86797394  0.74655302  0.00801537  1
  O  O226  1  0.86738877  0.75192402  0.50596361  1
  O  O227  1  0.12778904  0.24892321  0.49158084  1
  O  O228  1  0.13064764  0.23980775  0.99903117  1
  O  O229  1  0.11967962  0.74887659  0.48790647  1
  O  O230  1  0.12171284  0.75149391  0.98571605  1
  O  O231  1  0.61807318  0.24570029  0.48574631  1
  O  O232  1  0.61876496  0.24485722  0.98925962  1
  O  O233  1  0.63278512  0.74227444  0.49465990  1
  O  O234  1  0.63351515  0.74270921  0.99233185  1
  O  O235  1  0.49763392  0.24185924  0.13774616  1
  O  O236  1  0.49504091  0.24216123  0.63009696  1
  O  O237  1  0.50570554  0.73539243  0.12114147  1
  O  O238  1  0.49695521  0.74085795  0.63330208  1
  O  O239  1  0.99459914  0.24579288  0.13448810  1
  O  O240  1  0.99286702  0.24461438  0.63652731  1
  O  O241  1  0.99548102  0.74712228  0.13110546  1
  O  O242  1  0.99683368  0.74425668  0.63088458  1
  O  O243  1  0.00243824  0.25000024  0.36049470  1
  O  O244  1  -0.00133816  0.25726117  0.86375060  1
  O  O245  1  0.00503738  0.75501118  0.36855528  1
  O  O246  1  0.00614914  0.75585478  0.86831587  1
  O  O247  1  0.50756025  0.24819904  0.36176654  1
  O  O248  1  0.50833784  0.24170319  0.86574378  1
  O  O249  1  0.51072709  0.75534577  0.38296026  1
  O  O250  1  0.50536489  0.75421468  0.86905658  1
  O  O251  1  0.23653835  0.13405887  0.48932929  1
  O  O252  1  0.24235421  0.13024235  0.99574567  1
  O  O253  1  0.25626515  0.61710105  0.48578495  1
  O  O254  1  0.24892561  0.62181685  0.98317316  1
  O  O255  1  0.73744504  0.13459715  0.49619708  1
  O  O256  1  0.73457758  0.12782910  0.99571098  1
  O  O257  1  0.74564017  0.63063817  0.49365445  1
  O  O258  1  0.74695476  0.63442991  0.99408564  1
  O  O259  1  0.25365553  0.36584241  0.00510243  1
  O  O260  1  0.25544698  0.37191199  0.50805474  1
  O  O261  1  0.25770666  0.87419433  0.00919585  1
  O  O262  1  0.25197900  0.87670459  0.50680270  1
  O  O263  1  0.75925353  0.37772083  0.00984049  1
  O  O264  1  0.75780062  0.36959155  0.50310382  1
  O  O265  1  0.74798486  0.86238232  0.00315297  1
  O  O266  1  0.75002539  0.86892832  0.50936798  1
  O  O267  1  0.13872065  0.50533697  0.24066847  1
  O  O268  1  0.12407174  0.48883709  0.74710423  1
  O  O269  1  0.12421771  0.98702593  0.25003886  1
  O  O270  1  0.12178438  0.98785368  0.75623162  1
  O  O271  1  0.63013342  0.50347990  0.23773579  1
  O  O272  1  0.62213830  0.48372343  0.74522583  1
  O  O273  1  0.63065870  0.99308014  0.24375192  1
  O  O274  1  0.62391416  0.99317428  0.74268643  1
  O  O275  1  0.37400525  0.00272132  0.25388518  1
  O  O276  1  0.38486462  -0.00626759  0.76974130  1
  O  O277  1  0.36665356  0.50401638  0.25619734  1
  O  O278  1  0.38156119  0.48970380  0.76507474  1
  O  O279  1  0.87151728  0.00200925  0.26415358  1
  O  O280  1  0.87415950  0.01353382  0.75429483  1
  O  O281  1  0.86765807  0.50505442  0.25520852  1
  O  O282  1  0.87931180  0.51149125  0.75543159  1
  O  O283  1  0.13028036  0.36363952  0.37632214  1
  O  O284  1  0.11817230  0.37594705  0.86996987  1
  O  O285  1  0.11981354  0.87001728  0.36881395  1
  O  O286  1  0.11872642  0.86948291  0.86687157  1
  O  O287  1  0.62166272  0.36811929  0.37542415  1
  O  O288  1  0.62863945  0.36751855  0.86579286  1
  O  O289  1  0.61804893  0.86352040  0.37511108  1
  O  O290  1  0.61791494  0.87004663  0.87297655  1
  O  O291  1  0.38836323  0.12555408  0.11542354  1
  O  O292  1  0.38134605  0.12916624  0.62614130  1
  O  O293  1  0.38068127  0.61886761  0.13693507  1
  O  O294  1  0.38951074  0.63079903  0.62557672  1
  O  O295  1  0.88123463  0.13563217  0.12421674  1
  O  O296  1  0.88115639  0.13290481  0.63226726  1
  O  O297  1  0.88289511  0.63499726  0.12646675  1
  O  O298  1  0.88381130  0.62991708  0.63174800  1
  O  O299  1  0.24985975  0.25519991  0.11736145  1
  O  O300  1  0.25369325  0.25913142  0.62064404  1
  O  O301  1  0.24497122  0.76264643  0.12813404  1
  O  O302  1  0.26755062  0.74023187  0.63327571  1
  O  O303  1  0.75766212  0.26066603  0.13318005  1
  O  O304  1  0.76495014  0.24284894  0.62739865  1
  O  O305  1  0.75846629  0.75593732  0.11729059  1
  O  O306  1  0.75422672  0.75539469  0.61976752  1
  O  O307  1  0.24019929  0.24377944  0.37620823  1
  O  O308  1  0.24895894  0.24486706  0.88744715  1
  O  O309  1  0.24274618  0.73999021  0.37137321  1
  O  O310  1  0.24495891  0.73912365  0.86908913  1
  O  O311  1  0.73225825  0.25074818  0.37159070  1
  O  O312  1  0.73835465  0.23831756  0.87230098  1
  O  O313  1  0.74583411  0.74607826  0.38040087  1
  O  O314  1  0.74769288  0.74578905  0.88070841  1
  O  O315  1  0.00563210  0.12296861  0.00933447  1
  O  O316  1  0.01136070  0.13100489  0.50680177  1
  O  O317  1  0.00432945  0.63004377  0.01334482  1
  O  O318  1  -0.00450880  0.61381151  0.50886298  1
  O  O319  1  0.51217311  0.13097702  0.01253974  1
  O  O320  1  0.50373322  0.11977736  0.50924744  1
  O  O321  1  0.50459766  0.61692268  0.00769985  1
  O  O322  1  0.50702668  0.61315806  0.50792304  1
  O  O323  1  0.49588497  0.38639047  0.50734682  1
  O  O324  1  0.49010293  0.38284437  1.00728767  1
  O  O325  1  0.49783483  0.88205647  0.49324088  1
  O  O326  1  0.48738094  0.86860491  0.99329897  1
  O  O327  1  0.99397948  0.39143853  0.50556595  1
  O  O328  1  0.99499146  0.37009711  0.98731800  1
  O  O329  1  1.00070939  0.87164503  0.48847077  1
  O  O330  1  1.00547543  0.88555989  0.99128607  1
  O  O331  1  0.49222734  0.50388307  0.38434676  1
  O  O332  1  0.49473533  0.50498256  0.88905787  1
  O  O333  1  0.50348285  0.98790888  0.38100224  1
  O  O334  1  0.49845890  0.98811708  0.87553844  1
  O  O335  1  0.99482857  0.50736823  0.38508132  1
  O  O336  1  0.98830232  0.49224970  0.87130166  1
  O  O337  1  0.98864561  0.99208926  0.37061996  1
  O  O338  1  0.99652514  0.99327970  0.88357006  1
  O  O339  1  0.00058985  0.00709340  0.12059640  1
  O  O340  1  -0.00458525  0.01485416  0.62953315  1
  O  O341  1  0.00935656  0.51106677  0.13341731  1
  O  O342  1  0.00202300  0.50845555  0.61378436  1
  O  O343  1  0.50072375  0.01196198  0.12661044  1
  O  O344  1  0.50253436  0.00482283  0.61864096  1
  O  O345  1  0.50622715  0.50554713  0.11687617  1
  O  O346  1  0.50749653  0.50553282  0.61994486  1
  O  O347  1  0.25493218  0.38333167  0.23927566  1
  O  O348  1  0.24248536  0.37590796  0.74425789  1
  O  O349  1  0.24382134  0.87674106  0.23964688  1
  O  O350  1  0.23651413  0.87360719  0.74935459  1
  O  O351  1  0.75334432  0.38911765  0.23799137  1
  O  O352  1  0.73872630  0.37030177  0.75193848  1
  O  O353  1  0.74861305  0.87340933  0.23773941  1
  O  O354  1  0.74391021  0.87593328  0.74236412  1
  O  O355  1  0.24001152  0.12710803  0.26170074  1
  O  O356  1  0.24580798  0.13733280  0.76497449  1
  O  O357  1  0.26152057  0.61742946  0.25433965  1
  O  O358  1  0.24754768  0.61811336  0.76843094  1
  O  O359  1  0.75322063  0.12204682  0.25349865  1
  O  O360  1  0.75630128  0.12377890  0.75826374  1
  O  O361  1  0.75113939  0.61409724  0.25326178  1
  O  O362  1  0.76356232  0.63402425  0.75775859  1
  O  O363  1  0.35541923  0.13112277  0.38127113  1
  O  O364  1  0.36505310  0.11538551  0.88324492  1
  O  O365  1  0.37099816  0.61613096  0.36542967  1
  O  O366  1  0.36791967  0.61672358  0.87766657  1
  O  O367  1  0.87497312  0.11617063  0.37510245  1
  O  O368  1  0.86542204  0.12914699  0.87001929  1
  O  O369  1  0.86738873  0.61627871  0.37245571  1
  O  O370  1  0.87522031  0.61814824  0.86885967  1
  O  O371  1  0.13554817  0.38112018  0.12068199  1
  O  O372  1  0.13344230  0.37664871  0.63210243  1
  O  O373  1  0.13393341  0.87520250  0.13102090  1
  O  O374  1  0.12539974  0.87296256  0.64314575  1
  O  O375  1  0.63361272  0.38311513  0.11765040  1
  O  O376  1  0.62557412  0.38060705  0.63855547  1
  O  O377  1  0.63632230  0.87363514  0.12339232  1
  O  O378  1  0.62900948  0.87954401  0.62879611  1
  O  O379  1  0.10801097  0.24972710  0.25569450  1
  O  O380  1  0.11628143  0.26226912  0.75150278  1
  O  O381  1  0.11892437  0.76071285  0.25684680  1
  O  O382  1  0.11518143  0.75409738  0.76002476  1
  O  O383  1  0.61299479  0.25074197  0.26142359  1
  O  O384  1  0.62055546  0.25826210  0.75767984  1
  O  O385  1  0.62952874  0.74689587  0.26270762  1
  O  O386  1  0.61801813  0.75488607  0.75555964  1
  O  O387  1  0.38782946  0.25124800  0.24987315  1
  O  O388  1  0.38451007  0.25551101  0.74294575  1
  O  O389  1  0.37307867  0.73366692  0.25235608  1
  O  O390  1  0.38844222  0.75196100  0.74323294  1
  O  O391  1  0.88492219  0.25119045  0.24114656  1
  O  O392  1  0.87982051  0.24114227  0.74412912  1
  O  O393  1  0.88494442  0.74819551  0.24353428  1
  O  O394  1  0.88758841  0.74207626  0.74544074  1
  O  O395  1  0.38473620  0.49556292  0.49285565  1
  O  O396  1  0.38253390  0.49335905  0.99416018  1
  O  O397  1  0.38933266  1.00121400  0.48810201  1
  O  O398  1  0.37503466  0.98412625  0.98686825  1
  O  O399  1  0.88516184  0.49952332  0.49067452  1
  O  O400  1  0.87619205  0.48903956  0.99457322  1
  O  O401  1  0.87339655  1.00062229  0.48754033  1
  O  O402  1  0.88711677  1.00778099  0.99837134  1
  O  O403  1  0.11486127  0.01111292  -0.00057508  1
  O  O404  1  0.12195932  0.01630171  0.49211428  1
  O  O405  1  0.12805412  0.50202433  0.01411653  1
  O  O406  1  0.11233442  0.49862422  0.49982760  1
  O  O407  1  0.62456940  0.01365079  0.00282522  1
  O  O408  1  0.61508861  0.00727591  0.50363981  1
  O  O409  1  0.61922296  0.50374708  0.00671950  1
  O  O410  1  0.62057660  0.50303056  0.50718801  1
  O  O411  1  0.36173182  0.37483399  0.11338415  1
  O  O412  1  0.36806224  0.36984926  0.62016247  1
  O  O413  1  0.36668718  0.87359256  0.11185129  1
  O  O414  1  0.37564760  0.85765781  0.62433141  1
  O  O415  1  0.86801255  0.37293731  0.11763413  1
  O  O416  1  0.87970353  0.35869016  0.63280824  1
  O  O417  1  0.87196505  0.86269460  0.12843822  1
  O  O418  1  0.86896800  0.86910120  0.62641907  1
  O  O419  1  0.12738580  0.13516867  0.38337146  1
  O  O420  1  0.13046511  0.12851850  0.88310317  1
  O  O421  1  0.13778386  0.63417458  0.36797705  1
  O  O422  1  0.13238139  0.63272028  0.87780776  1
  O  O423  1  0.61958687  0.12661859  0.38529210  1
  O  O424  1  0.62726894  0.13017683  0.88620916  1
  O  O425  1  0.63099353  0.62933512  0.38032655  1
  O  O426  1  0.63200060  0.62779219  0.87947922  1
