# generated using pymatgen
data_V85Zn86O256
_symmetry_space_group_name_H-M   'P 1'
_cell_length_a   16.92214803
_cell_length_b   16.92322105
_cell_length_c   16.91889172
_cell_angle_alpha   90.07912481
_cell_angle_beta   89.96075664
_cell_angle_gamma   90.04588485
_symmetry_Int_Tables_number   1
_chemical_formula_structural   V85Zn86O256
_chemical_formula_sum   'V85 Zn86 O256'
_cell_volume   4845.17840619
_cell_formula_units_Z   1
loop_
 _symmetry_equiv_pos_site_id
 _symmetry_equiv_pos_as_xyz
  1  'x, y, z'
loop_
 _atom_site_type_symbol
 _atom_site_label
 _atom_site_symmetry_multiplicity
 _atom_site_fract_x
 _atom_site_fract_y
 _atom_site_fract_z
 _atom_site_occupancy
  V  V0  1  0.61891304  -0.00781680  0.62369926  1
  V  V1  1  0.49895278  0.37455074  0.86730509  1
  V  V2  1  0.12815129  0.49469183  0.14324799  1
  V  V3  1  0.62575973  0.87352299  0.24783372  1
  V  V4  1  0.75254294  0.62361286  0.87549354  1
  V  V5  1  0.49892693  0.49834941  0.49896482  1
  V  V6  1  0.01278625  0.50559886  0.00041158  1
  V  V7  1  0.62441945  0.62239877  0.00295171  1
  V  V8  1  0.62515934  0.50040855  0.12315601  1
  V  V9  1  0.12355443  0.11646877  0.50377583  1
  V  V10  1  0.87418373  0.12855157  0.24816306  1
  V  V11  1  0.88209616  0.63230712  0.24819078  1
  V  V12  1  0.00600284  0.37607364  0.87608370  1
  V  V13  1  0.49610971  0.87390350  0.37447552  1
  V  V14  1  0.62854332  0.37371446  0.25025381  1
  V  V15  1  0.87878372  0.36423824  0.00550589  1
  V  V16  1  0.11640892  0.74763113  0.87029007  1
  V  V17  1  0.50282561  0.12293480  0.12265661  1
  V  V18  1  -0.00456274  0.26214325  0.25344601  1
  V  V19  1  0.49888010  0.62456369  0.62489873  1
  V  V20  1  0.88185596  0.75767506  0.12509524  1
  V  V21  1  0.62667215  0.00045498  0.12150840  1
  V  V22  1  0.13320530  0.88118626  0.25087491  1
  V  V23  1  0.75945697  0.36131691  0.12713932  1
  V  V24  1  -0.00376890  0.11878534  0.62744688  1
  V  V25  1  0.37126880  0.62760739  0.74767178  1
  V  V26  1  0.75582287  0.75485677  -0.00127064  1
  V  V27  1  0.75525749  0.24804254  0.50577077  1
  V  V28  1  0.74906730  0.75123266  0.51197373  1
  V  V29  1  0.50057315  0.37300299  0.37755191  1
  V  V30  1  0.37208488  0.50275717  0.87542450  1
  V  V31  1  0.37447353  0.24994183  0.12553919  1
  V  V32  1  -0.00319949  -0.00216265  0.49940923  1
  V  V33  1  0.89155214  0.75032156  0.62772861  1
  V  V34  1  0.37485448  0.74498343  0.11928062  1
  V  V35  1  0.74703214  0.49771207  0.74966360  1
  V  V36  1  0.36749150  -0.00282702  0.36694172  1
  V  V37  1  0.75664029  -0.00242634  0.25318129  1
  V  V38  1  0.11402069  0.26086983  0.37826320  1
  V  V39  1  0.24607136  0.62991137  0.87973336  1
  V  V40  1  0.49913139  0.73801762  0.24310577  1
  V  V41  1  0.25384381  0.11573756  0.86792648  1
  V  V42  1  0.75518429  0.87732944  0.11954651  1
  V  V43  1  0.86603093  0.12710785  0.75087264  1
  V  V44  1  0.37364345  0.24174150  0.62299330  1
  V  V45  1  0.11239919  0.62936769  0.50638036  1
  V  V46  1  0.61550448  0.12344910  0.50466016  1
  V  V47  1  0.24666947  0.74930201  0.50494422  1
  V  V48  1  0.88244540  0.37144575  0.50004782  1
  V  V49  1  0.75040610  0.37295979  0.62568571  1
  V  V50  1  0.75271241  0.62566924  0.37495603  1
  V  V51  1  0.87928221  0.50228245  0.87833421  1
  V  V52  1  0.24487269  0.25122706  0.50489129  1
  V  V53  1  0.86973456  0.87948732  0.50194977  1
  V  V54  1  0.62579484  0.24716405  0.37750588  1
  V  V55  1  0.50110421  0.24536606  0.25096085  1
  V  V56  1  0.88529795  0.49637084  0.37532824  1
  V  V57  1  0.12029081  0.75182705  0.36797496  1
  V  V58  1  0.12553668  0.12417474  0.00310989  1
  V  V59  1  0.37448705  0.37574829  0.00102184  1
  V  V60  1  0.75309983  0.50103605  0.25018391  1
  V  V61  1  0.62530807  0.74861350  0.37372448  1
  V  V62  1  0.36560093  0.49967599  0.36802203  1
  V  V63  1  -0.00318361  0.25117251  0.74325173  1
  V  V64  1  0.24328520  0.12226343  0.36524297  1
  V  V65  1  -0.00433047  0.87651767  0.87869914  1
  V  V66  1  0.13650638  0.37270109  0.74261148  1
  V  V67  1  0.63379956  0.14024088  -0.01625111  1
  V  V68  1  0.75032231  -0.00843467  0.74330778  1
  V  V69  1  0.12384297  0.50256173  0.62524457  1
  V  V70  1  0.49924585  -0.00122762  -0.00562867  1
  V  V71  1  0.75464594  0.11848311  0.37892808  1
  V  V72  1  0.25064031  0.89202478  0.63194782  1
  V  V73  1  0.01185223  0.63395257  0.12262721  1
  V  V74  1  0.88613516  0.62732851  0.74506991  1
  V  V75  1  0.13443123  0.00710308  0.13127152  1
  V  V76  1  0.50163111  0.24339223  0.74582224  1
  V  V77  1  0.12709964  0.24842992  0.87470707  1
  V  V78  1  -0.00186369  0.13134544  0.12618589  1
  V  V79  1  0.36870817  0.37624178  0.50815323  1
  V  V80  1  0.50253118  0.87150815  0.86941156  1
  V  V81  1  0.62581504  0.62179736  0.49983303  1
  V  V82  1  -0.00613488  0.87769921  0.36745245  1
  V  V83  1  0.11877742  0.88858192  0.74655425  1
  V  V84  1  0.86649088  0.00085918  0.88319398  1
  Zn  Zn85  1  0.37244512  0.87551227  -0.00199001  1
  Zn  Zn86  1  0.49928882  0.50299734  0.00392628  1
  Zn  Zn87  1  0.36981265  0.11888647  0.24582230  1
  Zn  Zn88  1  -0.00546525  -0.00083953  0.00453122  1
  Zn  Zn89  1  0.62294395  0.49460388  0.62962059  1
  Zn  Zn90  1  0.37207228  -0.00728644  0.86476700  1
  Zn  Zn91  1  0.36843293  0.61602367  0.24046315  1
  Zn  Zn92  1  0.50434316  0.74716586  0.74945551  1
  Zn  Zn93  1  0.25145900  0.25119200  -0.00163979  1
  Zn  Zn94  1  0.24144917  0.75498627  0.00051634  1
  Zn  Zn95  1  0.25126375  0.49785735  0.74257704  1
  Zn  Zn96  1  0.49460036  0.00097723  0.50027403  1
  Zn  Zn97  1  0.25672238  0.39185470  0.13845344  1
  Zn  Zn98  1  0.24307460  0.62174783  0.37377341  1
  Zn  Zn99  1  -0.00132213  0.49965084  0.50495814  1
  Zn  Zn100  1  0.66111462  0.32070340  0.80264713  1
  Zn  Zn101  1  0.37254526  0.11589038  0.73769700  1
  Zn  Zn102  1  0.37264614  0.75132990  0.62320360  1
  Zn  Zn103  1  0.37101506  0.87411916  0.49923499  1
  Zn  Zn104  1  0.62891879  0.86584065  0.74291116  1
  Zn  Zn105  1  0.25401870  0.87989860  0.12425070  1
  Zn  Zn106  1  0.62796965  0.74996186  0.87224576  1
  Zn  Zn107  1  0.20097423  0.23154159  0.20700540  1
  Zn  Zn108  1  0.18424565  0.18348384  0.68561887  1
  Zn  Zn109  1  0.19212998  0.68908800  0.19222139  1
  Zn  Zn110  1  0.18216526  0.69096740  0.69083093  1
  Zn  Zn111  1  0.68662538  0.18465740  0.18603622  1
  Zn  Zn112  1  0.68727808  0.18059866  0.68166472  1
  Zn  Zn113  1  0.69186887  0.68732604  0.18496332  1
  Zn  Zn114  1  0.68830505  0.68155277  0.68886498  1
  Zn  Zn115  1  0.31171976  0.31265022  0.31796486  1
  Zn  Zn116  1  0.31534565  0.30711813  0.81204420  1
  Zn  Zn117  1  0.30981894  0.80352238  0.31024819  1
  Zn  Zn118  1  0.31186097  0.81356277  0.81035371  1
  Zn  Zn119  1  0.81346262  0.31113317  0.31711567  1
  Zn  Zn120  1  0.82270769  0.31250305  0.82108830  1
  Zn  Zn121  1  0.81365621  0.81213326  0.31444618  1
  Zn  Zn122  1  0.81517515  0.81342203  0.81006948  1
  Zn  Zn123  1  0.18548825  0.43800005  0.44315525  1
  Zn  Zn124  1  0.19200092  0.43709176  0.93953004  1
  Zn  Zn125  1  0.18684119  0.93673585  0.43967522  1
  Zn  Zn126  1  0.18395008  0.93568197  0.94010038  1
  Zn  Zn127  1  0.69153259  0.43669175  0.43858296  1
  Zn  Zn128  1  0.69742551  0.41900805  0.93621239  1
  Zn  Zn129  1  0.68642328  0.93524647  0.43873961  1
  Zn  Zn130  1  0.68537727  0.94028760  0.93543447  1
  Zn  Zn131  1  0.31343952  0.06504294  0.05617242  1
  Zn  Zn132  1  0.31262533  0.06084256  0.55267477  1
  Zn  Zn133  1  0.30840889  0.56730679  0.06100989  1
  Zn  Zn134  1  0.30466410  0.56306347  0.56075540  1
  Zn  Zn135  1  0.81012028  0.07163232  0.06315028  1
  Zn  Zn136  1  0.81161865  0.06134788  0.56749802  1
  Zn  Zn137  1  0.81652571  0.56033678  0.06298677  1
  Zn  Zn138  1  0.81558494  0.56275387  0.56415645  1
  Zn  Zn139  1  0.44335726  0.43505487  0.18841870  1
  Zn  Zn140  1  0.43440257  0.43710752  0.68694687  1
  Zn  Zn141  1  0.43723116  0.93269367  0.18714036  1
  Zn  Zn142  1  0.43736578  0.93782423  0.68925168  1
  Zn  Zn143  1  0.94007834  0.44310548  0.18499273  1
  Zn  Zn144  1  0.93771027  0.43782698  0.68581726  1
  Zn  Zn145  1  0.94123626  0.94321307  0.18722166  1
  Zn  Zn146  1  0.93647993  0.93610336  0.68722749  1
  Zn  Zn147  1  0.05950649  0.06329451  0.31470401  1
  Zn  Zn148  1  0.05817663  0.06147303  0.81503291  1
  Zn  Zn149  1  0.06080063  0.56814300  0.31299030  1
  Zn  Zn150  1  0.06576817  0.56164554  0.80926588  1
  Zn  Zn151  1  0.56442075  0.05884547  0.31276204  1
  Zn  Zn152  1  0.56236971  0.06263737  0.80993190  1
  Zn  Zn153  1  0.56129199  0.55978002  0.31296469  1
  Zn  Zn154  1  0.56297776  0.56149800  0.81437418  1
  Zn  Zn155  1  0.43173317  0.18538687  0.43513101  1
  Zn  Zn156  1  0.44194536  0.18855800  0.93515067  1
  Zn  Zn157  1  0.43507563  0.68723145  0.43740153  1
  Zn  Zn158  1  0.44019552  0.68723487  0.93740682  1
  Zn  Zn159  1  0.93487093  0.18399010  0.43771142  1
  Zn  Zn160  1  0.93900880  0.18399349  0.93308547  1
  Zn  Zn161  1  0.93758868  0.69252362  0.43705271  1
  Zn  Zn162  1  0.94025946  0.68985484  0.93953455  1
  Zn  Zn163  1  0.06279193  0.31308387  0.06567294  1
  Zn  Zn164  1  0.06170897  0.31125430  0.56614295  1
  Zn  Zn165  1  0.06570944  0.81799790  0.05855197  1
  Zn  Zn166  1  0.06534163  0.81874687  0.56293358  1
  Zn  Zn167  1  0.56134673  0.31629033  0.06133362  1
  Zn  Zn168  1  0.56326072  0.31134705  0.56729739  1
  Zn  Zn169  1  0.56355812  0.81101025  0.05953300  1
  Zn  Zn170  1  0.56091727  0.81111512  0.56125917  1
  O  O171  1  0.11959485  0.12288042  0.11773674  1
  O  O172  1  0.10948093  0.12898761  0.61688740  1
  O  O173  1  0.11532696  0.62141378  0.13222552  1
  O  O174  1  0.12598104  0.61929477  0.61809911  1
  O  O175  1  0.61487641  0.12013010  0.12112083  1
  O  O176  1  0.62668968  0.11162663  0.61266512  1
  O  O177  1  0.63587383  0.61437902  0.11552771  1
  O  O178  1  0.61625771  0.61899076  0.61768865  1
  O  O179  1  0.37931055  0.38165015  0.38382880  1
  O  O180  1  0.37680677  0.38264454  0.88112136  1
  O  O181  1  0.37983123  0.87836345  0.37199882  1
  O  O182  1  0.38737266  0.87316801  0.87622258  1
  O  O183  1  0.86735637  0.38622322  0.38553327  1
  O  O184  1  0.89065270  0.38619163  0.88317893  1
  O  O185  1  0.88392944  0.86760391  0.38665881  1
  O  O186  1  0.88200912  0.88918011  0.86717073  1
  O  O187  1  0.25450410  0.00859008  0.37832726  1
  O  O188  1  0.24932561  0.01334406  0.87915080  1
  O  O189  1  0.26292355  0.49664254  0.37859105  1
  O  O190  1  0.25850452  0.50728785  0.87262970  1
  O  O191  1  0.74292985  0.00633623  0.36541310  1
  O  O192  1  0.76115133  -0.00220588  0.86653133  1
  O  O193  1  0.75815574  0.50681434  0.36794704  1
  O  O194  1  0.75943546  0.50535999  0.87004505  1
  O  O195  1  0.23296048  0.50658464  0.12414685  1
  O  O196  1  0.23369649  0.49981858  0.62487686  1
  O  O197  1  0.23831481  1.00487508  0.12259081  1
  O  O198  1  0.24931304  0.99018811  0.62075847  1
  O  O199  1  0.74592497  0.49614943  0.13653794  1
  O  O200  1  0.75055434  0.49391513  0.63306189  1
  O  O201  1  0.74728212  0.99528081  0.13067506  1
  O  O202  1  0.73832101  1.00178269  0.63264175  1
  O  O203  1  -0.01042459  0.36154101  0.24859313  1
  O  O204  1  0.00518234  0.36702711  0.75646275  1
  O  O205  1  0.00552606  0.88371113  0.26367322  1
  O  O206  1  0.01153954  0.88016912  0.75702939  1
  O  O207  1  0.50912516  0.36606340  0.25700090  1
  O  O208  1  0.49048790  0.36400728  0.75549401  1
  O  O209  1  0.50682016  0.86626500  0.25886906  1
  O  O210  1  0.50517844  0.86932391  0.75547697  1
  O  O211  1  0.50238684  0.12868918  0.24097486  1
  O  O212  1  0.49446612  0.14017211  0.75426145  1
  O  O213  1  0.49677060  0.63545094  0.25400245  1
  O  O214  1  0.49238937  0.62215422  0.74083898  1
  O  O215  1  0.98947321  0.12914350  0.24663231  1
  O  O216  1  0.99333062  0.12944411  0.74416449  1
  O  O217  1  0.98886264  0.62465422  0.24046577  1
  O  O218  1  0.98512884  0.62139712  0.75457723  1
  O  O219  1  0.37945434  0.25906403  0.00637976  1
  O  O220  1  0.36550966  0.25568392  0.50235611  1
  O  O221  1  0.37793946  0.75057668  0.01125919  1
  O  O222  1  0.36231951  0.75205829  0.49968041  1
  O  O223  1  0.88315497  0.26487124  -0.00817595  1
  O  O224  1  0.86529112  0.25687197  0.49372057  1
  O  O225  1  0.86372368  0.74585023  0.00943676  1
  O  O226  1  0.86895365  0.75472475  0.51048938  1
  O  O227  1  0.12558884  0.24130025  0.49504135  1
  O  O228  1  0.12458191  0.24204306  0.99253665  1
  O  O229  1  0.12733278  0.74597126  0.49559001  1
  O  O230  1  0.12468190  0.75864167  0.97797131  1
  O  O231  1  0.63087612  0.24075352  0.49735261  1
  O  O232  1  0.61661635  0.23850560  1.00038922  1
  O  O233  1  0.63203439  0.74347317  0.49458377  1
  O  O234  1  0.63962711  0.74024506  1.00117857  1
  O  O235  1  0.49393415  0.24321751  0.12905566  1
  O  O236  1  0.48889203  0.25468653  0.63550265  1
  O  O237  1  0.49136834  0.75407051  0.13230168  1
  O  O238  1  0.49616523  0.73559166  0.62207881  1
  O  O239  1  1.00799785  0.23914640  0.13781003  1
  O  O240  1  1.00024109  0.24318187  0.63855806  1
  O  O241  1  0.99407727  0.74599369  0.11687237  1
  O  O242  1  0.98994337  0.75096625  0.62159759  1
  O  O243  1  0.00743863  0.24688848  0.37329780  1
  O  O244  1  0.01267719  0.25156450  0.86610161  1
  O  O245  1  0.00935866  0.76413015  0.38172585  1
  O  O246  1  0.00669041  0.75803869  0.87376933  1
  O  O247  1  0.50483877  0.25342779  0.37158804  1
  O  O248  1  0.49245126  0.26026747  0.85870975  1
  O  O249  1  0.50455319  0.75403195  0.36712477  1
  O  O250  1  0.50561414  0.75697549  0.87401192  1
  O  O251  1  0.23824341  0.12996827  0.49333841  1
  O  O252  1  0.24068289  0.12810938  0.98816287  1
  O  O253  1  0.23797724  0.63364019  0.49399102  1
  O  O254  1  0.25153132  0.63087262  0.98341071  1
  O  O255  1  0.74625609  0.12949642  0.49498177  1
  O  O256  1  0.73258748  0.12700700  1.00350019  1
  O  O257  1  0.74656187  0.63076814  0.49443521  1
  O  O258  1  0.74788812  0.62917744  0.99266174  1
  O  O259  1  0.26293716  0.37273885  0.00638383  1
  O  O260  1  0.25719775  0.36409671  0.49595762  1
  O  O261  1  0.25353966  0.87390321  0.00412482  1
  O  O262  1  0.24425315  0.86917323  0.51525400  1
  O  O263  1  0.76855026  0.38853263  0.02057935  1
  O  O264  1  0.75783859  0.36565648  0.50345640  1
  O  O265  1  0.74549459  0.86723235  0.00677389  1
  O  O266  1  0.75909845  0.86390205  0.49252836  1
  O  O267  1  0.12043335  0.49900519  0.24229189  1
  O  O268  1  0.12714166  0.48964470  0.74403388  1
  O  O269  1  0.12063137  0.99523303  0.24304541  1
  O  O270  1  0.12502962  0.98774789  0.75466934  1
  O  O271  1  0.63294523  0.49461689  0.24609350  1
  O  O272  1  0.64193030  0.50563376  0.75001037  1
  O  O273  1  0.63568634  0.99496658  0.24208008  1
  O  O274  1  0.63064969  1.00136093  0.73673517  1
  O  O275  1  0.37907441  0.00115673  0.26142087  1
  O  O276  1  0.37604060  0.00538092  0.75214654  1
  O  O277  1  0.38049507  0.49633376  0.26350896  1
  O  O278  1  0.37088615  0.50932192  0.75550074  1
  O  O279  1  0.86302145  0.00877963  0.24761603  1
  O  O280  1  0.86694571  0.00642191  0.75322774  1
  O  O281  1  0.87141434  0.50835395  0.25589047  1
  O  O282  1  0.86828106  0.50606857  0.75570495  1
  O  O283  1  0.12335703  0.35940483  0.38443249  1
  O  O284  1  0.12390951  0.36690517  0.87023483  1
  O  O285  1  0.11692896  0.87323323  0.36907709  1
  O  O286  1  0.11735263  0.87231041  0.86447337  1
  O  O287  1  0.62252170  0.36788237  0.37073952  1
  O  O288  1  0.59984585  0.39553955  0.87311275  1
  O  O289  1  0.61834062  0.86794518  0.36795315  1
  O  O290  1  0.61475718  0.87352214  0.87232215  1
  O  O291  1  0.38878690  0.12797772  0.12389003  1
  O  O292  1  0.37203943  0.13722244  0.61631022  1
  O  O293  1  0.37621508  0.63766185  0.12374723  1
  O  O294  1  0.37970914  0.62296530  0.63065857  1
  O  O295  1  0.88327291  0.12372961  0.13547766  1
  O  O296  1  0.88626541  0.12323757  0.63384730  1
  O  O297  1  0.88260718  0.63477617  0.13132902  1
  O  O298  1  0.87307235  0.63834120  0.63090541  1
  O  O299  1  0.27078050  0.23387370  0.11504313  1
  O  O300  1  0.25298491  0.24480674  0.61220135  1
  O  O301  1  0.26199472  0.75232432  0.12149890  1
  O  O302  1  0.24772861  0.75324485  0.61467533  1
  O  O303  1  0.75114863  0.26197859  0.13287973  1
  O  O304  1  0.74800021  0.25435057  0.61319316  1
  O  O305  1  0.75969501  0.75760440  0.11883298  1
  O  O306  1  0.75283759  0.74508096  0.61358120  1
  O  O307  1  0.23774613  0.24160669  0.38752596  1
  O  O308  1  0.23896625  0.24335576  0.87657681  1
  O  O309  1  0.23651767  0.75765934  0.38916845  1
  O  O310  1  0.24008245  0.74530523  0.87371470  1
  O  O311  1  0.74328249  0.24140983  0.38493599  1
  O  O312  1  0.73375791  0.31544205  0.88625663  1
  O  O313  1  0.74424101  0.74311661  0.38139963  1
  O  O314  1  0.75360244  0.74262753  0.88238863  1
  O  O315  1  0.00621981  0.12639464  0.00895393  1
  O  O316  1  0.00112883  0.11798474  0.50672943  1
  O  O317  1  -0.00331972  0.61833140  0.01120756  1
  O  O318  1  0.00907991  0.62518047  0.49823515  1
  O  O319  1  0.50736780  0.11863637  0.00457734  1
  O  O320  1  0.51249039  0.12312910  0.48997627  1
  O  O321  1  0.52000432  0.62145594  -0.00765810  1
  O  O322  1  0.50350941  0.61846351  0.50527765  1
  O  O323  1  0.49266098  0.37793888  0.49606784  1
  O  O324  1  0.48854822  0.37948141  0.99250588  1
  O  O325  1  0.49777888  0.87160103  0.48439459  1
  O  O326  1  0.50184682  0.88356641  0.99195459  1
  O  O327  1  0.98587329  0.37290944  0.50447222  1
  O  O328  1  0.99783056  0.38334907  0.99708285  1
  O  O329  1  0.99367718  0.88219792  0.49491995  1
  O  O330  1  1.00217618  0.88145871  0.98404106  1
  O  O331  1  0.49253022  0.49123435  0.38082425  1
  O  O332  1  0.48336465  0.49825009  0.87386283  1
  O  O333  1  0.49446602  0.98923873  0.37458343  1
  O  O334  1  0.50124184  0.99204703  0.88025718  1
  O  O335  1  0.98806309  0.50306158  0.37715988  1
  O  O336  1  1.00010609  0.49755336  0.88246308  1
  O  O337  1  0.99917590  0.99396221  0.38921675  1
  O  O338  1  0.98647495  0.99474471  0.87684081  1
  O  O339  1  0.00818002  0.01425045  0.12426128  1
  O  O340  1  -0.00392613  0.00546798  0.61324797  1
  O  O341  1  0.01209956  0.51010000  0.12023192  1
  O  O342  1  0.01488100  0.49553568  0.62368880  1
  O  O343  1  0.50505465  0.00569419  0.11872745  1
  O  O344  1  0.51366943  -0.00402437  0.61927801  1
  O  O345  1  0.51943280  0.49350718  0.12464988  1
  O  O346  1  0.49984282  0.50740696  0.61820838  1
  O  O347  1  0.24380078  0.33717130  0.23526584  1
  O  O348  1  0.23935452  0.37328257  0.75422807  1
  O  O349  1  0.23634841  0.87318913  0.24846320  1
  O  O350  1  0.24121247  0.87352092  0.73757298  1
  O  O351  1  0.74818597  0.38121907  0.24690151  1
  O  O352  1  0.75403943  0.38088844  0.73951364  1
  O  O353  1  0.74717798  0.88137326  0.24457291  1
  O  O354  1  0.74756546  0.88745795  0.75190472  1
  O  O355  1  0.24762747  0.13500161  0.26311579  1
  O  O356  1  0.24824025  0.13029474  0.76452504  1
  O  O357  1  0.25874550  0.63643556  0.26363660  1
  O  O358  1  0.25628358  0.62385828  0.75831186  1
  O  O359  1  0.75435194  0.11841740  0.25638867  1
  O  O360  1  0.76148156  0.11873192  0.74523832  1
  O  O361  1  0.76087026  0.62026222  0.25396357  1
  O  O362  1  0.76004366  0.61784068  0.75810490  1
  O  O363  1  0.36219265  0.11663133  0.37315608  1
  O  O364  1  0.35858795  0.12763621  0.87729049  1
  O  O365  1  0.37708964  0.60483090  0.37825312  1
  O  O366  1  0.36912621  0.62071528  0.86821099  1
  O  O367  1  0.86093200  0.12348715  0.36974251  1
  O  O368  1  0.87960419  0.11091462  0.86494081  1
  O  O369  1  0.87258763  0.62221313  0.36747922  1
  O  O370  1  0.86809508  0.62247436  0.87049021  1
  O  O371  1  0.12496614  0.39262101  0.12341148  1
  O  O372  1  0.12301764  0.37983864  0.63452116  1
  O  O373  1  0.12255390  0.88741543  0.13427699  1
  O  O374  1  0.13295140  0.87396678  0.63848394  1
  O  O375  1  0.63585644  0.37955490  0.13071987  1
  O  O376  1  0.64219716  0.37881130  0.61619355  1
  O  O377  1  0.63213820  0.88008418  0.12995497  1
  O  O378  1  0.62546259  0.88694377  0.62132675  1
  O  O379  1  0.10778287  0.24135720  0.27105457  1
  O  O380  1  0.11874903  0.25533049  0.75492402  1
  O  O381  1  0.12439447  0.76056959  0.26186325  1
  O  O382  1  0.12624095  0.76350241  0.76346108  1
  O  O383  1  0.62102975  0.25270695  0.25711239  1
  O  O384  1  0.60957716  0.24826989  0.73626049  1
  O  O385  1  0.61949997  0.75273339  0.25204447  1
  O  O386  1  0.62451704  0.74839364  0.75283079  1
  O  O387  1  0.38606397  0.24407301  0.24343986  1
  O  O388  1  0.37912675  0.24417223  0.73842049  1
  O  O389  1  0.38459890  0.75003887  0.23855700  1
  O  O390  1  0.37716068  0.73698643  0.74664677  1
  O  O391  1  0.88027091  0.23675316  0.25963593  1
  O  O392  1  0.88462896  0.24040658  0.76100314  1
  O  O393  1  0.87007684  0.74205605  0.24005326  1
  O  O394  1  0.87037216  0.74411073  0.73465818  1
  O  O395  1  0.37791039  0.49191042  0.49427513  1
  O  O396  1  0.37585311  0.49574860  0.99425895  1
  O  O397  1  0.37740468  0.99436550  0.48481107  1
  O  O398  1  0.38953476  1.00086531  0.99522556  1
  O  O399  1  0.87584425  0.49347711  0.49214922  1
  O  O400  1  0.88879938  0.49629276  0.99569158  1
  O  O401  1  0.87752764  0.98670368  0.50554971  1
  O  O402  1  0.87199698  1.00699379  0.98636722  1
  O  O403  1  0.12038905  0.01222884  0.00641709  1
  O  O404  1  0.11551467  0.01009789  0.49828410  1
  O  O405  1  0.11553189  0.49917059  0.00156287  1
  O  O406  1  0.12138064  0.51005453  0.50518674  1
  O  O407  1  0.61600639  0.00776821  0.00472117  1
  O  O408  1  0.62439402  0.00514452  0.50790695  1
  O  O409  1  0.63177962  0.50382932  0.00838321  1
  O  O410  1  0.61736264  0.50542534  0.49745380  1
  O  O411  1  0.37688916  0.36816388  0.11933018  1
  O  O412  1  0.37519673  0.36618621  0.61264600  1
  O  O413  1  0.37395297  0.86312966  0.12266008  1
  O  O414  1  0.36109058  0.87267719  0.62343458  1
  O  O415  1  0.87236844  0.37690725  0.11937275  1
  O  O416  1  0.86262974  0.38020540  0.61394937  1
  O  O417  1  0.87428525  0.86548054  0.13059138  1
  O  O418  1  0.87714515  0.86099009  0.61744308  1
  O  O419  1  0.12704459  0.13032911  0.38533228  1
  O  O420  1  0.12996698  0.13023666  0.88027107  1
  O  O421  1  0.12121719  0.63667534  0.38243737  1
  O  O422  1  0.12984741  0.63894069  0.86594722  1
  O  O423  1  0.63562676  0.12704750  0.38126565  1
  O  O424  1  0.62338352  0.12616203  0.88421237  1
  O  O425  1  0.63052522  0.62926690  0.37948080  1
  O  O426  1  0.64018110  0.62260681  0.88130929  1
