# generated using pymatgen
data_V85Zn86O256
_symmetry_space_group_name_H-M   'P 1'
_cell_length_a   16.95804145
_cell_length_b   16.97480516
_cell_length_c   16.96602509
_cell_angle_alpha   89.98002302
_cell_angle_beta   90.02336545
_cell_angle_gamma   90.08362641
_symmetry_Int_Tables_number   1
_chemical_formula_structural   V85Zn86O256
_chemical_formula_sum   'V85 Zn86 O256'
_cell_volume   4883.82473916
_cell_formula_units_Z   1
loop_
 _symmetry_equiv_pos_site_id
 _symmetry_equiv_pos_as_xyz
  1  'x, y, z'
loop_
 _atom_site_type_symbol
 _atom_site_label
 _atom_site_symmetry_multiplicity
 _atom_site_fract_x
 _atom_site_fract_y
 _atom_site_fract_z
 _atom_site_occupancy
  V  V0  1  0.62348086  0.12786298  -0.00225198  1
  V  V1  1  0.00003317  0.00096303  0.50481945  1
  V  V2  1  0.11952697  -0.00560841  0.12525375  1
  V  V3  1  0.74753392  0.25575746  -0.00192961  1
  V  V4  1  0.87523097  0.37825931  0.00375140  1
  V  V5  1  0.24670905  0.38322573  0.61954350  1
  V  V6  1  0.73778654  0.50035855  0.74812909  1
  V  V7  1  0.50654757  0.61011780  0.12669957  1
  V  V8  1  0.50055605  0.00336701  0.50260973  1
  V  V9  1  0.12448765  0.88106560  0.75379292  1
  V  V10  1  0.00042352  0.24990145  0.25096327  1
  V  V11  1  0.25050355  0.87630920  0.63120967  1
  V  V12  1  0.75180129  0.73550319  0.50230582  1
  V  V13  1  0.00642083  0.87504565  0.37150318  1
  V  V14  1  0.37788656  0.36016247  0.48936971  1
  V  V15  1  0.13109898  0.75473340  0.88230487  1
  V  V16  1  0.87506743  0.25260419  0.12550583  1
  V  V17  1  0.50090531  0.87586760  0.37319547  1
  V  V18  1  0.38823635  0.63027442  0.75402629  1
  V  V19  1  0.49714203  -0.00127839  -0.00157550  1
  V  V20  1  -0.00171662  0.12123249  0.12038760  1
  V  V21  1  0.38436084  0.49530922  0.37944300  1
  V  V22  1  0.37181568  0.62868351  0.24357309  1
  V  V23  1  0.62681747  0.12511724  0.50105914  1
  V  V24  1  0.24902390  0.11926280  0.86457906  1
  V  V25  1  0.87271352  0.26172711  0.62246222  1
  V  V26  1  0.61693285  0.26658543  0.86913392  1
  V  V27  1  0.24899327  0.25080431  -0.00206008  1
  V  V28  1  0.49657139  0.75422130  0.23840235  1
  V  V29  1  0.24882146  0.49957089  0.25043727  1
  V  V30  1  0.62096340  0.25969583  0.37521941  1
  V  V31  1  0.12521282  0.50061859  0.12383920  1
  V  V32  1  0.50126473  0.12515805  0.12465402  1
  V  V33  1  0.63149518  0.74318041  0.37500187  1
  V  V34  1  0.87120398  0.51046543  0.37497317  1
  V  V35  1  -0.00315267  0.88049171  0.88823656  1
  V  V36  1  0.73222905  0.37878397  0.62707587  1
  V  V37  1  0.24560142  0.12718487  0.37678609  1
  V  V38  1  -0.00224682  0.62783875  0.13079371  1
  V  V39  1  0.24867346  0.74914914  0.50131796  1
  V  V40  1  0.64042098  0.74742548  0.87617826  1
  V  V41  1  0.13673380  0.63149016  0.00625440  1
  V  V42  1  0.12370627  0.37452656  0.25100598  1
  V  V43  1  0.87218226  0.00054784  0.37738735  1
  V  V44  1  0.00061254  0.74844375  0.75006938  1
  V  V45  1  -0.00018397  0.12766376  0.62626839  1
  V  V46  1  0.87348642  0.75283357  0.11153362  1
  V  V47  1  0.75422720  0.87353703  0.10540711  1
  V  V48  1  0.75152728  -0.00209966  0.74887473  1
  V  V49  1  0.37078455  -0.00386644  0.87183841  1
  V  V50  1  0.37439918  0.25013625  0.12137977  1
  V  V51  1  0.87174475  0.87225960  0.50456427  1
  V  V52  1  0.87735676  -0.00012473  0.88798294  1
  V  V53  1  0.62537374  0.00002414  0.12464593  1
  V  V54  1  0.00113392  0.49494911  0.50880668  1
  V  V55  1  0.62163840  0.00242866  0.62820300  1
  V  V56  1  0.49941802  0.86428070  0.86917353  1
  V  V57  1  0.25516907  0.62745454  0.87654137  1
  V  V58  1  0.87431129  0.50073423  0.87119998  1
  V  V59  1  0.50047927  0.49151219  -0.01120104  1
  V  V60  1  0.37531282  0.87392484  0.50001279  1
  V  V61  1  0.12108933  0.11843928  -0.00085636  1
  V  V62  1  0.87419370  0.12564425  0.25202693  1
  V  V63  1  0.00495556  0.37580346  0.87472696  1
  V  V64  1  -0.00639547  0.37741370  0.37694579  1
  V  V65  1  0.24750576  0.62300987  0.37853561  1
  V  V66  1  0.12951373  0.00236646  0.62956302  1
  V  V67  1  0.00452911  0.50179419  0.00120539  1
  V  V68  1  0.75174735  0.26014969  0.49985995  1
  V  V69  1  0.39004867  0.74909141  0.62868012  1
  V  V70  1  0.74789320  0.12818036  0.87389809  1
  V  V71  1  0.37104457  0.23948381  0.61691908  1
  V  V72  1  0.60316755  0.62298348  0.50985135  1
  V  V73  1  0.37343243  0.86111596  0.00430733  1
  V  V74  1  0.50414608  0.26096398  0.25220232  1
  V  V75  1  0.87358762  0.12726440  0.74979538  1
  V  V76  1  0.25091128  0.86377009  0.12388393  1
  V  V77  1  0.37605340  0.12226433  0.24827028  1
  V  V78  1  0.63341867  0.87533132  0.25057574  1
  V  V79  1  0.12899670  0.61866163  0.51288255  1
  V  V80  1  0.12680960  0.24994643  0.87005931  1
  V  V81  1  0.73834045  0.37968193  0.13645706  1
  V  V82  1  0.38526683  0.11760881  0.74348646  1
  V  V83  1  0.24471599  -0.00409881  0.24688935  1
  V  V84  1  0.00291808  0.25737001  0.74788406  1
  Zn  Zn85  1  0.75009047  0.12818858  0.37616631  1
  Zn  Zn86  1  0.00242518  0.75795214  0.24693575  1
  Zn  Zn87  1  0.87548282  0.62308190  0.74791214  1
  Zn  Zn88  1  0.40654536  0.45371549  0.83493772  1
  Zn  Zn89  1  0.49898278  0.25836748  0.74808481  1
  Zn  Zn90  1  0.62042971  0.86699626  0.74514244  1
  Zn  Zn91  1  0.63238939  0.62646104  0.00706612  1
  Zn  Zn92  1  0.12871997  0.25487030  0.38190517  1
  Zn  Zn93  1  0.12635578  0.75452868  0.37353495  1
  Zn  Zn94  1  0.24350427  0.51360079  0.72641015  1
  Zn  Zn95  1  0.73228282  0.51864556  0.24208046  1
  Zn  Zn96  1  0.24860483  0.37341191  0.12609498  1
  Zn  Zn97  1  0.75040108  0.00096254  0.24978331  1
  Zn  Zn98  1  0.75606120  0.62598457  0.88093355  1
  Zn  Zn99  1  0.00418909  0.61870203  0.63217589  1
  Zn  Zn100  1  0.87394760  0.74457209  0.62896486  1
  Zn  Zn101  1  0.86504468  0.63583155  0.25523515  1
  Zn  Zn102  1  0.13259341  0.12886169  0.50548875  1
  Zn  Zn103  1  0.37071044  0.37854863  -0.00791985  1
  Zn  Zn104  1  0.37321927  -0.00209706  0.37369394  1
  Zn  Zn105  1  0.74937428  0.87216935  0.62583327  1
  Zn  Zn106  1  0.59554765  0.50271543  0.62407423  1
  Zn  Zn107  1  0.18649698  0.18447090  0.18887650  1
  Zn  Zn108  1  0.19285976  0.19217963  0.68643489  1
  Zn  Zn109  1  0.18004356  0.69126069  0.19663104  1
  Zn  Zn110  1  0.19047777  0.69474529  0.69050519  1
  Zn  Zn111  1  0.68845914  0.19275364  0.18843718  1
  Zn  Zn112  1  0.68276946  0.18797348  0.68776323  1
  Zn  Zn113  1  0.69019873  0.69371434  0.18552690  1
  Zn  Zn114  1  0.68685211  0.68529255  0.69096488  1
  Zn  Zn115  1  0.31271405  0.30966759  0.30902087  1
  Zn  Zn116  1  0.33012848  0.31507310  0.79670879  1
  Zn  Zn117  1  0.31132477  0.81266677  0.31088015  1
  Zn  Zn118  1  0.31312943  0.80956780  0.81229244  1
  Zn  Zn119  1  0.81341925  0.31434781  0.31803014  1
  Zn  Zn120  1  0.80939044  0.31800537  0.81014914  1
  Zn  Zn121  1  0.81611660  0.80663849  0.31238071  1
  Zn  Zn122  1  0.81642806  0.81625144  0.81416226  1
  Zn  Zn123  1  0.19072418  0.43653943  0.44238271  1
  Zn  Zn124  1  0.21179777  0.43066598  0.87466511  1
  Zn  Zn125  1  0.18859532  0.94337983  0.44154489  1
  Zn  Zn126  1  0.18937920  0.93650643  0.94314164  1
  Zn  Zn127  1  0.66134343  0.46493886  0.40329015  1
  Zn  Zn128  1  0.68783886  0.44730044  0.94462927  1
  Zn  Zn129  1  0.68992789  0.93483108  0.43909656  1
  Zn  Zn130  1  0.68240769  0.94116197  0.93137817  1
  Zn  Zn131  1  0.30873295  0.06005279  0.05838175  1
  Zn  Zn132  1  0.31308890  0.05848309  0.56065481  1
  Zn  Zn133  1  0.31405941  0.56243735  0.06077251  1
  Zn  Zn134  1  0.38088113  0.53939915  0.58516163  1
  Zn  Zn135  1  0.80739220  0.06526539  0.06459070  1
  Zn  Zn136  1  0.81076184  0.06678696  0.56435933  1
  Zn  Zn137  1  0.81194036  0.56367913  0.06540298  1
  Zn  Zn138  1  0.81811753  0.55952590  0.56568525  1
  Zn  Zn139  1  0.43169515  0.43678041  0.18767448  1
  Zn  Zn140  1  0.44761445  0.41047959  0.67271293  1
  Zn  Zn141  1  0.43577470  0.93706035  0.18556632  1
  Zn  Zn142  1  0.43735421  0.93713460  0.68779756  1
  Zn  Zn143  1  0.93362686  0.44252820  0.19201470  1
  Zn  Zn144  1  0.93505253  0.43646034  0.68798171  1
  Zn  Zn145  1  0.93344362  0.93781758  0.18602593  1
  Zn  Zn146  1  0.93792874  0.93580239  0.69249488  1
  Zn  Zn147  1  0.06118212  0.05835189  0.31003312  1
  Zn  Zn148  1  0.05895999  0.06338266  0.81197433  1
  Zn  Zn149  1  0.06217849  0.56380186  0.31570448  1
  Zn  Zn150  1  0.07374746  0.56092880  0.81401794  1
  Zn  Zn151  1  0.56374784  0.06530168  0.31429237  1
  Zn  Zn152  1  0.56224721  0.06073517  0.81499499  1
  Zn  Zn153  1  0.56243783  0.56817766  0.30769034  1
  Zn  Zn154  1  0.56629670  0.56725445  0.81246685  1
  Zn  Zn155  1  0.43813775  0.18291123  0.43266134  1
  Zn  Zn156  1  0.43625191  0.18629442  0.93447734  1
  Zn  Zn157  1  0.43379400  0.69106419  0.43072021  1
  Zn  Zn158  1  0.44230585  0.68495600  0.94218932  1
  Zn  Zn159  1  0.94149007  0.19046565  0.44034523  1
  Zn  Zn160  1  0.93718097  0.18793059  0.93721503  1
  Zn  Zn161  1  0.94209440  0.68601248  0.44466199  1
  Zn  Zn162  1  0.94443559  0.68679214  0.93780693  1
  Zn  Zn163  1  0.06428453  0.31010063  0.06139973  1
  Zn  Zn164  1  0.06955134  0.31313584  0.56048538  1
  Zn  Zn165  1  0.06301465  0.81334686  0.06539157  1
  Zn  Zn166  1  0.06355570  0.81215453  0.56276570  1
  Zn  Zn167  1  0.56062558  0.31557818  0.05985124  1
  Zn  Zn168  1  0.55485421  0.31014589  0.55750484  1
  Zn  Zn169  1  0.56493787  0.81229749  0.05843026  1
  Zn  Zn170  1  0.56858056  0.81644328  0.55936611  1
  O  O171  1  0.11905392  0.11756327  0.11785375  1
  O  O172  1  0.11995443  0.11722513  0.62853322  1
  O  O173  1  0.11927321  0.62212114  0.12262999  1
  O  O174  1  0.12861642  0.62814515  0.61609680  1
  O  O175  1  0.62212994  0.12119349  0.11848507  1
  O  O176  1  0.62717065  0.11426795  0.61374177  1
  O  O177  1  0.60829714  0.63503311  0.12591836  1
  O  O178  1  0.62156071  0.62553487  0.61272458  1
  O  O179  1  0.36744702  0.38300943  0.37776214  1
  O  O180  1  0.32507976  0.38797257  0.88370709  1
  O  O181  1  0.38349153  0.87607399  0.38088097  1
  O  O182  1  0.38183541  0.87806943  0.88085515  1
  O  O183  1  0.88928444  0.38353426  0.37204745  1
  O  O184  1  0.88084743  0.38309790  0.88334620  1
  O  O185  1  0.88179045  0.88256156  0.38728384  1
  O  O186  1  0.88447895  0.88802674  0.87273109  1
  O  O187  1  0.25122251  0.00413424  0.36359103  1
  O  O188  1  0.25931856  0.00590199  0.88152934  1
  O  O189  1  0.25381870  0.50816530  0.36839493  1
  O  O190  1  0.26348493  0.53201270  0.90394932  1
  O  O191  1  0.76268388  0.00178411  0.37553534  1
  O  O192  1  0.75493415  0.00727074  0.86713800  1
  O  O193  1  0.77521989  0.49431621  0.39451834  1
  O  O194  1  0.75853334  0.49408322  0.86470246  1
  O  O195  1  0.24263205  0.49844422  0.13156075  1
  O  O196  1  0.26775821  0.48787028  0.61519099  1
  O  O197  1  0.24013883  0.99700354  0.13035177  1
  O  O198  1  0.23698344  0.99205884  0.61982668  1
  O  O199  1  0.75637342  0.48401170  0.13193950  1
  O  O200  1  0.75258396  0.49031121  0.63230113  1
  O  O201  1  0.74446124  0.98951016  0.12757049  1
  O  O202  1  0.74344249  1.00035431  0.63371040  1
  O  O203  1  0.00556607  0.37183466  0.25602890  1
  O  O204  1  -0.00335105  0.36371407  0.75646339  1
  O  O205  1  -0.00555975  0.88301824  0.26980565  1
  O  O206  1  0.00847804  0.86930571  0.75848484  1
  O  O207  1  0.49305354  0.35910858  0.24518056  1
  O  O208  1  0.44811409  0.36367476  0.77168675  1
  O  O209  1  0.50729390  0.87195015  0.25388392  1
  O  O210  1  0.50090590  0.88112842  0.76641367  1
  O  O211  1  0.49161009  0.12659580  0.24273567  1
  O  O212  1  0.48691117  0.12314539  0.75455647  1
  O  O213  1  0.49429071  0.63390920  0.24214413  1
  O  O214  1  0.48684422  0.62904913  0.75717246  1
  O  O215  1  0.99020051  0.12775745  0.24430696  1
  O  O216  1  0.99407274  0.13644387  0.74501712  1
  O  O217  1  0.99979006  0.62323773  0.23690418  1
  O  O218  1  1.00712859  0.63390705  0.75301777  1
  O  O219  1  0.36754915  0.24999803  0.00434644  1
  O  O220  1  0.37438007  0.25133097  0.49792165  1
  O  O221  1  0.38102129  0.76261378  0.00229333  1
  O  O222  1  0.36738564  0.75529474  0.50605061  1
  O  O223  1  0.87040097  0.26224240  0.00229763  1
  O  O224  1  0.86465535  0.24194750  0.51123207  1
  O  O225  1  0.88189773  0.74912475  0.01158787  1
  O  O226  1  0.86904457  0.75659030  0.50237285  1
  O  O227  1  0.10801994  0.23644755  0.49117929  1
  O  O228  1  0.12919897  0.23581818  0.99474880  1
  O  O229  1  0.13266856  0.74347862  0.49687741  1
  O  O230  1  0.11819619  0.74338984  0.99287897  1
  O  O231  1  0.62931754  0.23974893  0.49855636  1
  O  O232  1  0.62845958  0.24669644  0.99056998  1
  O  O233  1  0.63207659  0.74312930  0.49503857  1
  O  O234  1  0.61779133  0.74825110  0.98165230  1
  O  O235  1  0.49364543  0.24331920  0.12796393  1
  O  O236  1  0.48130062  0.25541008  0.62890694  1
  O  O237  1  0.50149032  0.75174170  0.13656160  1
  O  O238  1  0.48804446  0.76337969  0.62107160  1
  O  O239  1  0.99351596  0.24397442  0.13112725  1
  O  O240  1  0.99240327  0.25027498  0.63134666  1
  O  O241  1  0.99334795  0.74518529  0.12584455  1
  O  O242  1  1.00323104  0.75228218  0.64104153  1
  O  O243  1  -0.00264990  0.25935233  0.36642240  1
  O  O244  1  0.00646262  0.25339599  0.86728815  1
  O  O245  1  -0.00180284  0.76905119  0.38237733  1
  O  O246  1  0.00972371  0.75832145  0.86763814  1
  O  O247  1  0.50820158  0.24082859  0.36319149  1
  O  O248  1  0.51442110  0.24719343  0.87624945  1
  O  O249  1  0.50633569  0.76262162  0.36794963  1
  O  O250  1  0.50220731  0.76350407  0.87748108  1
  O  O251  1  0.25025337  0.11366479  0.48012856  1
  O  O252  1  0.24209168  0.13111866  0.99122535  1
  O  O253  1  0.24478362  0.63466625  0.49234589  1
  O  O254  1  0.24043721  0.63671423  1.00800154  1
  O  O255  1  0.74145728  0.13355639  0.49996192  1
  O  O256  1  0.74396699  0.13589998  0.99516524  1
  O  O257  1  0.74867103  0.63458885  0.50386743  1
  O  O258  1  0.74347203  0.60924290  0.99295807  1
  O  O259  1  0.24041765  0.35318972  0.00944720  1
  O  O260  1  0.26178678  0.37252329  0.50283374  1
  O  O261  1  0.25858420  0.87690383  0.01437629  1
  O  O262  1  0.25323630  0.87042175  0.50836768  1
  O  O263  1  0.75871101  0.37470482  0.00908380  1
  O  O264  1  0.74876061  0.36086050  0.51129508  1
  O  O265  1  0.74647585  0.88177417  0.00791771  1
  O  O266  1  0.75900821  0.86799921  0.50309828  1
  O  O267  1  0.12874134  0.49374169  0.24472764  1
  O  O268  1  0.15396542  0.48818869  0.79025250  1
  O  O269  1  0.13399474  1.00241956  0.23919564  1
  O  O270  1  0.12012925  0.98917929  0.74471419  1
  O  O271  1  0.63771054  0.49042551  0.29440556  1
  O  O272  1  0.63353760  0.50500508  0.74337710  1
  O  O273  1  0.62612035  0.99244508  0.24400251  1
  O  O274  1  0.63192422  1.00120169  0.74271803  1
  O  O275  1  0.36917975  0.01075390  0.24725673  1
  O  O276  1  0.37561595  0.00154392  0.76266005  1
  O  O277  1  0.36659776  0.50559361  0.25718403  1
  O  O278  1  0.36356690  0.52668025  0.75609421  1
  O  O279  1  0.87358340  0.00793640  0.25946181  1
  O  O280  1  0.86752783  0.00824495  0.75401643  1
  O  O281  1  0.87212434  0.50452737  0.26640929  1
  O  O282  1  0.86963414  0.49886677  0.75917326  1
  O  O283  1  0.11743292  0.37624723  0.36368490  1
  O  O284  1  0.12150888  0.35465188  0.88499368  1
  O  O285  1  0.10862214  0.88102460  0.38510515  1
  O  O286  1  0.12135947  0.87437068  0.87046757  1
  O  O287  1  0.62226939  0.35679799  0.39191841  1
  O  O288  1  0.62896655  0.36382641  0.87991472  1
  O  O289  1  0.61937594  0.87097429  0.36807253  1
  O  O290  1  0.61453621  0.86768862  0.87357139  1
  O  O291  1  0.37889637  0.13126234  0.12814058  1
  O  O292  1  0.37047926  0.12396020  0.63181388  1
  O  O293  1  0.38585755  0.62158408  0.13864050  1
  O  O294  1  0.37029940  0.63913921  0.64200846  1
  O  O295  1  0.87819974  0.13057415  0.13179003  1
  O  O296  1  0.88080036  0.13332034  0.63277425  1
  O  O297  1  0.88267102  0.63411575  0.12627840  1
  O  O298  1  0.88547156  0.62704155  0.62985180  1
  O  O299  1  0.25907507  0.24195661  0.11822905  1
  O  O300  1  0.26357174  0.25159904  0.62034141  1
  O  O301  1  0.24659527  0.76610454  0.13449473  1
  O  O302  1  0.25354709  0.75986034  0.61467678  1
  O  O303  1  0.75696436  0.25735224  0.11695819  1
  O  O304  1  0.75291235  0.25727726  0.62309350  1
  O  O305  1  0.75575900  0.76682263  0.12203475  1
  O  O306  1  0.75177294  0.75286010  0.61781087  1
  O  O307  1  0.24730225  0.23051674  0.36339700  1
  O  O308  1  0.24165751  0.23734894  0.88000356  1
  O  O309  1  0.25206116  0.74546906  0.38630577  1
  O  O310  1  0.23592832  0.75286410  0.87688501  1
  O  O311  1  0.74467175  0.24886289  0.38439540  1
  O  O312  1  0.74160106  0.24800810  0.87873366  1
  O  O313  1  0.73998859  0.75875135  0.38614345  1
  O  O314  1  0.74328098  0.75253710  0.87759827  1
  O  O315  1  0.00853364  0.13033510  0.00743853  1
  O  O316  1  -0.00572038  0.11074382  0.50817379  1
  O  O317  1  0.00940953  0.62090149  0.01184293  1
  O  O318  1  0.01314811  0.61562859  0.50422875  1
  O  O319  1  0.50335547  0.11903141  0.00515272  1
  O  O320  1  0.50694631  0.10920487  0.49247058  1
  O  O321  1  0.49861454  0.61588897  0.01526088  1
  O  O322  1  0.50413299  0.63383851  0.50165970  1
  O  O323  1  0.47820303  0.36978245  0.49410591  1
  O  O324  1  0.49414809  0.38680222  0.99908748  1
  O  O325  1  0.49920624  0.88347073  0.49005640  1
  O  O326  1  0.49303712  0.88138901  0.99318980  1
  O  O327  1  1.00708307  0.38806136  0.49188173  1
  O  O328  1  0.99409748  0.37844247  0.99568772  1
  O  O329  1  0.99389584  0.88600223  0.49748170  1
  O  O330  1  1.00624866  0.87639283  0.98694830  1
  O  O331  1  0.48118382  0.50616880  0.36924321  1
  O  O332  1  0.49634631  0.50630944  0.88486118  1
  O  O333  1  0.50004494  0.98894208  0.37862104  1
  O  O334  1  0.49336404  0.99114094  0.88191042  1
  O  O335  1  0.99480483  0.49410710  0.38188193  1
  O  O336  1  0.99577430  0.49297442  0.88182613  1
  O  O337  1  0.99123892  0.99477848  0.38415384  1
  O  O338  1  0.98916498  0.99347813  0.87021044  1
  O  O339  1  0.01114663  0.00314668  0.13036728  1
  O  O340  1  0.00831127  0.00326869  0.62209659  1
  O  O341  1  0.00395963  0.50722158  0.12105785  1
  O  O342  1  0.00085524  0.49545828  0.61288103  1
  O  O343  1  0.50588047  0.00428572  0.11871006  1
  O  O344  1  0.50886432  -0.00621142  0.61484474  1
  O  O345  1  0.50472645  0.50937444  0.13309179  1
  O  O346  1  0.48213591  0.49964223  0.62268137  1
  O  O347  1  0.23985439  0.37784895  0.24735111  1
  O  O348  1  0.26181368  0.37478311  0.72292121  1
  O  O349  1  0.25920993  0.88757890  0.23861606  1
  O  O350  1  0.24216561  0.87141157  0.73818329  1
  O  O351  1  0.75379451  0.36665209  0.23588222  1
  O  O352  1  0.75032444  0.38429795  0.73784358  1
  O  O353  1  0.73961917  0.87593735  0.24961654  1
  O  O354  1  0.74959799  0.88906470  0.74974960  1
  O  O355  1  0.25644967  0.11419826  0.25369306  1
  O  O356  1  0.25385129  0.12254734  0.76183129  1
  O  O357  1  0.25660859  0.62243443  0.25641182  1
  O  O358  1  0.24978183  0.63147368  0.76377265  1
  O  O359  1  0.76278802  0.12466348  0.25091595  1
  O  O360  1  0.75313968  0.11777475  0.75403451  1
  O  O361  1  0.75118298  0.62975388  0.25043677  1
  O  O362  1  0.75457064  0.61455513  0.75727776  1
  O  O363  1  0.36468374  0.12005964  0.36384898  1
  O  O364  1  0.36771879  0.11527213  0.86874910  1
  O  O365  1  0.36501069  0.61639542  0.36893893  1
  O  O366  1  0.36672859  0.65078290  0.86302837  1
  O  O367  1  0.87644295  0.11772549  0.36864170  1
  O  O368  1  0.86818724  0.12288354  0.86798339  1
  O  O369  1  0.88571413  0.61496948  0.37365364  1
  O  O370  1  0.88049926  0.60942373  0.87666490  1
  O  O371  1  0.12155055  0.38032157  0.13621220  1
  O  O372  1  0.14609924  0.37438319  0.61601122  1
  O  O373  1  0.13796136  0.88418592  0.11833727  1
  O  O374  1  0.13009824  0.88196865  0.63267040  1
  O  O375  1  0.64020234  0.36906851  0.12251281  1
  O  O376  1  0.62884999  0.38140740  0.61679911  1
  O  O377  1  0.63553509  0.87796748  0.13014571  1
  O  O378  1  0.62864993  0.88801295  0.62734668  1
  O  O379  1  0.11775870  0.25734351  0.25103051  1
  O  O380  1  0.11578365  0.24240567  0.75892236  1
  O  O381  1  0.11521065  0.75244382  0.26119451  1
  O  O382  1  0.12072039  0.76367060  0.75844941  1
  O  O383  1  0.61593375  0.24296502  0.26121407  1
  O  O384  1  0.61969383  0.24826510  0.76343881  1
  O  O385  1  0.61740735  0.75954446  0.25799757  1
  O  O386  1  0.62852078  0.75289465  0.76701346  1
  O  O387  1  0.37970588  0.23806352  0.24178475  1
  O  O388  1  0.37115947  0.22879142  0.73725822  1
  O  O389  1  0.38507150  0.73979000  0.25941665  1
  O  O390  1  0.37126939  0.74649256  0.73823975  1
  O  O391  1  0.88013881  0.24288589  0.24685656  1
  O  O392  1  0.88066980  0.24620167  0.74457296  1
  O  O393  1  0.88339946  0.75280452  0.23852414  1
  O  O394  1  0.88637212  0.74798298  0.75261185  1
  O  O395  1  0.37065544  0.48748177  0.48211981  1
  O  O396  1  0.39441199  0.49634894  1.01368501  1
  O  O397  1  0.38466315  0.99180074  0.49762091  1
  O  O398  1  0.37970185  0.99467552  0.98968150  1
  O  O399  1  0.89572397  0.50670618  0.49273818  1
  O  O400  1  0.88292188  0.48981090  0.99653052  1
  O  O401  1  0.87929972  0.99493288  0.49636442  1
  O  O402  1  0.87058220  1.01068332  0.98667518  1
  O  O403  1  0.12898562  0.01163563  0.00802406  1
  O  O404  1  0.11581193  0.00504121  0.51082483  1
  O  O405  1  0.11931616  0.51239507  0.01144562  1
  O  O406  1  0.11453989  0.50887946  0.49327356  1
  O  O407  1  0.61797097  0.00691548  0.00450676  1
  O  O408  1  0.62112214  0.00433654  0.50589779  1
  O  O409  1  0.60505587  0.50325906  0.00132800  1
  O  O410  1  0.62220502  0.52186323  0.49715430  1
  O  O411  1  0.37044541  0.35933984  0.12362349  1
  O  O412  1  0.36658203  0.35974447  0.60299608  1
  O  O413  1  0.36191704  0.88134252  0.11689773  1
  O  O414  1  0.36630549  0.87194776  0.62049200  1
  O  O415  1  0.87360100  0.36991563  0.11881224  1
  O  O416  1  0.86717952  0.36363789  0.62680773  1
  O  O417  1  0.86087272  0.87288853  0.12461861  1
  O  O418  1  0.87626455  0.87480674  0.61378488  1
  O  O419  1  0.13857553  0.12011877  0.37031055  1
  O  O420  1  0.12932617  0.12747522  0.88054156  1
  O  O421  1  0.13775303  0.62528322  0.38165885  1
  O  O422  1  0.13276271  0.63791674  0.88797328  1
  O  O423  1  0.62890825  0.12790580  0.38754132  1
  O  O424  1  0.63181371  0.12798949  0.88178404  1
  O  O425  1  0.61430824  0.64162310  0.38661773  1
  O  O426  1  0.62731560  0.64005732  0.87696036  1
