# generated using pymatgen
data_V85Zn86O256
_symmetry_space_group_name_H-M   'P 1'
_cell_length_a   16.94534009
_cell_length_b   16.94378917
_cell_length_c   16.96257509
_cell_angle_alpha   90.01158706
_cell_angle_beta   89.92509708
_cell_angle_gamma   90.02570153
_symmetry_Int_Tables_number   1
_chemical_formula_structural   V85Zn86O256
_chemical_formula_sum   'V85 Zn86 O256'
_cell_volume   4870.26046091
_cell_formula_units_Z   1
loop_
 _symmetry_equiv_pos_site_id
 _symmetry_equiv_pos_as_xyz
  1  'x, y, z'
loop_
 _atom_site_type_symbol
 _atom_site_label
 _atom_site_symmetry_multiplicity
 _atom_site_fract_x
 _atom_site_fract_y
 _atom_site_fract_z
 _atom_site_occupancy
  V  V0  1  0.74790590  0.12350447  0.87733618  1
  V  V1  1  0.62292467  0.00052465  0.62392082  1
  V  V2  1  0.87803741  0.37251630  0.50547636  1
  V  V3  1  0.01138502  0.87222251  0.87128117  1
  V  V4  1  0.37523370  0.25364508  0.62637893  1
  V  V5  1  0.49358729  0.00265601  -0.01256906  1
  V  V6  1  0.87493355  0.62340495  0.24813287  1
  V  V7  1  0.12866939  0.12471426  0.00410265  1
  V  V8  1  0.75164556  0.24968419  0.50233885  1
  V  V9  1  0.00021447  0.49306591  -0.00437962  1
  V  V10  1  0.12941645  0.74958563  0.37681474  1
  V  V11  1  0.63143549  0.37421724  0.24648115  1
  V  V12  1  0.63426029  0.62550871  -0.00459195  1
  V  V13  1  0.37075276  0.12564630  0.25079958  1
  V  V14  1  0.12145967  0.25715427  0.87502150  1
  V  V15  1  0.50066656  0.24767165  0.24620382  1
  V  V16  1  0.25075432  0.49066967  0.24500002  1
  V  V17  1  -0.01009012  0.24923720  0.75492938  1
  V  V18  1  0.75193286  0.00343044  0.74863832  1
  V  V19  1  0.50443041  0.37489669  0.37352037  1
  V  V20  1  0.49686170  0.37279855  0.88426520  1
  V  V21  1  -0.00045646  0.87399998  0.37430932  1
  V  V22  1  0.37961037  0.50082220  0.37566874  1
  V  V23  1  0.50709060  0.12074543  0.11826268  1
  V  V24  1  0.24967777  0.24796500  0.49719919  1
  V  V25  1  0.13543263  0.12195866  0.50333792  1
  V  V26  1  0.50198694  0.75632636  0.24711876  1
  V  V27  1  0.87525883  0.63057421  0.76092245  1
  V  V28  1  0.87851164  0.50008103  0.37461233  1
  V  V29  1  0.37240017  0.26180145  0.12125719  1
  V  V30  1  0.75388130  0.11965520  0.36335391  1
  V  V31  1  0.00133869  0.11442820  0.12901549  1
  V  V32  1  0.02012864  0.75354380  0.75277319  1
  V  V33  1  0.49496848  0.12547167  0.62525002  1
  V  V34  1  0.25654556  0.12506792  0.87479530  1
  V  V35  1  0.12444970  0.88109296  0.24050561  1
  V  V36  1  0.24737191  0.37340837  0.62718406  1
  V  V37  1  0.12793562  0.24056592  0.37483576  1
  V  V38  1  0.00562643  0.37191462  0.37504657  1
  V  V39  1  0.25060805  0.75618612  0.00050863  1
  V  V40  1  0.25329113  0.62621661  0.37369687  1
  V  V41  1  0.12686635  -0.01074496  0.63473895  1
  V  V42  1  0.37599925  0.75754355  0.12228320  1
  V  V43  1  -0.00533728  0.24472107  0.24918191  1
  V  V44  1  0.37649294  0.37529877  0.49724451  1
  V  V45  1  0.62387628  0.24489757  0.88034724  1
  V  V46  1  0.25173242  0.26678474  0.00345375  1
  V  V47  1  0.12382724  0.63237629  -0.00041339  1
  V  V48  1  0.25656233  -0.00762625  0.75107249  1
  V  V49  1  0.00245695  0.75223977  0.24833767  1
  V  V50  1  0.63409232  0.74824420  0.37914502  1
  V  V51  1  0.87616130  0.24791606  0.12120380  1
  V  V52  1  0.37354184  0.49442397  0.88297639  1
  V  V53  1  0.62683509  0.12485826  0.49871009  1
  V  V54  1  0.62800688  0.24856322  0.37293110  1
  V  V55  1  0.49436985  -0.00098146  0.49745349  1
  V  V56  1  0.24757704  0.62751773  0.87820035  1
  V  V57  1  0.50213543  0.62829215  0.12256063  1
  V  V58  1  -0.00207117  0.00295740  0.50200485  1
  V  V59  1  0.00588977  0.50169199  0.50286310  1
  V  V60  1  0.62972497  0.50177070  0.12253422  1
  V  V61  1  0.74610328  0.86932119  0.62591734  1
  V  V62  1  0.14266390  0.63920849  0.51470733  1
  V  V63  1  0.74296371  0.50832762  0.75339021  1
  V  V64  1  0.87923890  0.00275019  0.86843040  1
  V  V65  1  0.49998292  0.25645936  0.75014706  1
  V  V66  1  0.74517172  0.37938364  0.62887514  1
  V  V67  1  0.87503910  0.75064401  0.62833329  1
  V  V68  1  0.87142852  -0.00004926  0.36201122  1
  V  V69  1  0.12638452  0.50038767  0.62765641  1
  V  V70  1  0.74797251  0.76231959  -0.00123678  1
  V  V71  1  0.24519138  0.00451485  0.25503965  1
  V  V72  1  0.48501773  0.86873235  0.87931575  1
  V  V73  1  0.49812670  0.87893362  0.37285574  1
  V  V74  1  0.00124032  0.62313398  0.12322703  1
  V  V75  1  0.60911784  0.87315227  0.75086624  1
  V  V76  1  0.00625417  -0.00019088  0.00004321  1
  V  V77  1  -0.00005453  0.62479271  0.62872344  1
  V  V78  1  0.62657457  0.74858177  0.87048739  1
  V  V79  1  0.51460767  0.50561877  0.50489897  1
  V  V80  1  0.87017697  0.76137649  0.12405446  1
  V  V81  1  0.24910591  0.49951710  0.75392675  1
  V  V82  1  0.25162963  0.88735055  0.12258682  1
  V  V83  1  0.86950899  0.87158831  0.50188545  1
  V  V84  1  0.87788278  0.49330391  0.87298049  1
  Zn  Zn85  1  0.75386974  0.62637413  0.38159765  1
  Zn  Zn86  1  -0.00539465  0.12189318  0.63356021  1
  Zn  Zn87  1  0.49772666  0.49706774  0.00218733  1
  Zn  Zn88  1  0.37582410  0.12086891  0.75336925  1
  Zn  Zn89  1  0.87090756  0.23878361  0.63355201  1
  Zn  Zn90  1  0.37668806  0.62494291  0.24726079  1
  Zn  Zn91  1  0.75408405  0.49988342  0.24761129  1
  Zn  Zn92  1  0.50621723  0.64488451  0.64386113  1
  Zn  Zn93  1  0.37881427  0.64276092  0.75113420  1
  Zn  Zn94  1  0.64175347  0.62951884  0.51577941  1
  Zn  Zn95  1  0.87540699  0.37129097  -0.00488854  1
  Zn  Zn96  1  0.74867939  0.25091892  -0.00104470  1
  Zn  Zn97  1  0.12858607  0.36919877  0.24076496  1
  Zn  Zn98  1  0.63923072  -0.00707433  0.11944011  1
  Zn  Zn99  1  0.37051622  0.00329197  0.37512209  1
  Zn  Zn100  1  0.63925349  0.88309624  0.24330748  1
  Zn  Zn101  1  0.13321520  0.49559188  0.12104293  1
  Zn  Zn102  1  0.62239152  0.37905356  0.74893065  1
  Zn  Zn103  1  0.87213065  0.88191636  0.00048586  1
  Zn  Zn104  1  0.11821925  0.37498340  0.75699816  1
  Zn  Zn105  1  0.28096222  0.80577037  0.57382724  1
  Zn  Zn106  1  0.75408851  0.37377156  0.11891270  1
  Zn  Zn107  1  0.18653485  0.19010193  0.18447710  1
  Zn  Zn108  1  0.18228717  0.18320739  0.68876454  1
  Zn  Zn109  1  0.19086661  0.68688217  0.18813436  1
  Zn  Zn110  1  0.21817884  0.70739120  0.70205555  1
  Zn  Zn111  1  0.69025477  0.18234847  0.18304456  1
  Zn  Zn112  1  0.68608466  0.18898771  0.68981327  1
  Zn  Zn113  1  0.68983605  0.69605664  0.18922737  1
  Zn  Zn114  1  0.68378770  0.68708664  0.68773140  1
  Zn  Zn115  1  0.31352177  0.31028778  0.31215524  1
  Zn  Zn116  1  0.31214541  0.31200999  0.81343645  1
  Zn  Zn117  1  0.31762381  0.81292008  0.41837256  1
  Zn  Zn118  1  0.29996035  0.81561382  0.81642328  1
  Zn  Zn119  1  0.81500089  0.31003388  0.31229651  1
  Zn  Zn120  1  0.81006615  0.31556327  0.81395130  1
  Zn  Zn121  1  0.81720905  0.80901353  0.31615075  1
  Zn  Zn122  1  0.81068726  0.81758841  0.81476273  1
  Zn  Zn123  1  0.19012131  0.44026873  0.43826554  1
  Zn  Zn124  1  0.18305417  0.44044935  0.94109602  1
  Zn  Zn125  1  0.18105413  0.94029369  0.43227846  1
  Zn  Zn126  1  0.19095710  0.94040215  0.93533097  1
  Zn  Zn127  1  0.69443556  0.43775615  0.43476153  1
  Zn  Zn128  1  0.68869377  0.43491811  0.93425078  1
  Zn  Zn129  1  0.68638936  0.93450423  0.43349893  1
  Zn  Zn130  1  0.67930612  0.94248014  0.94060782  1
  Zn  Zn131  1  0.31811599  0.06829462  0.06258417  1
  Zn  Zn132  1  0.31592599  -0.03310714  0.56523092  1
  Zn  Zn133  1  0.31518001  0.56595043  0.06287246  1
  Zn  Zn134  1  0.32496373  0.64603485  0.55675323  1
  Zn  Zn135  1  0.82223405  0.07136373  0.05357166  1
  Zn  Zn136  1  0.81223129  0.05931838  0.56082064  1
  Zn  Zn137  1  0.81272451  0.56594380  0.05949871  1
  Zn  Zn138  1  0.81291275  0.56249417  0.56726883  1
  Zn  Zn139  1  0.44299250  0.43969742  0.18865885  1
  Zn  Zn140  1  0.40615168  0.48698488  0.65781645  1
  Zn  Zn141  1  0.43798470  0.93944157  0.18756487  1
  Zn  Zn142  1  0.41947932  0.81625744  0.68142241  1
  Zn  Zn143  1  0.94393439  0.43332695  0.18533634  1
  Zn  Zn144  1  0.93627685  0.43264002  0.69188859  1
  Zn  Zn145  1  0.79970255  0.94353792  0.18574818  1
  Zn  Zn146  1  0.93864362  0.93693216  0.68914974  1
  Zn  Zn147  1  0.05972279  0.06059122  0.31265746  1
  Zn  Zn148  1  0.06584041  0.06958268  0.81552149  1
  Zn  Zn149  1  0.06708158  0.56372577  0.31323800  1
  Zn  Zn150  1  0.06422222  0.56576990  0.81442166  1
  Zn  Zn151  1  0.56759741  0.05875907  0.30443622  1
  Zn  Zn152  1  0.56098695  0.06192963  0.81110995  1
  Zn  Zn153  1  0.56628159  0.56549559  0.30991098  1
  Zn  Zn154  1  0.55848390  0.56377774  0.81322397  1
  Zn  Zn155  1  0.43732765  0.18640545  0.43551383  1
  Zn  Zn156  1  0.43459920  0.18927474  0.94094685  1
  Zn  Zn157  1  0.44604960  0.68788025  0.43676944  1
  Zn  Zn158  1  0.43665516  0.68590515  0.93730859  1
  Zn  Zn159  1  0.93695614  0.18317396  0.44047463  1
  Zn  Zn160  1  0.93739085  0.18399045  0.93472270  1
  Zn  Zn161  1  0.94086823  0.68669087  0.44132526  1
  Zn  Zn162  1  0.93643127  0.69113415  0.93749886  1
  Zn  Zn163  1  0.06478592  0.31244458  0.06439915  1
  Zn  Zn164  1  0.06060464  0.30756122  0.56805512  1
  Zn  Zn165  1  0.06115798  0.81475784  0.06085213  1
  Zn  Zn166  1  0.06094429  0.81525884  0.56421317  1
  Zn  Zn167  1  0.56352899  0.31080395  0.06219656  1
  Zn  Zn168  1  0.56411127  0.31628758  0.56248238  1
  Zn  Zn169  1  0.56320453  0.82047526  0.05756641  1
  Zn  Zn170  1  0.55971292  0.81286506  0.55773103  1
  O  O171  1  0.11726495  0.13194547  0.11092019  1
  O  O172  1  0.11791680  0.11682285  0.61560803  1
  O  O173  1  0.11759479  0.62125349  0.12044308  1
  O  O174  1  0.11650275  0.60866779  0.62879483  1
  O  O175  1  0.60840315  0.12880725  0.12395238  1
  O  O176  1  0.61788707  0.12410636  0.61669355  1
  O  O177  1  0.62226047  0.61993126  0.11961727  1
  O  O178  1  0.61789527  0.62543961  0.62566912  1
  O  O179  1  0.38390993  0.37943170  0.37672143  1
  O  O180  1  0.38299019  0.38161160  0.87310109  1
  O  O181  1  0.39341426  0.88241416  0.36837653  1
  O  O182  1  0.38687681  0.86780340  0.87074571  1
  O  O183  1  0.88718585  0.37989436  0.38085456  1
  O  O184  1  0.87670148  0.38935667  0.87390511  1
  O  O185  1  0.88123118  0.87752148  0.38497407  1
  O  O186  1  0.88243387  0.88779307  0.87724819  1
  O  O187  1  0.24944848  0.00160369  0.35839574  1
  O  O188  1  0.23997977  0.01390622  0.86313645  1
  O  O189  1  0.26062286  0.50142165  0.36418632  1
  O  O190  1  0.25285674  0.50457764  0.87334350  1
  O  O191  1  0.75964924  0.00765220  0.38224664  1
  O  O192  1  0.75441338  0.00407051  0.86841237  1
  O  O193  1  0.76945161  0.49676589  0.36894731  1
  O  O194  1  0.76032957  0.49884035  0.86097054  1
  O  O195  1  0.25463445  0.50711821  0.14203427  1
  O  O196  1  0.24008726  0.49171885  0.63772269  1
  O  O197  1  0.25471232  0.99071268  0.12573947  1
  O  O198  1  0.23437371  1.01002019  0.63870816  1
  O  O199  1  0.74087366  0.50044435  0.12634787  1
  O  O200  1  0.76087217  0.49197843  0.64318879  1
  O  O201  1  0.75397833  1.00658904  0.10944644  1
  O  O202  1  0.74321426  0.99143703  0.63040870  1
  O  O203  1  0.00393311  0.36629217  0.26097682  1
  O  O204  1  0.00379119  0.35837698  0.74685842  1
  O  O205  1  0.00764442  0.85993679  0.25285332  1
  O  O206  1  -0.00146406  0.86752628  0.76191131  1
  O  O207  1  0.51372258  0.36954393  0.25400659  1
  O  O208  1  0.50042008  0.36093666  0.75983630  1
  O  O209  1  0.50350940  0.86963267  0.25493463  1
  O  O210  1  0.50578090  0.87362625  0.76105066  1
  O  O211  1  0.49413794  0.13088445  0.23824319  1
  O  O212  1  0.49871021  0.13392258  0.74181089  1
  O  O213  1  0.50382412  0.63173524  0.23537064  1
  O  O214  1  0.48983247  0.62770034  0.75776335  1
  O  O215  1  1.00666950  0.13157397  0.24012409  1
  O  O216  1  1.00553689  0.14227257  0.75080993  1
  O  O217  1  0.99622472  0.63162642  0.24382770  1
  O  O218  1  0.99513166  0.63519054  0.74810264  1
  O  O219  1  0.36262173  0.24795974  0.00836913  1
  O  O220  1  0.37170497  0.25597440  0.50525593  1
  O  O221  1  0.36481584  0.74449704  0.01252647  1
  O  O222  1  0.36335623  0.73864505  0.49482614  1
  O  O223  1  0.87769557  0.25178646  0.00669759  1
  O  O224  1  0.87139913  0.26261789  0.49652900  1
  O  O225  1  0.86619572  0.75121103  0.00703371  1
  O  O226  1  0.88584693  0.76393099  0.50950884  1
  O  O227  1  0.12641945  0.24202922  0.49475338  1
  O  O228  1  0.13199484  0.24473033  0.99473925  1
  O  O229  1  0.11226983  0.75038594  0.48248890  1
  O  O230  1  0.13274645  0.73898297  1.00859949  1
  O  O231  1  0.63145673  0.24430356  0.49428999  1
  O  O232  1  0.62527149  0.25145961  0.98445101  1
  O  O233  1  0.61957044  0.74822690  0.48200542  1
  O  O234  1  0.63149045  0.74560607  0.99268155  1
  O  O235  1  0.49501670  0.24101502  0.12619745  1
  O  O236  1  0.49729259  0.24907759  0.63210137  1
  O  O237  1  0.49579046  0.74660043  0.12502173  1
  O  O238  1  0.49649207  0.75784175  0.62802801  1
  O  O239  1  0.99724232  0.24235511  0.13292919  1
  O  O240  1  0.99689083  0.24655139  0.63940902  1
  O  O241  1  0.99474570  0.74082511  0.12989398  1
  O  O242  1  0.99649087  0.74754416  0.63609578  1
  O  O243  1  0.00465254  0.25398220  0.36976854  1
  O  O244  1  0.00777497  0.24677108  0.86667084  1
  O  O245  1  0.00485706  0.75279278  0.36507713  1
  O  O246  1  -0.00310660  0.76403260  0.86876949  1
  O  O247  1  0.50836230  0.25491752  0.36708513  1
  O  O248  1  0.50361344  0.25232712  0.86989537  1
  O  O249  1  0.50699460  0.75796950  0.36514365  1
  O  O250  1  0.50748165  0.76275463  0.88419622  1
  O  O251  1  0.23666363  0.13229460  0.50014609  1
  O  O252  1  0.24356525  0.12809341  0.99426671  1
  O  O253  1  0.24874129  0.60284874  0.47805691  1
  O  O254  1  0.24216332  0.63189507  0.99875458  1
  O  O255  1  0.73848167  0.12889246  0.49590515  1
  O  O256  1  0.75304212  0.13042095  0.98035622  1
  O  O257  1  0.75349160  0.61816732  0.49431707  1
  O  O258  1  0.73811982  0.63378607  1.00097375  1
  O  O259  1  0.24778739  0.36567058  -0.00044430  1
  O  O260  1  0.25602425  0.37008665  0.50601610  1
  O  O261  1  0.24150572  0.86648813  0.00785959  1
  O  O262  1  0.26042569  0.88660234  0.48982872  1
  O  O263  1  0.75564167  0.37065536  0.00033215  1
  O  O264  1  0.75967139  0.37307313  0.50724082  1
  O  O265  1  0.75097233  0.86599312  -0.00602470  1
  O  O266  1  0.75854203  0.87977342  0.51117925  1
  O  O267  1  0.14161541  0.49847326  0.25369780  1
  O  O268  1  0.12997745  0.49499353  0.74676003  1
  O  O269  1  0.12879156  0.99131587  0.25066936  1
  O  O270  1  0.12325970  1.00604798  0.73685930  1
  O  O271  1  0.62919091  0.49237082  0.24178746  1
  O  O272  1  0.64038664  0.49993472  0.75885365  1
  O  O273  1  0.62967843  0.99954160  0.23681389  1
  O  O274  1  0.62684558  0.99076543  0.74246903  1
  O  O275  1  0.36499392  0.00948633  0.24841189  1
  O  O276  1  0.35549715  0.00407821  0.74571181  1
  O  O277  1  0.36979682  0.49920508  0.25810186  1
  O  O278  1  0.35659360  0.49506582  0.76337945  1
  O  O279  1  0.87839233  -0.00762168  0.26405446  1
  O  O280  1  0.86420492  -0.00567747  0.75537951  1
  O  O281  1  0.88117518  0.50640874  0.25635076  1
  O  O282  1  0.87361511  0.50896340  0.75745856  1
  O  O283  1  0.11436948  0.36719279  0.37949303  1
  O  O284  1  0.12747459  0.36144897  0.87830505  1
  O  O285  1  0.11834154  0.86828349  0.36317240  1
  O  O286  1  0.10952069  0.87827328  0.87820099  1
  O  O287  1  0.62556616  0.36870878  0.36610113  1
  O  O288  1  0.61484467  0.36770345  0.87041297  1
  O  O289  1  0.61833024  0.86473947  0.37023438  1
  O  O290  1  0.61620974  0.86925984  0.86747936  1
  O  O291  1  0.38469219  0.13599587  0.13311518  1
  O  O292  1  0.39118457  0.13589366  0.62356485  1
  O  O293  1  0.38620731  0.63238963  0.12605290  1
  O  O294  1  0.38913342  0.60064722  0.63529649  1
  O  O295  1  0.88939520  0.13842210  0.12030145  1
  O  O296  1  0.88206202  0.12771254  0.61171871  1
  O  O297  1  0.88288936  0.63101733  0.13188624  1
  O  O298  1  0.88291627  0.63030138  0.63642663  1
  O  O299  1  0.25840534  0.24835989  0.11440425  1
  O  O300  1  0.25314869  0.25662442  0.61974771  1
  O  O301  1  0.25838860  0.75718217  0.12143989  1
  O  O302  1  0.22460653  0.70889021  0.58885375  1
  O  O303  1  0.76162546  0.24779524  0.12159695  1
  O  O304  1  0.75242305  0.25714540  0.62004665  1
  O  O305  1  0.76061841  0.74282523  0.11320743  1
  O  O306  1  0.75675680  0.76364351  0.63354398  1
  O  O307  1  0.23805548  0.25684381  0.38231589  1
  O  O308  1  0.24351587  0.24523233  0.88387615  1
  O  O309  1  0.24052315  0.73978382  0.36867857  1
  O  O310  1  0.25115191  0.74219609  0.89165391  1
  O  O311  1  0.74751208  0.24371863  0.38292888  1
  O  O312  1  0.74108249  0.24113844  0.86850787  1
  O  O313  1  0.73739438  0.74870476  0.37434781  1
  O  O314  1  0.73948536  0.75354191  0.88387974  1
  O  O315  1  0.00929236  0.11871180  0.00278415  1
  O  O316  1  0.00802651  0.11051337  0.49672005  1
  O  O317  1  0.00623170  0.62458728  0.00657895  1
  O  O318  1  0.01002177  0.62029551  0.51055133  1
  O  O319  1  0.49625277  0.11812188  0.00851848  1
  O  O320  1  0.51184315  0.12531706  0.50376411  1
  O  O321  1  0.51017113  0.62526314  0.01048105  1
  O  O322  1  0.50548009  0.60922735  0.49750712  1
  O  O323  1  0.49837684  0.37811968  0.48848635  1
  O  O324  1  0.50246847  0.37554902  0.98834216  1
  O  O325  1  0.50774964  0.89082801  0.48898156  1
  O  O326  1  0.49610223  0.88456760  0.98527764  1
  O  O327  1  0.99549632  0.37823673  0.49632892  1
  O  O328  1  0.99831039  0.39076084  1.00228290  1
  O  O329  1  0.99529642  0.88573835  0.49556418  1
  O  O330  1  0.99908100  0.88201549  0.99007777  1
  O  O331  1  0.49687207  0.49391813  0.37430610  1
  O  O332  1  0.49080450  0.48909118  0.87681645  1
  O  O333  1  0.50361478  0.99611937  0.38051312  1
  O  O334  1  0.49913432  0.99107588  0.88052956  1
  O  O335  1  0.99683464  0.49285365  0.37989370  1
  O  O336  1  0.99220316  0.50846581  0.88427470  1
  O  O337  1  0.99340907  0.99254852  0.38207026  1
  O  O338  1  0.99646815  0.99333332  0.87578282  1
  O  O339  1  -0.00157852  0.01295721  0.11341686  1
  O  O340  1  0.00918640  -0.00161441  0.61875483  1
  O  O341  1  -0.00346231  0.51355015  0.11702678  1
  O  O342  1  0.00695327  0.50045015  0.62281003  1
  O  O343  1  0.49624597  0.01477308  0.11974890  1
  O  O344  1  0.50846723  0.01267407  0.61297223  1
  O  O345  1  0.51186966  0.50833912  0.12339496  1
  O  O346  1  0.50731896  0.48360308  0.60275927  1
  O  O347  1  0.24915056  0.38743216  0.25451045  1
  O  O348  1  0.24420859  0.37860665  0.74267638  1
  O  O349  1  0.23868792  0.88766862  0.23833929  1
  O  O350  1  0.23829180  0.89482724  0.76282280  1
  O  O351  1  0.74105842  0.37425864  0.24672222  1
  O  O352  1  0.74973035  0.38619651  0.74406755  1
  O  O353  1  0.75345119  0.86448015  0.24701251  1
  O  O354  1  0.74076477  0.88588858  0.74436581  1
  O  O355  1  0.25704567  0.11648383  0.23825943  1
  O  O356  1  0.24834249  0.12221019  0.76040892  1
  O  O357  1  0.25263447  0.61496440  0.25967774  1
  O  O358  1  0.24515559  0.61280698  0.76426894  1
  O  O359  1  0.75062642  0.13075719  0.26478547  1
  O  O360  1  0.74294454  0.10932602  0.75378571  1
  O  O361  1  0.76626260  0.62499030  0.25322114  1
  O  O362  1  0.75989130  0.61438676  0.74688454  1
  O  O363  1  0.38070712  0.12705229  0.35556338  1
  O  O364  1  0.36057661  0.13115083  0.87402266  1
  O  O365  1  0.37237615  0.61563102  0.36888632  1
  O  O366  1  0.36149382  0.61864816  0.87634856  1
  O  O367  1  0.86605914  0.11191604  0.38314148  1
  O  O368  1  0.86825960  0.11075628  0.87261129  1
  O  O369  1  0.88246975  0.61629622  0.36719672  1
  O  O370  1  0.87886142  0.62049060  0.86428691  1
  O  O371  1  0.11859677  0.38418389  0.12912139  1
  O  O372  1  0.13465881  0.38236127  0.62117089  1
  O  O373  1  0.13228089  0.86797809  0.13478488  1
  O  O374  1  0.12757585  0.88981800  0.62051925  1
  O  O375  1  0.62630657  0.38315274  0.13045463  1
  O  O376  1  0.64089372  0.37214576  0.62725289  1
  O  O377  1  0.62377732  0.87668143  0.12830394  1
  O  O378  1  0.63030241  0.87898883  0.63158138  1
  O  O379  1  0.11744836  0.24984240  0.25929346  1
  O  O380  1  0.11959002  0.25218910  0.76045187  1
  O  O381  1  0.11979281  0.75304849  0.25699754  1
  O  O382  1  0.11908817  0.74676904  0.74699228  1
  O  O383  1  0.62149513  0.25618083  0.25115300  1
  O  O384  1  0.61599900  0.25255585  0.75840401  1
  O  O385  1  0.61519861  0.75012292  0.25809787  1
  O  O386  1  0.63381654  0.76083246  0.76314442  1
  O  O387  1  0.38031355  0.24535697  0.24297507  1
  O  O388  1  0.38086294  0.24746469  0.74190025  1
  O  O389  1  0.39351605  0.74507730  0.23708557  1
  O  O390  1  0.33075476  0.74655198  0.73205653  1
  O  O391  1  0.88926794  0.25228722  0.24501080  1
  O  O392  1  0.88598635  0.25189525  0.75421619  1
  O  O393  1  0.88532845  0.74156017  0.24396337  1
  O  O394  1  0.87845789  0.74476750  0.74722149  1
  O  O395  1  0.38957443  0.49130264  0.48339675  1
  O  O396  1  0.37593369  0.50407669  0.98760610  1
  O  O397  1  0.39059404  1.01617271  0.49321509  1
  O  O398  1  0.39326348  1.00201688  1.00561966  1
  O  O399  1  0.88488722  0.48948128  0.49417607  1
  O  O400  1  0.88252649  0.50468089  0.98996053  1
  O  O401  1  0.88290804  0.98709111  0.49651562  1
  O  O402  1  0.89184169  1.00147650  0.98839157  1
  O  O403  1  0.11489624  0.00930867  -0.00655695  1
  O  O404  1  0.11845660  0.00582294  0.50683902  1
  O  O405  1  0.11674958  0.51331465  0.00146178  1
  O  O406  1  0.12333687  0.50685252  0.51049649  1
  O  O407  1  0.60245247  -0.00164483  0.00417872  1
  O  O408  1  0.62025247  0.00939128  0.50310512  1
  O  O409  1  0.62502652  0.50807369  0.00526370  1
  O  O410  1  0.61629330  0.50037231  0.48821589  1
  O  O411  1  0.38537022  0.36092550  0.12992613  1
  O  O412  1  0.36180121  0.37824808  0.61836890  1
  O  O413  1  0.36588826  0.86671160  0.13013830  1
  O  O414  1  0.34740456  0.87938883  0.62736129  1
  O  O415  1  0.87718741  0.36188644  0.12403569  1
  O  O416  1  0.86697674  0.37072068  0.61783318  1
  O  O417  1  0.87965234  0.86244777  0.12147930  1
  O  O418  1  0.86747986  0.87196168  0.62046604  1
  O  O419  1  0.11849744  0.13539231  0.38289278  1
  O  O420  1  0.13259254  0.13673079  0.88631240  1
  O  O421  1  0.13327797  0.63302612  0.38167318  1
  O  O422  1  0.13717790  0.62197156  0.88598065  1
  O  O423  1  0.63093103  0.13029641  0.38135257  1
  O  O424  1  0.63323269  0.13245533  0.86763819  1
  O  O425  1  0.62828149  0.63933785  0.37184298  1
  O  O426  1  0.61847873  0.63674174  0.88461446  1
