# generated using pymatgen
data_V85Zn86O256
_symmetry_space_group_name_H-M   'P 1'
_cell_length_a   16.95021177
_cell_length_b   16.94403012
_cell_length_c   16.94163759
_cell_angle_alpha   89.93905183
_cell_angle_beta   89.98808706
_cell_angle_gamma   90.06301174
_symmetry_Int_Tables_number   1
_chemical_formula_structural   V85Zn86O256
_chemical_formula_sum   'V85 Zn86 O256'
_cell_volume   4865.71550411
_cell_formula_units_Z   1
loop_
 _symmetry_equiv_pos_site_id
 _symmetry_equiv_pos_as_xyz
  1  'x, y, z'
loop_
 _atom_site_type_symbol
 _atom_site_label
 _atom_site_symmetry_multiplicity
 _atom_site_fract_x
 _atom_site_fract_y
 _atom_site_fract_z
 _atom_site_occupancy
  V  V0  1  -0.00437829  0.62373954  0.13366133  1
  V  V1  1  0.37558645  0.75052949  0.62572827  1
  V  V2  1  0.00082753  0.24783534  0.74927057  1
  V  V3  1  0.75270078  0.62488331  0.87281652  1
  V  V4  1  0.12632510  0.23882211  0.38215921  1
  V  V5  1  0.37051098  0.87657673  0.49862712  1
  V  V6  1  0.74971160  0.38912899  0.12629728  1
  V  V7  1  0.50112304  0.37474905  0.37339398  1
  V  V8  1  0.11756617  0.88859177  0.25224741  1
  V  V9  1  0.24936237  0.74927668  0.01525272  1
  V  V10  1  0.36166819  0.01185475  0.36395884  1
  V  V11  1  0.74798169  0.13459589  0.87406654  1
  V  V12  1  0.38075439  0.37374902  0.00153476  1
  V  V13  1  0.12223281  0.11780872  0.00227644  1
  V  V14  1  0.87355141  0.88299753  -0.00352646  1
  V  V15  1  0.32917094  0.19446400  0.18139456  1
  V  V16  1  0.50035224  0.74940296  0.75192093  1
  V  V17  1  0.25077024  0.62468530  0.87748131  1
  V  V18  1  0.62759625  0.49850442  0.63226661  1
  V  V19  1  -0.00405140  0.25626950  0.25187424  1
  V  V20  1  0.50363710  0.25114840  0.73649284  1
  V  V21  1  0.12474915  0.50409786  0.61122125  1
  V  V22  1  0.48226380  0.74275651  0.23934828  1
  V  V23  1  0.87862509  0.62600438  0.74056971  1
  V  V24  1  0.62347824  0.74846116  0.37270126  1
  V  V25  1  0.75071719  0.12577795  0.38439863  1
  V  V26  1  0.12272558  0.62527813  0.00151750  1
  V  V27  1  0.87824510  0.49319037  0.37392880  1
  V  V28  1  0.24782688  0.74098929  0.50050337  1
  V  V29  1  0.00487352  0.62513297  0.61212186  1
  V  V30  1  0.37288547  0.87078857  0.00741860  1
  V  V31  1  0.62513625  0.74764286  0.87767672  1
  V  V32  1  0.49868397  0.87407500  0.87816675  1
  V  V33  1  0.62468066  0.00185792  0.62506346  1
  V  V34  1  0.87265259  0.12354776  0.25044728  1
  V  V35  1  0.37941955  0.36823235  0.50335149  1
  V  V36  1  0.25460243  0.88202978  0.63995774  1
  V  V37  1  0.25355049  0.37496651  0.12720506  1
  V  V38  1  0.12425449  0.75083088  0.87663961  1
  V  V39  1  0.12267681  0.49696583  0.12486663  1
  V  V40  1  0.75156983  -0.00051523  0.25140585  1
  V  V41  1  0.38195302  0.49781476  0.87875734  1
  V  V42  1  0.75364927  0.75005854  0.50137679  1
  V  V43  1  0.25150526  0.23973178  0.49844922  1
  V  V44  1  0.87981599  0.12085274  0.75629600  1
  V  V45  1  0.50862702  0.36351155  0.87867957  1
  V  V46  1  0.87837397  -0.01143747  0.39050843  1
  V  V47  1  0.50126538  -0.00001034  0.00009864  1
  V  V48  1  0.86947122  0.25097539  0.61359322  1
  V  V49  1  0.25117102  0.50084022  0.74936414  1
  V  V50  1  0.49980525  0.62717576  0.62613416  1
  V  V51  1  -0.00071878  0.75104488  0.74711412  1
  V  V52  1  0.75330069  -0.00126733  0.75851758  1
  V  V53  1  0.63000149  0.24908239  0.37415445  1
  V  V54  1  0.25449108  0.50835031  0.25093758  1
  V  V55  1  0.49907780  0.50116596  0.49952347  1
  V  V56  1  0.12244200  0.74118530  0.37452337  1
  V  V57  1  0.50303769  0.25097003  0.23938650  1
  V  V58  1  0.62188622  0.87254094  0.24810750  1
  V  V59  1  0.49320030  0.61009328  0.11587126  1
  V  V60  1  -0.00274419  0.88290508  0.87487145  1
  V  V61  1  0.62511021  0.87502088  0.75131101  1
  V  V62  1  0.12703166  0.37388351  0.74970748  1
  V  V63  1  0.62367961  0.13647548  -0.00416728  1
  V  V64  1  0.00433802  0.11991677  0.60919014  1
  V  V65  1  0.25110827  0.11611640  0.87089403  1
  V  V66  1  0.87176798  0.24976217  0.12400222  1
  V  V67  1  0.87328908  0.74600927  0.13327861  1
  V  V68  1  0.25336174  0.24812001  -0.00413687  1
  V  V69  1  0.62598641  0.62501010  0.49867358  1
  V  V70  1  0.87796643  0.37382592  -0.00182295  1
  V  V71  1  0.75007566  0.74855166  -0.00078751  1
  V  V72  1  0.37255021  0.12495812  0.74182329  1
  V  V73  1  0.24503251  0.89149824  0.13419223  1
  V  V74  1  -0.00053719  0.37748238  0.39776533  1
  V  V75  1  0.25703704  0.36904235  0.62453762  1
  V  V76  1  0.50156002  0.12624398  0.12972966  1
  V  V77  1  0.63143662  0.38847979  0.24598729  1
  V  V78  1  0.75407581  0.61640992  0.35734309  1
  V  V79  1  0.88057016  0.50030297  0.87101371  1
  V  V80  1  0.49687426  0.87418492  0.37212042  1
  V  V81  1  0.12863423  0.00355562  0.62020817  1
  V  V82  1  0.75583931  0.87274313  0.62201053  1
  V  V83  1  0.74992711  0.87434794  0.12461146  1
  V  V84  1  0.49968914  0.00160326  0.49673466  1
  Zn  Zn85  1  0.62677045  0.00192743  0.12391262  1
  Zn  Zn86  1  0.63477016  0.36475518  0.75524962  1
  Zn  Zn87  1  -0.00140490  -0.00032589  0.00334772  1
  Zn  Zn88  1  -0.00272780  0.75089069  0.25396430  1
  Zn  Zn89  1  0.00044414  0.49989329  -0.00014835  1
  Zn  Zn90  1  0.74643077  0.25318733  -0.00238579  1
  Zn  Zn91  1  0.00307077  0.37473514  0.87417934  1
  Zn  Zn92  1  0.12461852  0.37486774  0.25410598  1
  Zn  Zn93  1  0.37204622  -0.00300966  0.86970527  1
  Zn  Zn94  1  0.62632353  0.12582536  0.50070633  1
  Zn  Zn95  1  0.92032911  0.80555322  0.56620115  1
  Zn  Zn96  1  0.00133012  0.11824478  0.13051202  1
  Zn  Zn97  1  0.37575531  0.62422342  0.75174742  1
  Zn  Zn98  1  0.62393451  0.60898686  0.00451198  1
  Zn  Zn99  1  0.75412472  0.49482018  0.74687120  1
  Zn  Zn100  1  0.12597968  0.24890860  0.87406047  1
  Zn  Zn101  1  0.12926553  0.88348086  0.75548350  1
  Zn  Zn102  1  0.37770768  0.50535743  0.37218593  1
  Zn  Zn103  1  0.49808122  0.13025819  0.61931850  1
  Zn  Zn104  1  0.00027277  0.87272076  0.39695686  1
  Zn  Zn105  1  0.25341466  0.62621252  0.37455034  1
  Zn  Zn106  1  0.76212325  0.37779415  0.61578725  1
  Zn  Zn107  1  0.16817931  0.18462490  0.19190828  1
  Zn  Zn108  1  0.18838895  0.18570691  0.68436949  1
  Zn  Zn109  1  0.18038191  0.68916801  0.19110037  1
  Zn  Zn110  1  0.18613621  0.68889086  0.68760906  1
  Zn  Zn111  1  0.68745376  0.19059673  0.18658089  1
  Zn  Zn112  1  0.68674389  0.18618029  0.68938501  1
  Zn  Zn113  1  0.67795320  0.68604970  0.18211781  1
  Zn  Zn114  1  0.68884319  0.68635697  0.68774253  1
  Zn  Zn115  1  0.30886281  0.31959018  0.31973645  1
  Zn  Zn116  1  0.31837906  0.30681141  0.81208521  1
  Zn  Zn117  1  0.30716390  0.81772174  0.31408163  1
  Zn  Zn118  1  0.31571947  0.80756794  0.81905925  1
  Zn  Zn119  1  0.81270299  0.31593050  0.31528011  1
  Zn  Zn120  1  0.81529243  0.31297974  0.80514949  1
  Zn  Zn121  1  0.80947957  0.81063019  0.31511334  1
  Zn  Zn122  1  0.81615299  0.81160405  0.81053356  1
  Zn  Zn123  1  0.18818884  0.43002979  0.43577808  1
  Zn  Zn124  1  0.19049176  0.43635784  0.93764313  1
  Zn  Zn125  1  0.18599027  0.93631512  0.43750424  1
  Zn  Zn126  1  0.18720569  0.93636497  0.93863390  1
  Zn  Zn127  1  0.69272811  0.43893761  0.44026378  1
  Zn  Zn128  1  0.69547801  0.43655787  0.93261978  1
  Zn  Zn129  1  0.68834507  0.93638252  0.43753139  1
  Zn  Zn130  1  0.68501122  0.94036248  0.93816220  1
  Zn  Zn131  1  0.31104715  0.05677148  0.05513840  1
  Zn  Zn132  1  0.31435081  0.05902381  0.56190696  1
  Zn  Zn133  1  0.31642949  0.56199897  0.06468256  1
  Zn  Zn134  1  0.31584819  0.55902875  0.56162680  1
  Zn  Zn135  1  0.81259081  0.06307727  0.06256754  1
  Zn  Zn136  1  0.81343997  0.06509305  0.56862829  1
  Zn  Zn137  1  0.81385428  0.56257863  0.05869071  1
  Zn  Zn138  1  0.81403836  0.56290829  0.55809541  1
  Zn  Zn139  1  0.43297228  0.43383523  0.19016838  1
  Zn  Zn140  1  0.44031276  0.43583177  0.68893744  1
  Zn  Zn141  1  0.43388010  0.93707254  0.18590111  1
  Zn  Zn142  1  0.43863289  0.94118824  0.68836713  1
  Zn  Zn143  1  0.93260941  0.44039756  0.19236106  1
  Zn  Zn144  1  0.94199368  0.43657121  0.68067964  1
  Zn  Zn145  1  0.93762507  0.93781197  0.18614572  1
  Zn  Zn146  1  0.94166243  0.94242106  0.68837278  1
  Zn  Zn147  1  0.05480686  0.06267230  0.31758197  1
  Zn  Zn148  1  0.06833537  0.06074984  0.80988469  1
  Zn  Zn149  1  0.06299099  0.55862838  0.31349243  1
  Zn  Zn150  1  0.06383041  0.56307754  0.80806965  1
  Zn  Zn151  1  0.56137327  0.06075337  0.31221835  1
  Zn  Zn152  1  0.56122138  0.06621683  0.81276092  1
  Zn  Zn153  1  0.55895736  0.56564435  0.30981251  1
  Zn  Zn154  1  0.56325981  0.56204939  0.81647054  1
  Zn  Zn155  1  0.43914016  0.18805644  0.43288805  1
  Zn  Zn156  1  0.43536095  0.18762296  0.93746312  1
  Zn  Zn157  1  0.43449316  0.68798535  0.43251627  1
  Zn  Zn158  1  0.43488967  0.68672222  0.94353154  1
  Zn  Zn159  1  0.93601803  0.18579858  0.43357123  1
  Zn  Zn160  1  0.93741312  0.18844861  0.93341765  1
  Zn  Zn161  1  0.93519312  0.68101770  0.42908564  1
  Zn  Zn162  1  0.93796964  0.68957704  0.93963642  1
  Zn  Zn163  1  0.06274907  0.30791154  0.06240077  1
  Zn  Zn164  1  0.06823559  0.30695274  0.56827472  1
  Zn  Zn165  1  0.06135368  0.81501094  0.06680411  1
  Zn  Zn166  1  0.07900613  0.81816947  0.56275168  1
  Zn  Zn167  1  0.56507316  0.43372959  0.06148743  1
  Zn  Zn168  1  0.59651127  0.32735470  0.54837866  1
  Zn  Zn169  1  0.56293608  0.80818172  0.06541690  1
  Zn  Zn170  1  0.56464179  0.81506700  0.56149068  1
  O  O171  1  0.12016582  0.13042918  0.10739554  1
  O  O172  1  0.11283294  0.12078445  0.62612792  1
  O  O173  1  0.11819166  0.61676537  0.11999320  1
  O  O174  1  0.11768923  0.61612969  0.62964517  1
  O  O175  1  0.61683187  0.12351390  0.11842339  1
  O  O176  1  0.62385680  0.11290711  0.62260842  1
  O  O177  1  0.60215751  0.63355395  0.11968135  1
  O  O178  1  0.61922386  0.62017536  0.61837148  1
  O  O179  1  0.38563574  0.38072912  0.38172677  1
  O  O180  1  0.38006775  0.37903315  0.88278163  1
  O  O181  1  0.37945203  0.87957415  0.38403350  1
  O  O182  1  0.38178320  0.87702028  0.88434448  1
  O  O183  1  0.88918536  0.37717183  0.37765835  1
  O  O184  1  0.87701561  0.38171509  0.88018703  1
  O  O185  1  0.87187993  0.88544194  0.37567204  1
  O  O186  1  0.88477635  0.86739691  0.88427680  1
  O  O187  1  0.26289257  -0.00243050  0.37959302  1
  O  O188  1  0.25123590  0.01162973  0.87768487  1
  O  O189  1  0.24372738  0.49738684  0.35850308  1
  O  O190  1  0.25705442  0.50417418  0.86772935  1
  O  O191  1  0.75525451  0.00467143  0.36872925  1
  O  O192  1  0.74571938  0.00464068  0.86200586  1
  O  O193  1  0.75085217  0.51130090  0.37421812  1
  O  O194  1  0.76592326  0.50665209  0.86962076  1
  O  O195  1  0.24408566  0.49325975  0.13205471  1
  O  O196  1  0.24721373  0.49193637  0.63284393  1
  O  O197  1  0.24626744  0.98985725  0.12370247  1
  O  O198  1  0.24720596  0.99117174  0.62497466  1
  O  O199  1  0.75992294  0.48830930  0.12610711  1
  O  O200  1  0.74052670  0.50130156  0.62449248  1
  O  O201  1  0.74910918  0.99335090  0.13459048  1
  O  O202  1  0.74288876  0.99453031  0.63335280  1
  O  O203  1  0.00065620  0.36316787  0.25063978  1
  O  O204  1  0.01089220  0.36676371  0.74741023  1
  O  O205  1  0.01112116  0.87231679  0.24929122  1
  O  O206  1  -0.00127113  0.86767318  0.75762919  1
  O  O207  1  0.50866578  0.36969293  0.25295114  1
  O  O208  1  0.49564814  0.36050582  0.75901660  1
  O  O209  1  0.50553692  0.86745040  0.25036072  1
  O  O210  1  0.50565232  0.87006580  0.75623822  1
  O  O211  1  0.50490727  0.12976233  0.23740684  1
  O  O212  1  0.49359659  0.13574546  0.74823059  1
  O  O213  1  0.50051579  0.63704937  0.24093830  1
  O  O214  1  0.49917207  0.63250540  0.74481489  1
  O  O215  1  0.99087889  0.13747058  0.25255245  1
  O  O216  1  0.99408989  0.13072853  0.74942953  1
  O  O217  1  1.00584673  0.62707226  0.23706367  1
  O  O218  1  0.99584097  0.63294588  0.74383610  1
  O  O219  1  0.36213978  0.25709556  -0.00279028  1
  O  O220  1  0.37105860  0.26179013  0.49175841  1
  O  O221  1  0.36410720  0.76304041  -0.00400038  1
  O  O222  1  0.37252952  0.75996150  0.50682434  1
  O  O223  1  0.87441588  0.25575518  0.00701151  1
  O  O224  1  0.87755483  0.24225804  0.51507345  1
  O  O225  1  0.86373547  0.75691540  0.00567062  1
  O  O226  1  0.85753953  0.73909580  0.49715353  1
  O  O227  1  0.13420598  0.25334586  0.49029072  1
  O  O228  1  0.13760927  0.24373989  0.99738930  1
  O  O229  1  0.13846480  0.75482728  0.48899935  1
  O  O230  1  0.13123707  0.74640044  0.99661953  1
  O  O231  1  0.60720761  0.23919649  0.47667227  1
  O  O232  1  0.62750468  0.23530273  1.00109241  1
  O  O233  1  0.62907940  0.74374205  0.49285024  1
  O  O234  1  0.63822017  0.75257345  0.99558586  1
  O  O235  1  0.49482837  0.24155024  0.13682517  1
  O  O236  1  0.50529808  0.25151725  0.63554999  1
  O  O237  1  0.49453218  0.75056239  0.13698738  1
  O  O238  1  0.49728327  0.74571349  0.62963689  1
  O  O239  1  0.98908656  0.24697764  0.13317517  1
  O  O240  1  0.99702232  0.23827480  0.63241629  1
  O  O241  1  0.98985177  0.74233157  0.12545984  1
  O  O242  1  1.00346478  0.74453560  0.63317933  1
  O  O243  1  0.00423283  0.25956276  0.37304982  1
  O  O244  1  0.00306429  0.25321576  0.86107267  1
  O  O245  1  0.00643572  0.75192361  0.37326849  1
  O  O246  1  0.00734630  0.75630660  0.87027261  1
  O  O247  1  0.50277495  0.25928138  0.36096398  1
  O  O248  1  0.49628069  0.26008103  0.87077146  1
  O  O249  1  0.50512654  0.75478994  0.36438834  1
  O  O250  1  0.50426885  0.75470282  0.87364896  1
  O  O251  1  0.25941163  0.14097543  0.50636000  1
  O  O252  1  0.24284707  0.12957232  0.99337838  1
  O  O253  1  0.25388665  0.63854201  0.50590786  1
  O  O254  1  0.24445954  0.63205065  0.99923463  1
  O  O255  1  0.74730017  0.11952951  0.48779080  1
  O  O256  1  0.74274120  0.12398138  0.99075092  1
  O  O257  1  0.73667781  0.63136488  0.49647318  1
  O  O258  1  0.75094832  0.63400362  0.99174314  1
  O  O259  1  0.25507234  0.36574219  0.00649728  1
  O  O260  1  0.26116365  0.36955527  0.50635878  1
  O  O261  1  0.25279256  0.87037688  0.01097651  1
  O  O262  1  0.26154367  0.86807236  0.50781710  1
  O  O263  1  0.76297370  0.37148402  0.00592484  1
  O  O264  1  0.70572071  0.36327743  0.51903592  1
  O  O265  1  0.75450306  0.86926382  0.00311645  1
  O  O266  1  0.74350105  0.86439337  0.50929414  1
  O  O267  1  0.13189528  0.49626903  0.23821778  1
  O  O268  1  0.13780025  0.49313830  0.74678804  1
  O  O269  1  0.11995583  0.98817888  0.25746197  1
  O  O270  1  0.12203274  0.99735854  0.73362224  1
  O  O271  1  0.62164521  0.48642488  0.25244139  1
  O  O272  1  0.63271083  0.50826443  0.74292223  1
  O  O273  1  0.63337943  0.98863879  0.25039642  1
  O  O274  1  0.62920739  0.99540173  0.74301508  1
  O  O275  1  0.37762720  -0.00556492  0.26557252  1
  O  O276  1  0.38538036  0.01872525  0.75427504  1
  O  O277  1  0.35789257  0.49491679  0.25111415  1
  O  O278  1  0.36409054  0.49886022  0.75612786  1
  O  O279  1  0.86242155  0.00035642  0.25692824  1
  O  O280  1  0.86557071  0.00953414  0.74508967  1
  O  O281  1  0.87506176  0.49877407  0.26942805  1
  O  O282  1  0.87852288  0.50695916  0.75450742  1
  O  O283  1  0.11061872  0.36764266  0.37485307  1
  O  O284  1  0.12702476  0.37419393  0.86175264  1
  O  O285  1  0.12306146  0.86855684  0.36422689  1
  O  O286  1  0.11885441  0.86792570  0.87507945  1
  O  O287  1  0.62051817  0.36876420  0.36307715  1
  O  O288  1  0.61230044  0.38214451  0.87063689  1
  O  O289  1  0.61818325  0.87019428  0.36725616  1
  O  O290  1  0.61868690  0.86853992  0.87143954  1
  O  O291  1  0.38091727  0.12740943  0.11990245  1
  O  O292  1  0.37831594  0.12223303  0.63798363  1
  O  O293  1  0.39212466  0.62528362  0.12126615  1
  O  O294  1  0.38323352  0.63177900  0.62629294  1
  O  O295  1  0.87138220  0.13495716  0.13195075  1
  O  O296  1  0.88718447  0.12958731  0.63304917  1
  O  O297  1  0.88353785  0.63371894  0.11737717  1
  O  O298  1  0.88315321  0.61918306  0.63573807  1
  O  O299  1  0.25647083  0.25227804  0.12322700  1
  O  O300  1  0.24356420  0.26308256  0.61641827  1
  O  O301  1  0.24378851  0.75539350  0.11698564  1
  O  O302  1  0.25600694  0.75816079  0.62044397  1
  O  O303  1  0.76143683  0.25798362  0.12445713  1
  O  O304  1  0.76783241  0.24153775  0.62866927  1
  O  O305  1  0.75397178  0.75258490  0.11779996  1
  O  O306  1  0.74118752  0.75990823  0.61514888  1
  O  O307  1  0.23457727  0.25721920  0.38209993  1
  O  O308  1  0.24943363  0.24007783  0.88158222  1
  O  O309  1  0.24383262  0.75012171  0.38396439  1
  O  O310  1  0.24304246  0.74344725  0.88456984  1
  O  O311  1  0.74196336  0.23940477  0.36735407  1
  O  O312  1  0.75407203  0.23814741  0.87371369  1
  O  O313  1  0.74244394  0.73927301  0.38034706  1
  O  O314  1  0.74728242  0.74537770  0.88100460  1
  O  O315  1  0.01469232  0.12731188  -0.00684159  1
  O  O316  1  -0.00105305  0.12630172  0.51119539  1
  O  O317  1  0.00753481  0.62359311  0.00891341  1
  O  O318  1  -0.00407000  0.63220865  0.51331721  1
  O  O319  1  0.50395511  0.11894365  0.00687439  1
  O  O320  1  0.49958471  0.11205636  0.50037979  1
  O  O321  1  0.50128750  0.62343597  0.01060133  1
  O  O322  1  0.51002262  0.62457099  0.50435356  1
  O  O323  1  0.49865824  0.37818328  0.49116875  1
  O  O324  1  0.48862171  0.37368320  0.99414800  1
  O  O325  1  0.49137029  0.88216442  0.49598039  1
  O  O326  1  0.49236814  0.87973909  1.00133057  1
  O  O327  1  1.00346764  0.37184866  0.49555639  1
  O  O328  1  0.99006428  0.37424255  0.99799092  1
  O  O329  1  0.99437770  0.86732963  0.51012574  1
  O  O330  1  0.99075700  0.87299123  0.99330872  1
  O  O331  1  0.50250822  0.48947315  0.37934214  1
  O  O332  1  0.48558418  0.49103741  0.86630468  1
  O  O333  1  0.49687016  0.99212884  0.38199482  1
  O  O334  1  0.50097748  0.99392648  0.88708986  1
  O  O335  1  0.99683779  0.48413235  0.37471316  1
  O  O336  1  0.99210622  0.49817594  0.87475094  1
  O  O337  1  0.98180161  0.99502848  0.37563059  1
  O  O338  1  1.00525141  0.98599824  0.87834160  1
  O  O339  1  -0.01162632  0.00718940  0.11653356  1
  O  O340  1  0.00524100  0.01505802  0.62628312  1
  O  O341  1  0.00650942  0.50424570  0.12418487  1
  O  O342  1  0.01335456  0.51060843  0.62941479  1
  O  O343  1  0.49916879  0.00701291  0.11623364  1
  O  O344  1  0.50875856  -0.00034977  0.61542961  1
  O  O345  1  0.49746483  0.50486405  0.12687563  1
  O  O346  1  0.50248740  0.51177411  0.62124099  1
  O  O347  1  0.24612055  0.38124531  0.24147233  1
  O  O348  1  0.24832961  0.37769874  0.74359093  1
  O  O349  1  0.23925688  0.87468645  0.23951802  1
  O  O350  1  0.25619676  0.87058667  0.74271666  1
  O  O351  1  0.73787340  0.37153816  0.24355388  1
  O  O352  1  0.74861030  0.37601681  0.73820866  1
  O  O353  1  0.74156538  0.87960432  0.24664084  1
  O  O354  1  0.74407409  0.87994638  0.74628384  1
  O  O355  1  0.26592308  0.14040554  0.23463198  1
  O  O356  1  0.26414641  0.13336820  0.75575273  1
  O  O357  1  0.24640233  0.61040187  0.24540743  1
  O  O358  1  0.25170556  0.61661184  0.75608377  1
  O  O359  1  0.75258911  0.11557760  0.25567024  1
  O  O360  1  0.75615274  0.11776785  0.75645364  1
  O  O361  1  0.73955982  0.62836067  0.26041816  1
  O  O362  1  0.76286135  0.62838886  0.75576151  1
  O  O363  1  0.37850665  0.11068298  0.37553252  1
  O  O364  1  0.36747321  0.12205144  0.86823391  1
  O  O365  1  0.36703408  0.61695991  0.38265952  1
  O  O366  1  0.36901465  0.61582651  0.87646724  1
  O  O367  1  0.86777236  0.11601985  0.36916155  1
  O  O368  1  0.86763673  0.12618766  0.86397438  1
  O  O369  1  0.85854567  0.62124446  0.36812752  1
  O  O370  1  0.87460589  0.61846201  0.86713807  1
  O  O371  1  0.13523070  0.37961433  0.12360439  1
  O  O372  1  0.13306246  0.38224504  0.63489929  1
  O  O373  1  0.13380110  0.87309922  0.13815076  1
  O  O374  1  0.14066439  0.88052429  0.63430973  1
  O  O375  1  0.63351814  0.37352793  0.13757570  1
  O  O376  1  0.60450869  0.39614275  0.64056646  1
  O  O377  1  0.63131327  0.87640134  0.13253159  1
  O  O378  1  0.63218004  0.88488288  0.63047237  1
  O  O379  1  0.11443902  0.25319921  0.26271273  1
  O  O380  1  0.11960110  0.25701194  0.74842276  1
  O  O381  1  0.12273140  0.75992144  0.25984502  1
  O  O382  1  0.11526953  0.75222461  0.75829564  1
  O  O383  1  0.61785225  0.25664067  0.25559885  1
  O  O384  1  0.60985509  0.24739194  0.75073599  1
  O  O385  1  0.61901544  0.76098846  0.25346973  1
  O  O386  1  0.62035109  0.75507850  0.75695099  1
  O  O387  1  0.38012140  0.25483654  0.24900301  1
  O  O388  1  0.38890080  0.23644706  0.75288631  1
  O  O389  1  0.38537447  0.75491522  0.25460659  1
  O  O390  1  0.38298965  0.74809194  0.74424143  1
  O  O391  1  0.87865576  0.24703054  0.24447820  1
  O  O392  1  0.88518195  0.24059469  0.74250989  1
  O  O393  1  0.87365621  0.75452027  0.23684496  1
  O  O394  1  0.88983994  0.74082486  0.75438810  1
  O  O395  1  0.38337795  0.48709705  0.50037850  1
  O  O396  1  0.36398942  0.48648595  0.98916706  1
  O  O397  1  0.38258053  0.99215169  0.49399566  1
  O  O398  1  0.38245148  0.98799599  0.99663562  1
  O  O399  1  0.86939467  0.50939373  0.47728593  1
  O  O400  1  0.87861194  0.49183360  0.98966695  1
  O  O401  1  0.86589128  1.00079419  0.48816014  1
  O  O402  1  0.86964278  0.98585766  0.99789597  1
  O  O403  1  0.12514397  0.01510621  -0.00245216  1
  O  O404  1  0.12814830  -0.00958668  0.51860371  1
  O  O405  1  0.12603208  0.50302633  0.01082742  1
  O  O406  1  0.13557832  0.49662695  0.51270505  1
  O  O407  1  0.61512098  0.00564157  0.00395784  1
  O  O408  1  0.61702361  -0.00095418  0.50635846  1
  O  O409  1  0.63424624  0.49670448  0.00250320  1
  O  O410  1  0.61704451  0.51041430  0.50736742  1
  O  O411  1  0.36234465  0.37826999  0.11657399  1
  O  O412  1  0.36806672  0.37769081  0.61760950  1
  O  O413  1  0.35789007  0.87792850  0.11991373  1
  O  O414  1  0.37204513  0.87287297  0.61913397  1
  O  O415  1  0.87097436  0.36951283  0.11848082  1
  O  O416  1  0.87916257  0.35700830  0.62499703  1
  O  O417  1  0.86745119  0.86555580  0.11670074  1
  O  O418  1  0.85991443  0.87621165  0.63483177  1
  O  O419  1  0.11731455  0.13996026  0.37545535  1
  O  O420  1  0.13365191  0.12752595  0.88202873  1
  O  O421  1  0.12954796  0.63676731  0.36920315  1
  O  O422  1  0.13020661  0.62874351  0.88190148  1
  O  O423  1  0.63452609  0.12988245  0.37103097  1
  O  O424  1  0.63508871  0.11916407  0.88332212  1
  O  O425  1  0.63077294  0.62714016  0.38127662  1
  O  O426  1  0.63252115  0.63168532  0.87943550  1
