# generated using pymatgen
data_V85Zn86O256
_symmetry_space_group_name_H-M   'P 1'
_cell_length_a   16.95219064
_cell_length_b   16.95438050
_cell_length_c   16.95064187
_cell_angle_alpha   89.95986733
_cell_angle_beta   89.93887447
_cell_angle_gamma   89.88730227
_symmetry_Int_Tables_number   1
_chemical_formula_structural   V85Zn86O256
_chemical_formula_sum   'V85 Zn86 O256'
_cell_volume   4871.83653950
_cell_formula_units_Z   1
loop_
 _symmetry_equiv_pos_site_id
 _symmetry_equiv_pos_as_xyz
  1  'x, y, z'
loop_
 _atom_site_type_symbol
 _atom_site_label
 _atom_site_symmetry_multiplicity
 _atom_site_fract_x
 _atom_site_fract_y
 _atom_site_fract_z
 _atom_site_occupancy
  V  V0  1  -0.00079960  0.62276887  0.12534061  1
  V  V1  1  0.88046807  -0.00039883  0.87275714  1
  V  V2  1  0.75184997  0.74943712  0.50371483  1
  V  V3  1  0.13049995  -0.00168876  0.62574683  1
  V  V4  1  0.50363654  0.10931926  0.13082662  1
  V  V5  1  0.36615813  0.37454612  0.51146035  1
  V  V6  1  0.87372212  0.37660922  0.48783959  1
  V  V7  1  0.14076532  0.50406185  0.12373676  1
  V  V8  1  -0.00072650  0.00123842  0.49758816  1
  V  V9  1  0.00345979  0.25589063  0.25373909  1
  V  V10  1  0.11879813  0.63404061  0.51552806  1
  V  V11  1  0.37554835  0.12274724  0.76664346  1
  V  V12  1  0.49144733  0.12874282  0.62684080  1
  V  V13  1  0.48443466  0.74581988  0.74916575  1
  V  V14  1  0.62253180  0.12495817  0.50238060  1
  V  V15  1  0.12857155  -0.01073961  0.13198280  1
  V  V16  1  0.62344283  0.37967246  0.24700739  1
  V  V17  1  0.62105732  0.62458923  0.50158562  1
  V  V18  1  0.62746284  0.74593093  0.87256575  1
  V  V19  1  0.25395065  0.86906546  0.63149663  1
  V  V20  1  0.50529220  0.37954469  0.87888070  1
  V  V21  1  0.00302076  0.37583782  0.86898095  1
  V  V22  1  0.62874880  0.24244547  0.87584633  1
  V  V23  1  0.74521321  0.88409176  0.12363496  1
  V  V24  1  0.75477190  0.87354714  0.62811668  1
  V  V25  1  0.88221912  0.87582187  -0.00225134  1
  V  V26  1  0.75195596  0.61963799  0.37668872  1
  V  V27  1  0.01449488  0.75398551  0.25173915  1
  V  V28  1  0.87692043  0.50150080  0.86932406  1
  V  V29  1  0.87008986  0.25871084  0.62627746  1
  V  V30  1  0.49546206  0.37736797  0.37430323  1
  V  V31  1  0.25127265  0.24697774  0.52117235  1
  V  V32  1  0.35786997  0.49952896  0.37032553  1
  V  V33  1  0.37431000  0.61940189  0.23694440  1
  V  V34  1  0.49609247  0.50024781  0.49781692  1
  V  V35  1  0.49894821  0.87220848  0.37667856  1
  V  V36  1  0.87442927  0.87201898  0.49186491  1
  V  V37  1  0.87663529  0.62390327  0.25552142  1
  V  V38  1  0.62192582  0.25083163  0.37574345  1
  V  V39  1  0.49867832  -0.00082342  0.50412564  1
  V  V40  1  0.75066885  0.00116172  0.75554442  1
  V  V41  1  0.49472184  0.25115010  0.74907191  1
  V  V42  1  0.14062372  0.24741742  0.37282633  1
  V  V43  1  0.74681247  0.25205065  0.50583999  1
  V  V44  1  0.87814455  0.25255817  0.12457295  1
  V  V45  1  0.62574134  0.49712776  0.62456363  1
  V  V46  1  0.37779292  0.86440154  0.50755177  1
  V  V47  1  0.62218435  0.74871863  0.37410467  1
  V  V48  1  0.63073138  0.37222068  0.74468051  1
  V  V49  1  0.23997074  0.63729526  0.36780994  1
  V  V50  1  0.62865494  0.87017200  0.75070108  1
  V  V51  1  0.74770571  0.61917383  0.86854590  1
  V  V52  1  0.50017099  0.74307059  0.23886218  1
  V  V53  1  0.86909017  0.12404692  0.75381103  1
  V  V54  1  0.24064255  0.75945251  -0.00461212  1
  V  V55  1  0.00067503  0.24898357  0.74845714  1
  V  V56  1  0.75058837  0.74841551  -0.00070123  1
  V  V57  1  0.12962760  0.12525417  0.00052221  1
  V  V58  1  0.62626879  0.61797040  0.01297572  1
  V  V59  1  0.36809771  0.75283248  0.12039462  1
  V  V60  1  0.74698436  0.38051187  0.12405173  1
  V  V61  1  0.12094296  0.62790104  -0.01345893  1
  V  V62  1  0.48309523  0.62768568  0.62748299  1
  V  V63  1  0.75113459  0.24363676  -0.00166192  1
  V  V64  1  0.87357817  0.75213036  0.12689038  1
  V  V65  1  0.87435250  0.37634250  -0.00178776  1
  V  V66  1  0.62754713  0.11451909  0.00522022  1
  V  V67  1  0.01879153  0.87478215  0.36881603  1
  V  V68  1  0.50958516  0.49863784  0.02160064  1
  V  V69  1  0.00324725  0.12742680  0.12498753  1
  V  V70  1  0.88118945  0.62580691  0.72873321  1
  V  V71  1  0.37634011  0.24540001  0.12651593  1
  V  V72  1  0.36470780  0.12465603  0.25771621  1
  V  V73  1  0.75050076  0.12255327  0.37399429  1
  V  V74  1  0.25579393  0.00533912  0.76593063  1
  V  V75  1  0.74809676  0.50107781  0.24977939  1
  V  V76  1  0.50011374  0.24901934  0.25024013  1
  V  V77  1  0.12835297  0.24485283  0.87360989  1
  V  V78  1  0.25357923  0.24669797  -0.00410414  1
  V  V79  1  0.49451600  0.88112069  0.87701345  1
  V  V80  1  0.11942699  0.87690382  0.77081543  1
  V  V81  1  -0.00335255  0.12050197  0.62401081  1
  V  V82  1  0.37682981  0.37489907  0.00141195  1
  V  V83  1  0.61997699  0.88376478  0.24540306  1
  V  V84  1  0.36566277  0.00408135  0.38002162  1
  Zn  Zn85  1  0.36468762  0.88560588  0.00155213  1
  Zn  Zn86  1  0.24802849  0.75287223  0.50032281  1
  Zn  Zn87  1  0.00187724  -0.00142462  -0.00034707  1
  Zn  Zn88  1  0.62531120  0.00075474  0.62771573  1
  Zn  Zn89  1  0.74791165  0.00424145  0.24613288  1
  Zn  Zn90  1  0.13537303  0.12063811  0.49402815  1
  Zn  Zn91  1  0.75309568  0.49156889  0.74184409  1
  Zn  Zn92  1  0.00492792  0.74579844  0.74831019  1
  Zn  Zn93  1  0.12202635  0.48942047  0.62208236  1
  Zn  Zn94  1  0.49550694  -0.00189438  0.00277521  1
  Zn  Zn95  1  0.37822393  0.50905693  0.86610840  1
  Zn  Zn96  1  -0.00400759  0.51218396  0.49357419  1
  Zn  Zn97  1  0.26710513  0.63113373  0.86557873  1
  Zn  Zn98  1  -0.00044873  0.50026051  -0.00170538  1
  Zn  Zn99  1  0.87455151  0.12505562  0.24953238  1
  Zn  Zn100  1  0.25914306  0.50609289  0.73151597  1
  Zn  Zn101  1  0.25074778  0.37625849  0.12484784  1
  Zn  Zn102  1  0.13697037  0.38905217  0.25979490  1
  Zn  Zn103  1  0.00271538  0.38112703  0.37362614  1
  Zn  Zn104  1  0.15243930  0.36816717  0.72484974  1
  Zn  Zn105  1  0.87564940  0.00087704  0.36914297  1
  Zn  Zn106  1  0.23765638  -0.01097952  0.25627173  1
  Zn  Zn107  1  0.18937563  0.18878771  0.18746843  1
  Zn  Zn108  1  0.18576764  0.18005550  0.68978682  1
  Zn  Zn109  1  0.19184401  0.68546401  0.18210562  1
  Zn  Zn110  1  0.18827852  0.69185524  0.69728334  1
  Zn  Zn111  1  0.68636352  0.19029125  0.18591191  1
  Zn  Zn112  1  0.68413801  0.18505572  0.68659938  1
  Zn  Zn113  1  0.68977242  0.69341404  0.18914132  1
  Zn  Zn114  1  0.68705783  0.68398265  0.68653866  1
  Zn  Zn115  1  0.30991869  0.31725994  0.30906780  1
  Zn  Zn116  1  0.31850161  0.31317517  0.81363966  1
  Zn  Zn117  1  0.31307509  0.81359611  0.31022322  1
  Zn  Zn118  1  0.30904924  0.81618496  0.81689016  1
  Zn  Zn119  1  0.80908297  0.30603337  0.31022949  1
  Zn  Zn120  1  0.81186271  0.31088766  0.81358993  1
  Zn  Zn121  1  0.80998047  0.81095905  0.31168250  1
  Zn  Zn122  1  0.84544198  0.79517532  0.82432482  1
  Zn  Zn123  1  0.18237675  0.43810735  0.44904407  1
  Zn  Zn124  1  0.20274833  0.42677626  0.89616950  1
  Zn  Zn125  1  0.19058906  0.93490116  0.44366450  1
  Zn  Zn126  1  0.18937822  0.94491712  0.94465785  1
  Zn  Zn127  1  0.68785222  0.43625574  0.43748213  1
  Zn  Zn128  1  0.68851915  0.43579137  0.93549136  1
  Zn  Zn129  1  0.68409120  0.93748628  0.43640426  1
  Zn  Zn130  1  0.69231514  0.93620123  0.93317410  1
  Zn  Zn131  1  0.31304527  0.06005129  0.06375119  1
  Zn  Zn132  1  0.31451357  0.06260898  0.56910987  1
  Zn  Zn133  1  0.30840589  0.55981453  0.01671978  1
  Zn  Zn134  1  0.30102396  0.56282012  0.55744942  1
  Zn  Zn135  1  0.81565774  0.06259282  0.06368992  1
  Zn  Zn136  1  0.81304976  0.06037478  0.56454498  1
  Zn  Zn137  1  0.81388916  0.56164305  0.06120872  1
  Zn  Zn138  1  0.80703768  0.55470535  0.55853665  1
  Zn  Zn139  1  0.43255560  0.43666271  0.18715791  1
  Zn  Zn140  1  0.43892130  0.44078824  0.68843024  1
  Zn  Zn141  1  0.40711638  0.92590493  0.20014715  1
  Zn  Zn142  1  0.43742885  0.93749001  0.69156626  1
  Zn  Zn143  1  0.93702816  0.43971006  0.19106182  1
  Zn  Zn144  1  0.94607763  0.44177378  0.68091480  1
  Zn  Zn145  1  0.93667342  0.94148610  0.18812751  1
  Zn  Zn146  1  0.95623141  0.90221131  0.66821466  1
  Zn  Zn147  1  0.06225289  0.06826061  0.31211283  1
  Zn  Zn148  1  0.06125797  0.05990083  0.81146053  1
  Zn  Zn149  1  0.06059739  0.55840248  0.31421905  1
  Zn  Zn150  1  0.06612774  0.55937615  0.79941797  1
  Zn  Zn151  1  0.55709761  0.06185870  0.31729866  1
  Zn  Zn152  1  0.56596479  0.06231471  0.81301906  1
  Zn  Zn153  1  0.56058167  0.56136359  0.31089147  1
  Zn  Zn154  1  0.55878016  0.56193620  0.81085468  1
  Zn  Zn155  1  0.43162197  0.19077796  0.44046909  1
  Zn  Zn156  1  0.44546473  0.18595348  0.94150648  1
  Zn  Zn157  1  0.43383714  0.68318424  0.43180588  1
  Zn  Zn158  1  0.44471322  0.69328863  0.94312273  1
  Zn  Zn159  1  0.93786018  0.18985272  0.43540598  1
  Zn  Zn160  1  0.93898290  0.18512066  0.93557566  1
  Zn  Zn161  1  0.93887649  0.69314501  0.43496956  1
  Zn  Zn162  1  0.94209172  0.69040175  0.93065688  1
  Zn  Zn163  1  0.06405084  0.31698497  0.05877911  1
  Zn  Zn164  1  0.05746667  0.31066357  0.56018746  1
  Zn  Zn165  1  0.06140546  0.81050028  0.06441629  1
  Zn  Zn166  1  0.06457912  0.80426940  0.56745522  1
  Zn  Zn167  1  0.56474983  0.30696726  0.06537792  1
  Zn  Zn168  1  0.55563742  0.31286475  0.56313320  1
  Zn  Zn169  1  0.56307539  0.80884467  0.06230654  1
  Zn  Zn170  1  0.56350483  0.80932408  0.56789185  1
  O  O171  1  0.11549638  0.12585694  0.11942471  1
  O  O172  1  0.11651031  0.11317753  0.62323120  1
  O  O173  1  0.11564013  0.61981557  0.11994614  1
  O  O174  1  0.12301369  0.63409374  0.61550646  1
  O  O175  1  0.61670981  0.12972907  0.11723521  1
  O  O176  1  0.61197829  0.12223449  0.61966085  1
  O  O177  1  0.63883215  0.62593818  0.11083371  1
  O  O178  1  0.61767857  0.61692853  0.61758042  1
  O  O179  1  0.37832581  0.38284821  0.37887802  1
  O  O180  1  0.39051475  0.37062968  0.89076832  1
  O  O181  1  0.38364379  0.88426010  0.38877734  1
  O  O182  1  0.39218122  0.87088321  0.87926171  1
  O  O183  1  0.87049987  0.36600229  0.38584171  1
  O  O184  1  0.87862432  0.38387667  0.87695124  1
  O  O185  1  0.87093896  0.87908794  0.38376279  1
  O  O186  1  0.85994935  0.88958089  0.88824588  1
  O  O187  1  0.26207821  -0.00176010  0.37719314  1
  O  O188  1  0.24984622  0.00303051  0.86443506  1
  O  O189  1  0.25608395  0.50786927  0.37834478  1
  O  O190  1  0.26549280  0.51440636  0.91159633  1
  O  O191  1  0.74657581  0.01416115  0.37656563  1
  O  O192  1  0.75640485  0.00139103  0.86160004  1
  O  O193  1  0.74647200  0.51270145  0.36936298  1
  O  O194  1  0.75766628  0.50276597  0.87045031  1
  O  O195  1  0.24086376  0.50603457  0.11208099  1
  O  O196  1  0.23931709  0.49674329  0.61858212  1
  O  O197  1  0.23041898  1.00632541  0.12666940  1
  O  O198  1  0.24463550  0.99470086  0.63287378  1
  O  O199  1  0.75486315  0.48797412  0.13149321  1
  O  O200  1  0.73062699  0.49860232  0.62373771  1
  O  O201  1  0.75001406  0.98787943  0.12449353  1
  O  O202  1  0.74678723  0.99164938  0.63408502  1
  O  O203  1  0.00572567  0.36551909  0.24771058  1
  O  O204  1  -0.00898563  0.36526299  0.76101993  1
  O  O205  1  -0.00539403  0.86979269  0.26247355  1
  O  O206  1  0.02235478  0.90505042  0.76191295  1
  O  O207  1  0.50239850  0.36909829  0.25601208  1
  O  O208  1  0.50792413  0.36668571  0.75888658  1
  O  O209  1  0.50390410  0.86415827  0.25549385  1
  O  O210  1  0.50851676  0.86816702  0.75793517  1
  O  O211  1  0.50052305  0.13421693  0.24645714  1
  O  O212  1  0.49677998  0.13043964  0.74622046  1
  O  O213  1  0.48906205  0.63323620  0.25749170  1
  O  O214  1  0.50186737  0.63422658  0.74118106  1
  O  O215  1  0.99970965  0.13938570  0.24165522  1
  O  O216  1  0.99194385  0.12925835  0.74364092  1
  O  O217  1  0.99214845  0.63294623  0.24529665  1
  O  O218  1  0.98495286  0.62684772  0.74721583  1
  O  O219  1  0.37153658  0.25049581  0.00523293  1
  O  O220  1  0.36208554  0.26217747  0.49841938  1
  O  O221  1  0.36151070  0.75186901  0.00693967  1
  O  O222  1  0.37722861  0.76239723  0.49751839  1
  O  O223  1  0.86750738  0.25425042  0.00221215  1
  O  O224  1  0.86387257  0.25102360  0.50736984  1
  O  O225  1  0.86782050  0.75708997  0.00598362  1
  O  O226  1  0.86326765  0.75860935  0.49467796  1
  O  O227  1  0.14021066  0.24692064  0.49184023  1
  O  O228  1  0.13386049  0.24460482  0.99621501  1
  O  O229  1  0.12891173  0.74187175  0.49939149  1
  O  O230  1  0.13130025  0.74463846  1.00425932  1
  O  O231  1  0.62894613  0.24649928  0.49713460  1
  O  O232  1  0.63280938  0.24223504  0.99393809  1
  O  O233  1  0.62976873  0.74552156  0.49295212  1
  O  O234  1  0.63102658  0.73651786  0.99358344  1
  O  O235  1  0.49370541  0.24242053  0.13260985  1
  O  O236  1  0.50366583  0.24128602  0.63734169  1
  O  O237  1  0.50007978  0.74288935  0.13517211  1
  O  O238  1  0.50391320  0.73987712  0.63699485  1
  O  O239  1  0.99885398  0.24719959  0.12933565  1
  O  O240  1  0.98930745  0.24078415  0.62921924  1
  O  O241  1  0.99253166  0.74232686  0.13254971  1
  O  O242  1  0.98800930  0.79328030  0.64436438  1
  O  O243  1  0.00722386  0.25366482  0.36590443  1
  O  O244  1  0.00530136  0.25465923  0.86782279  1
  O  O245  1  -0.00210375  0.76751879  0.36614875  1
  O  O246  1  -0.04415080  0.76409269  0.85073796  1
  O  O247  1  0.50326214  0.25673678  0.37149159  1
  O  O248  1  0.51018964  0.25914487  0.87189996  1
  O  O249  1  0.50406469  0.75456687  0.36851396  1
  O  O250  1  0.50962813  0.75694203  0.86835099  1
  O  O251  1  0.25461003  0.14134340  0.50767777  1
  O  O252  1  0.23731223  0.13101009  1.00522568  1
  O  O253  1  0.23986923  0.63379762  0.48515320  1
  O  O254  1  0.22827706  0.64137105  1.00276194  1
  O  O255  1  0.74352522  0.13217067  0.49577146  1
  O  O256  1  0.74418605  0.13706851  1.00996776  1
  O  O257  1  0.74462435  0.63048568  0.49366494  1
  O  O258  1  0.74364337  0.62442300  0.98890531  1
  O  O259  1  0.26423911  0.36430600  0.00193186  1
  O  O260  1  0.26087658  0.36430006  0.49639752  1
  O  O261  1  0.24668616  0.86422098  0.00195045  1
  O  O262  1  0.26045452  0.87375200  0.51150770  1
  O  O263  1  0.75337105  0.36727158  0.00724524  1
  O  O264  1  0.75570597  0.35954812  0.49441104  1
  O  O265  1  0.75229858  0.86880832  0.00747271  1
  O  O266  1  0.75283294  0.86809509  0.50277059  1
  O  O267  1  0.12088256  0.50384969  0.22787147  1
  O  O268  1  0.12378566  0.48450055  0.74444294  1
  O  O269  1  0.12300687  1.00494541  0.23804656  1
  O  O270  1  0.14001760  1.00166654  0.74577925  1
  O  O271  1  0.63889502  0.49638746  0.25343650  1
  O  O272  1  0.62180184  0.48846509  0.74219639  1
  O  O273  1  0.62347452  0.98614859  0.25672905  1
  O  O274  1  0.63307936  0.99069753  0.75005359  1
  O  O275  1  0.39592987  0.01630182  0.27041965  1
  O  O276  1  0.36385439  0.00599380  0.75090915  1
  O  O277  1  0.37993317  0.50831442  0.25822954  1
  O  O278  1  0.37384478  0.49681638  0.75526458  1
  O  O279  1  0.86781085  0.00646327  0.25170973  1
  O  O280  1  0.86825809  0.00618332  0.75643642  1
  O  O281  1  0.86325394  0.51396979  0.24595863  1
  O  O282  1  0.87262609  0.50484887  0.75269751  1
  O  O283  1  0.12472993  0.36264676  0.37704143  1
  O  O284  1  0.11211027  0.35934199  0.88615945  1
  O  O285  1  0.11737937  0.87877661  0.37376581  1
  O  O286  1  0.12940318  0.88276105  0.86934376  1
  O  O287  1  0.61732753  0.37082039  0.36899910  1
  O  O288  1  0.62126138  0.36423223  0.86995189  1
  O  O289  1  0.61873413  0.86778241  0.36822016  1
  O  O290  1  0.62488932  0.86765403  0.86340993  1
  O  O291  1  0.38365737  0.12869553  0.13709624  1
  O  O292  1  0.38833086  0.12043517  0.63770742  1
  O  O293  1  0.37083733  0.63265481  0.13457300  1
  O  O294  1  0.38527421  0.62280137  0.61213144  1
  O  O295  1  0.88763270  0.13337566  0.12298117  1
  O  O296  1  0.87901119  0.12917371  0.63433056  1
  O  O297  1  0.87923163  0.63198222  0.13064303  1
  O  O298  1  0.87119547  0.61304266  0.63059479  1
  O  O299  1  0.25858728  0.24751668  0.11353163  1
  O  O300  1  0.24898638  0.24932364  0.61971982  1
  O  O301  1  0.25833901  0.74977742  0.11342731  1
  O  O302  1  0.24749727  0.76657002  0.62851576  1
  O  O303  1  0.75725585  0.25996474  0.11918603  1
  O  O304  1  0.75544026  0.24304649  0.61590103  1
  O  O305  1  0.75595125  0.75906258  0.11916204  1
  O  O306  1  0.74035841  0.75698193  0.61049840  1
  O  O307  1  0.24162169  0.24869103  0.37673688  1
  O  O308  1  0.24345046  0.24908026  0.88782191  1
  O  O309  1  0.25640049  0.74061853  0.37543897  1
  O  O310  1  0.25216722  0.74973941  0.89155111  1
  O  O311  1  0.74127636  0.23944471  0.38172693  1
  O  O312  1  0.74208208  0.25373786  0.88671940  1
  O  O313  1  0.74195352  0.74078094  0.38217112  1
  O  O314  1  0.74873951  0.73761944  0.88035822  1
  O  O315  1  0.01090268  0.12842918  0.00823178  1
  O  O316  1  -0.00215224  0.11259902  0.50327323  1
  O  O317  1  0.00554469  0.63338999  0.00806776  1
  O  O318  1  0.01526903  0.63339780  0.49278869  1
  O  O319  1  0.51053889  0.12235612  0.01264662  1
  O  O320  1  0.50034167  0.12008940  0.50825107  1
  O  O321  1  0.51965634  0.61473166  0.00142345  1
  O  O322  1  0.50387598  0.62015594  0.50344519  1
  O  O323  1  0.48811418  0.37750008  0.49161239  1
  O  O324  1  0.50327417  0.37892644  0.99632618  1
  O  O325  1  0.49639009  0.88136312  0.50162806  1
  O  O326  1  0.51237641  0.87494112  0.98293852  1
  O  O327  1  0.97826371  0.35994631  0.49297061  1
  O  O328  1  0.99014849  0.37454753  0.98750127  1
  O  O329  1  0.99305695  0.88170292  0.48539608  1
  O  O330  1  0.98539595  0.87613860  1.00531993  1
  O  O331  1  0.49217291  0.49483344  0.38123373  1
  O  O332  1  0.50538137  0.48679819  0.88294757  1
  O  O333  1  0.49684056  0.99345781  0.39126167  1
  O  O334  1  0.50679175  0.98293345  0.87217199  1
  O  O335  1  0.99886284  0.49447788  0.37989678  1
  O  O336  1  0.99280129  0.49143613  0.87410933  1
  O  O337  1  1.00058569  0.99127595  0.37897560  1
  O  O338  1  0.98435158  1.00933728  0.88120669  1
  O  O339  1  0.00711251  0.01187257  0.12366332  1
  O  O340  1  0.00707340  -0.00221737  0.61367345  1
  O  O341  1  -0.00573138  0.51544093  0.12139374  1
  O  O342  1  0.00621173  0.49217960  0.60530216  1
  O  O343  1  0.49725555  0.00905866  0.13168419  1
  O  O344  1  0.50171801  0.00461203  0.61756080  1
  O  O345  1  0.51156724  0.49085595  0.12063589  1
  O  O346  1  0.50700628  0.50788849  0.61712039  1
  O  O347  1  0.24741318  0.37376975  0.23785006  1
  O  O348  1  0.24374643  0.39019929  0.78841499  1
  O  O349  1  0.29853812  0.89595276  0.23986487  1
  O  O350  1  0.24533541  0.88786993  0.74925526  1
  O  O351  1  0.74759352  0.38297238  0.24471691  1
  O  O352  1  0.73485969  0.37191303  0.75192502  1
  O  O353  1  0.73850259  0.87407313  0.24185939  1
  O  O354  1  0.74612347  0.87862094  0.74162652  1
  O  O355  1  0.26311162  0.11801712  0.24787007  1
  O  O356  1  0.26063111  0.11408352  0.74847522  1
  O  O357  1  0.26007373  0.62969417  0.25913212  1
  O  O358  1  0.23612574  0.61706644  0.76041577  1
  O  O359  1  0.74787602  0.12623863  0.25914409  1
  O  O360  1  0.75674128  0.11436088  0.74262684  1
  O  O361  1  0.75440317  0.62046750  0.25646615  1
  O  O362  1  0.74965437  0.61448298  0.75888991  1
  O  O363  1  0.37992164  0.11744202  0.37073210  1
  O  O364  1  0.38579285  0.12547954  0.86557154  1
  O  O365  1  0.36457466  0.61613661  0.36776522  1
  O  O366  1  0.37379624  0.61615611  0.91001683  1
  O  O367  1  0.86374236  0.12555599  0.37365466  1
  O  O368  1  0.87468198  0.12170290  0.86125091  1
  O  O369  1  0.86483385  0.63242406  0.36645095  1
  O  O370  1  0.86683284  0.61100932  0.87021847  1
  O  O371  1  0.12543150  0.39761063  0.11361536  1
  O  O372  1  0.13012652  0.36923540  0.61560778  1
  O  O373  1  0.11712464  0.89119253  0.12399905  1
  O  O374  1  0.13534521  0.88898289  0.63099895  1
  O  O375  1  0.63708988  0.36719401  0.13372205  1
  O  O376  1  0.61378550  0.38206621  0.63431596  1
  O  O377  1  0.63217704  0.86710511  0.13433236  1
  O  O378  1  0.63346187  0.87556892  0.63589031  1
  O  O379  1  0.12203030  0.25155114  0.26016606  1
  O  O380  1  0.12239272  0.25086350  0.75827997  1
  O  O381  1  0.11298285  0.74830553  0.24052660  1
  O  O382  1  0.12199364  0.77306530  0.75267906  1
  O  O383  1  0.61963303  0.25828778  0.25695067  1
  O  O384  1  0.61755491  0.25230268  0.75741208  1
  O  O385  1  0.61767534  0.75399773  0.25642022  1
  O  O386  1  0.62354227  0.75575058  0.75503609  1
  O  O387  1  0.38109519  0.24161510  0.24843160  1
  O  O388  1  0.38796580  0.24315748  0.75666276  1
  O  O389  1  0.38353462  0.74087667  0.24218029  1
  O  O390  1  0.38563836  0.75528555  0.75460194  1
  O  O391  1  0.88412345  0.24942796  0.24203428  1
  O  O392  1  0.87574446  0.24268307  0.74349068  1
  O  O393  1  0.87662330  0.74046911  0.24443394  1
  O  O394  1  0.85277375  0.72334154  0.73522385  1
  O  O395  1  0.37564768  0.48939457  0.49023064  1
  O  O396  1  0.39524147  0.48415834  1.01277271  1
  O  O397  1  0.38224338  0.99589772  0.49713851  1
  O  O398  1  0.38121049  0.99709322  1.00458025  1
  O  O399  1  0.86674922  0.47827869  0.49957365  1
  O  O400  1  0.87694273  0.49435946  0.98911098  1
  O  O401  1  0.88331579  0.99343136  0.49583916  1
  O  O402  1  0.87453894  0.99435511  0.99240984  1
  O  O403  1  0.12101270  0.00977077  0.01027639  1
  O  O404  1  0.12001990  0.00205318  0.50736059  1
  O  O405  1  0.11612376  0.51956243  0.00971494  1
  O  O406  1  0.12568551  0.52434439  0.49636446  1
  O  O407  1  0.62626973  0.01280819  -0.00721943  1
  O  O408  1  0.61548541  0.00564076  0.50296165  1
  O  O409  1  0.62499571  0.50956703  -0.00159013  1
  O  O410  1  0.61689953  0.50219221  0.50455085  1
  O  O411  1  0.37885606  0.36267458  0.11589904  1
  O  O412  1  0.38333178  0.37647265  0.60871583  1
  O  O413  1  0.39674159  0.85399582  0.11262822  1
  O  O414  1  0.36747517  0.88304036  0.61886957  1
  O  O415  1  0.86958642  0.37091910  0.11903473  1
  O  O416  1  0.87386727  0.36069649  0.61773307  1
  O  O417  1  0.86663950  0.87186462  0.11870443  1
  O  O418  1  0.85854715  0.88321778  0.60783264  1
  O  O419  1  0.12086305  0.14191977  0.37856183  1
  O  O420  1  0.11768256  0.13698205  0.88385857  1
  O  O421  1  0.14014107  0.62635435  0.36499432  1
  O  O422  1  0.11078909  0.62495676  0.88740834  1
  O  O423  1  0.62723065  0.13124946  0.38360970  1
  O  O424  1  0.61960237  0.13681440  0.88396741  1
  O  O425  1  0.63070138  0.62939045  0.38122767  1
  O  O426  1  0.63282693  0.62618561  0.87887774  1
