# generated using pymatgen
data_V85Zn86O256
_symmetry_space_group_name_H-M   'P 1'
_cell_length_a   16.93276480
_cell_length_b   16.92404536
_cell_length_c   16.92355334
_cell_angle_alpha   89.99421377
_cell_angle_beta   90.00835328
_cell_angle_gamma   90.01909281
_symmetry_Int_Tables_number   1
_chemical_formula_structural   V85Zn86O256
_chemical_formula_sum   'V85 Zn86 O256'
_cell_volume   4849.79722092
_cell_formula_units_Z   1
loop_
 _symmetry_equiv_pos_site_id
 _symmetry_equiv_pos_as_xyz
  1  'x, y, z'
loop_
 _atom_site_type_symbol
 _atom_site_label
 _atom_site_symmetry_multiplicity
 _atom_site_fract_x
 _atom_site_fract_y
 _atom_site_fract_z
 _atom_site_occupancy
  V  V0  1  0.00586239  0.25084543  0.74790770  1
  V  V1  1  0.11405477  0.74889900  0.37002524  1
  V  V2  1  0.12969737  0.50305436  0.13564669  1
  V  V3  1  0.37906785  0.62758142  0.74773935  1
  V  V4  1  0.75089539  0.87142535  0.11205293  1
  V  V5  1  0.12238505  0.87566566  0.75077821  1
  V  V6  1  0.00068767  0.36614104  0.37151057  1
  V  V7  1  0.87759115  0.36931150  0.00100679  1
  V  V8  1  0.12313842  0.62229063  0.51239816  1
  V  V9  1  0.87600490  0.75127507  0.10842751  1
  V  V10  1  0.36956561  0.00110205  0.37698912  1
  V  V11  1  -0.00304444  0.87506171  0.88026077  1
  V  V12  1  0.25490149  0.87755144  0.62276238  1
  V  V13  1  0.49490023  0.37169684  0.87777667  1
  V  V14  1  0.12648158  0.75263991  0.87291357  1
  V  V15  1  0.86703301  0.00171616  0.37350669  1
  V  V16  1  0.49296916  0.49770926  0.00107168  1
  V  V17  1  0.50584959  0.37597060  0.37478603  1
  V  V18  1  0.49742457  0.50080582  0.50123618  1
  V  V19  1  0.75065909  0.62493707  0.37609894  1
  V  V20  1  0.37462127  0.25376031  0.11901582  1
  V  V21  1  0.49477071  0.87319824  0.37590123  1
  V  V22  1  0.62974568  0.12200064  0.49265381  1
  V  V23  1  0.25201874  0.86797684  0.12824893  1
  V  V24  1  0.12538366  0.62652997  -0.00089067  1
  V  V25  1  0.87207898  0.51032765  0.87365702  1
  V  V26  1  0.49835000  -0.00019253  -0.00071769  1
  V  V27  1  0.12675545  0.37284861  0.24974992  1
  V  V28  1  0.49553063  -0.00253827  0.50082288  1
  V  V29  1  0.75375766  0.00152349  0.75146108  1
  V  V30  1  0.62296600  0.49955409  0.62591120  1
  V  V31  1  0.62058548  0.87039172  0.75212091  1
  V  V32  1  0.37976794  0.75296478  0.62553023  1
  V  V33  1  0.62663100  -0.00120422  0.62595194  1
  V  V34  1  0.24939546  0.62617615  0.87215846  1
  V  V35  1  0.23639929  0.37396067  0.62278917  1
  V  V36  1  0.87815266  0.63716919  0.25335976  1
  V  V37  1  0.50208095  0.25129431  0.24867795  1
  V  V38  1  0.62556231  0.12983470  0.00231680  1
  V  V39  1  0.00254668  0.50131113  0.51300891  1
  V  V40  1  0.87426071  0.24867344  0.62521693  1
  V  V41  1  0.13979384  0.12806911  0.49347216  1
  V  V42  1  0.24574808  0.00183778  0.24565900  1
  V  V43  1  0.24853123  0.62182254  0.36855947  1
  V  V44  1  0.12239149  0.00331932  0.62375847  1
  V  V45  1  0.36964783  0.49365108  0.87238709  1
  V  V46  1  0.00328559  0.63242664  0.12915619  1
  V  V47  1  0.74658386  0.49824803  0.25518078  1
  V  V48  1  0.62239559  0.62711003  0.49963461  1
  V  V49  1  0.49661560  0.24092431  0.74927242  1
  V  V50  1  0.25210072  0.37785607  0.11931124  1
  V  V51  1  0.87474795  -0.00202493  0.88505012  1
  V  V52  1  0.75179108  0.24620978  0.49247098  1
  V  V53  1  0.23274752  0.49903447  0.74242036  1
  V  V54  1  0.75603092  0.74885561  0.50322080  1
  V  V55  1  0.37255403  0.24640442  0.62522410  1
  V  V56  1  0.14136929  0.24636613  0.37313572  1
  V  V57  1  0.00559753  0.49850860  -0.00040684  1
  V  V58  1  0.36985143  0.49899826  0.36686851  1
  V  V59  1  0.75213315  0.12845876  0.87659931  1
  V  V60  1  0.00261493  -0.00133610  0.01069319  1
  V  V61  1  0.37182101  0.01092355  0.87270337  1
  V  V62  1  0.87847714  0.87279929  0.50395748  1
  V  V63  1  0.62675981  0.37248999  0.74893011  1
  V  V64  1  0.37506762  0.86874384  0.00451117  1
  V  V65  1  0.49704736  0.86787203  0.87237217  1
  V  V66  1  0.00751267  0.13296875  0.13247498  1
  V  V67  1  0.00263711  0.00312965  0.49367496  1
  V  V68  1  0.62911636  0.73697895  0.87843488  1
  V  V69  1  0.13320879  0.12265344  -0.00041853  1
  V  V70  1  0.37185762  0.37029401  0.50142851  1
  V  V71  1  0.76202242  0.86347307  0.63720954  1
  V  V72  1  0.37021239  0.12729934  0.25409100  1
  V  V73  1  0.62540221  0.00048672  0.12623233  1
  V  V74  1  0.48668070  0.62831981  0.11926350  1
  V  V75  1  0.25391343  0.75310013  0.49674095  1
  V  V76  1  0.86880985  0.13257406  0.25255250  1
  V  V77  1  0.25245282  0.01416836  0.75316084  1
  V  V78  1  0.75226227  0.51296142  0.75186427  1
  V  V79  1  0.88241382  0.50380635  0.37545514  1
  V  V80  1  0.11786391  0.87560132  0.24585498  1
  V  V81  1  0.66272214  0.53122516  0.07906727  1
  V  V82  1  0.62593719  0.87202122  0.25026597  1
  V  V83  1  0.00510843  0.37580127  0.86915181  1
  V  V84  1  0.13213460  0.24763293  0.87272960  1
  Zn  Zn85  1  0.25577124  0.74765615  0.00312019  1
  Zn  Zn86  1  0.50015417  0.12737170  0.12605915  1
  Zn  Zn87  1  0.75247767  0.25158535  0.00332561  1
  Zn  Zn88  1  0.87735193  0.25470508  0.13125314  1
  Zn  Zn89  1  0.00148760  0.12580647  0.62394001  1
  Zn  Zn90  1  0.88058967  0.65917563  0.72720554  1
  Zn  Zn91  1  0.49967500  0.63045757  0.62685915  1
  Zn  Zn92  1  0.49432622  0.75010302  0.24410130  1
  Zn  Zn93  1  0.62243715  0.74944026  0.37335293  1
  Zn  Zn94  1  0.62488735  0.24849183  0.87433353  1
  Zn  Zn95  1  0.49658361  0.12215349  0.62609491  1
  Zn  Zn96  1  0.63114199  0.24565082  0.36841444  1
  Zn  Zn97  1  0.36864932  0.62930597  0.24482730  1
  Zn  Zn98  1  0.87479719  0.37460684  0.49918608  1
  Zn  Zn99  1  -0.00511658  0.87213139  0.36793882  1
  Zn  Zn100  1  0.74275097  0.71632899  0.00033882  1
  Zn  Zn101  1  0.62353887  0.38157003  0.23425998  1
  Zn  Zn102  1  0.25515876  0.24968953  -0.00604071  1
  Zn  Zn103  1  0.74805357  0.00161306  0.25290657  1
  Zn  Zn104  1  0.74930667  0.37235019  0.62360338  1
  Zn  Zn105  1  0.87864144  0.12456813  0.75094269  1
  Zn  Zn106  1  0.75146763  0.37474260  0.12505308  1
  Zn  Zn107  1  0.18826168  0.18996390  0.18898576  1
  Zn  Zn108  1  0.18581120  0.19085292  0.68379992  1
  Zn  Zn109  1  0.18987135  0.69153114  0.18994840  1
  Zn  Zn110  1  0.18971664  0.69230128  0.68934469  1
  Zn  Zn111  1  0.69080608  0.19127247  0.18580720  1
  Zn  Zn112  1  0.68581490  0.18571938  0.68286492  1
  Zn  Zn113  1  0.68608314  0.68731517  0.18794240  1
  Zn  Zn114  1  0.68545126  0.68804586  0.68995093  1
  Zn  Zn115  1  0.31273874  0.31845811  0.30571029  1
  Zn  Zn116  1  0.30980829  0.31413148  0.80384735  1
  Zn  Zn117  1  0.31425622  0.81068780  0.31055432  1
  Zn  Zn118  1  0.31118620  0.81689284  0.81058016  1
  Zn  Zn119  1  0.81303351  0.31486949  0.31320001  1
  Zn  Zn120  1  0.81594530  0.31427923  0.81285642  1
  Zn  Zn121  1  0.81012426  0.81362802  0.31385916  1
  Zn  Zn122  1  0.80658697  0.81357332  0.82554798  1
  Zn  Zn123  1  0.18651108  0.43792057  0.43967761  1
  Zn  Zn124  1  0.18653628  0.43567249  0.93760167  1
  Zn  Zn125  1  0.18913722  0.93556284  0.43374950  1
  Zn  Zn126  1  0.18962910  0.94118961  0.94016350  1
  Zn  Zn127  1  0.68931860  0.43617963  0.43948881  1
  Zn  Zn128  1  0.68870995  0.43163561  0.93081001  1
  Zn  Zn129  1  0.68790530  0.93383611  0.43975506  1
  Zn  Zn130  1  0.68352626  0.93859972  0.93680611  1
  Zn  Zn131  1  0.31406693  0.05969916  0.06753835  1
  Zn  Zn132  1  0.31262392  0.06218351  0.56240376  1
  Zn  Zn133  1  0.31040966  0.55815400  0.05720107  1
  Zn  Zn134  1  0.30988145  0.56195494  0.56003883  1
  Zn  Zn135  1  0.81362591  0.06450556  0.06698360  1
  Zn  Zn136  1  0.81390083  0.06156968  0.56466955  1
  Zn  Zn137  1  0.83025352  0.56024224  0.06045156  1
  Zn  Zn138  1  0.81078448  0.55747441  0.56396035  1
  Zn  Zn139  1  0.43580855  0.43809721  0.18735819  1
  Zn  Zn140  1  0.43535303  0.43530546  0.68881600  1
  Zn  Zn141  1  0.43755971  0.93733025  0.18827967  1
  Zn  Zn142  1  0.43583720  0.93890902  0.68967988  1
  Zn  Zn143  1  0.93983513  0.44149891  0.18912719  1
  Zn  Zn144  1  0.93407739  0.43564942  0.68916853  1
  Zn  Zn145  1  0.93350816  0.93783168  0.18559135  1
  Zn  Zn146  1  0.94287741  0.82487819  0.69002124  1
  Zn  Zn147  1  0.06186044  0.06227414  0.31169968  1
  Zn  Zn148  1  0.06187667  0.06393805  0.81360117  1
  Zn  Zn149  1  0.06026122  0.56511697  0.31527742  1
  Zn  Zn150  1  0.05204302  0.57176343  0.80594945  1
  Zn  Zn151  1  0.55956497  0.06206059  0.31238159  1
  Zn  Zn152  1  0.56288959  0.06002691  0.81500463  1
  Zn  Zn153  1  0.55863086  0.56483751  0.31042735  1
  Zn  Zn154  1  0.55774532  0.55815478  0.81078482  1
  Zn  Zn155  1  0.43785420  0.18609276  0.43746628  1
  Zn  Zn156  1  0.43980092  0.18763852  0.93894344  1
  Zn  Zn157  1  0.43417258  0.68910324  0.43541807  1
  Zn  Zn158  1  0.43979135  0.68562829  0.93508890  1
  Zn  Zn159  1  0.93966156  0.18585091  0.43599472  1
  Zn  Zn160  1  0.94403203  0.18558855  0.93804561  1
  Zn  Zn161  1  0.94385474  0.68880021  0.55969332  1
  Zn  Zn162  1  0.94378298  0.67717876  0.91301385  1
  Zn  Zn163  1  0.06547403  0.31037766  0.06040696  1
  Zn  Zn164  1  0.05954145  0.30991337  0.55485240  1
  Zn  Zn165  1  0.06633747  0.81345307  0.06142861  1
  Zn  Zn166  1  0.07130971  0.81843754  0.55500709  1
  Zn  Zn167  1  0.56809307  0.32420236  0.06455664  1
  Zn  Zn168  1  0.56214511  0.30926058  0.56149860  1
  Zn  Zn169  1  0.56455170  0.81025182  0.05765751  1
  Zn  Zn170  1  0.56507276  0.81527566  0.56177992  1
  O  O171  1  0.11316988  0.12899792  0.12108737  1
  O  O172  1  0.12586573  0.12016822  0.61242295  1
  O  O173  1  0.12175124  0.62173866  0.12312007  1
  O  O174  1  0.13178012  0.63074058  0.61087866  1
  O  O175  1  0.62543521  0.11730938  0.11988659  1
  O  O176  1  0.62140754  0.11535788  0.61472590  1
  O  O177  1  0.61383359  0.60461156  0.13035268  1
  O  O178  1  0.62078030  0.61905059  0.61902617  1
  O  O179  1  0.38119167  0.38009192  0.38044823  1
  O  O180  1  0.38153304  0.38223158  0.86586313  1
  O  O181  1  0.38742524  0.88506149  0.36988471  1
  O  O182  1  0.38216946  0.88138926  0.87955333  1
  O  O183  1  0.88511653  0.38521987  0.37261947  1
  O  O184  1  0.88653851  0.37964436  0.88181011  1
  O  O185  1  0.87591421  0.88139276  0.38379527  1
  O  O186  1  0.88486132  0.88433818  0.87637630  1
  O  O187  1  0.26393254  -0.00805354  0.36512973  1
  O  O188  1  0.25939098  -0.00467935  0.86511982  1
  O  O189  1  0.25781779  0.50791326  0.38166206  1
  O  O190  1  0.25237009  0.50148549  0.86324537  1
  O  O191  1  0.76302472  -0.00414524  0.37605220  1
  O  O192  1  0.75443200  0.00926272  0.87488730  1
  O  O193  1  0.76160620  0.50291962  0.37343872  1
  O  O194  1  0.75840879  0.48924848  0.86080123  1
  O  O195  1  0.24045806  0.49376903  0.12193946  1
  O  O196  1  0.25122673  0.49165326  0.63504651  1
  O  O197  1  0.25485665  0.98874016  0.13954200  1
  O  O198  1  0.24338309  0.99472173  0.62908107  1
  O  O199  1  0.75350044  0.50131259  0.13607706  1
  O  O200  1  0.74062304  0.49381573  0.63339191  1
  O  O201  1  0.73998775  0.99204650  0.12586506  1
  O  O202  1  0.74877333  0.99161704  0.63646600  1
  O  O203  1  0.01403713  0.38350149  0.25836297  1
  O  O204  1  -0.00302632  0.36593146  0.75868382  1
  O  O205  1  0.01319882  0.88124605  0.24854140  1
  O  O206  1  0.01539642  0.88152612  0.76245242  1
  O  O207  1  0.50357573  0.37204772  0.25686532  1
  O  O208  1  0.50874967  0.37015011  0.75794247  1
  O  O209  1  0.51029743  0.87576988  0.25611926  1
  O  O210  1  0.51117407  0.88093834  0.75760637  1
  O  O211  1  0.49439377  0.13559051  0.24748805  1
  O  O212  1  0.50582259  0.13703705  0.74912335  1
  O  O213  1  0.49570693  0.61893322  0.23117226  1
  O  O214  1  0.48349190  0.62023664  0.74622932  1
  O  O215  1  0.99337210  0.11781539  0.23595351  1
  O  O216  1  0.99846342  0.13407616  0.74662064  1
  O  O217  1  0.99146736  0.62225141  0.24089246  1
  O  O218  1  0.96326173  0.63736927  0.80180498  1
  O  O219  1  0.37438343  0.24406324  0.01458469  1
  O  O220  1  0.38068831  0.26322691  0.50455625  1
  O  O221  1  0.37519628  0.76455889  -0.00770278  1
  O  O222  1  0.36045370  0.74534611  0.50695945  1
  O  O223  1  0.87974005  0.26073575  -0.00128605  1
  O  O224  1  0.86944152  0.24791751  0.50545671  1
  O  O225  1  0.86814067  0.73618318  0.00796720  1
  O  O226  1  0.86783887  0.76025639  0.49932290  1
  O  O227  1  0.12299000  0.24212825  0.48391264  1
  O  O228  1  0.12721703  0.24095124  0.99101571  1
  O  O229  1  0.13408424  0.74202904  0.48905551  1
  O  O230  1  0.13039960  0.74511955  0.98982131  1
  O  O231  1  0.63259249  0.23998342  0.49917447  1
  O  O232  1  0.62369453  0.23938354  1.00163081  1
  O  O233  1  0.62934283  0.73858907  0.49918702  1
  O  O234  1  0.62497867  0.74663933  0.98444432  1
  O  O235  1  0.49478581  0.25715897  0.13462265  1
  O  O236  1  0.49172128  0.24940263  0.63249968  1
  O  O237  1  0.50695598  0.73006612  0.11945959  1
  O  O238  1  0.48372401  0.75382714  0.61731253  1
  O  O239  1  0.99807249  0.23617989  0.12318236  1
  O  O240  1  0.99477442  0.24970525  0.63057103  1
  O  O241  1  0.99380990  0.73984186  0.11778641  1
  O  O242  1  1.00539291  0.76003818  0.62238361  1
  O  O243  1  0.00520554  0.26377831  0.37804898  1
  O  O244  1  0.00734418  0.25597298  0.86677216  1
  O  O245  1  0.01583998  0.75108647  0.37767143  1
  O  O246  1  0.01050411  0.76874827  0.88748494  1
  O  O247  1  0.49880748  0.25824540  0.36332345  1
  O  O248  1  0.49921276  0.25602109  0.86759299  1
  O  O249  1  0.50263317  0.76192922  0.37918546  1
  O  O250  1  0.50718871  0.76205761  0.87700388  1
  O  O251  1  0.23906911  0.11982227  0.49554523  1
  O  O252  1  0.23673660  0.12473019  1.00994505  1
  O  O253  1  0.23972253  0.63014201  0.49191387  1
  O  O254  1  0.24343846  0.62597289  0.99063049  1
  O  O255  1  0.74168219  0.13124767  0.50449108  1
  O  O256  1  0.74333459  0.12609325  0.99437831  1
  O  O257  1  0.74287872  0.62909323  0.49511242  1
  O  O258  1  0.72666451  0.59605972  1.02404130  1
  O  O259  1  0.24354728  0.37065782  0.01416808  1
  O  O260  1  0.25747083  0.38199566  0.51406899  1
  O  O261  1  0.25794389  0.87710766  0.01015093  1
  O  O262  1  0.24328559  0.86612429  0.50994527  1
  O  O263  1  0.76295872  0.37392989  -0.00157225  1
  O  O264  1  0.75255919  0.36387251  0.50299469  1
  O  O265  1  0.74417454  0.87518788  0.01136935  1
  O  O266  1  0.75816329  0.86671887  0.50744503  1
  O  O267  1  0.12225011  0.49723770  0.23986648  1
  O  O268  1  0.13417648  0.51083443  0.75174482  1
  O  O269  1  0.13620093  0.99017728  0.26031732  1
  O  O270  1  0.13000259  0.99666308  0.74195847  1
  O  O271  1  0.64219784  0.49979964  0.26394469  1
  O  O272  1  0.63122337  0.49360931  0.74643394  1
  O  O273  1  0.62621572  0.99464406  0.24235694  1
  O  O274  1  0.63311451  0.99527749  0.74642389  1
  O  O275  1  0.37102613  0.00878293  0.25585017  1
  O  O276  1  0.36513801  -0.00242617  0.75902784  1
  O  O277  1  0.37638447  0.50270746  0.26399439  1
  O  O278  1  0.36615586  0.50602067  0.75646139  1
  O  O279  1  0.87188385  0.00702391  0.25710035  1
  O  O280  1  0.85934770  0.00318178  0.76593971  1
  O  O281  1  0.86780579  0.50880753  0.25666132  1
  O  O282  1  0.86553967  0.49612561  0.75954029  1
  O  O283  1  0.12287496  0.36715076  0.36973530  1
  O  O284  1  0.11216255  0.36723891  0.88024741  1
  O  O285  1  0.12482470  0.86251529  0.36835496  1
  O  O286  1  0.12264955  0.87182333  0.86967112  1
  O  O287  1  0.61133253  0.37266972  0.37901998  1
  O  O288  1  0.61526823  0.36906796  0.86600763  1
  O  O289  1  0.61678450  0.87651369  0.36652045  1
  O  O290  1  0.61648505  0.87039969  0.86974632  1
  O  O291  1  0.37838567  0.13237741  0.13650519  1
  O  O292  1  0.37515094  0.14171824  0.61684389  1
  O  O293  1  0.38254747  0.62188446  0.12266903  1
  O  O294  1  0.37254028  0.63391146  0.62982705  1
  O  O295  1  0.88442902  0.12669205  0.13704208  1
  O  O296  1  0.87847827  0.13514288  0.62758069  1
  O  O297  1  0.88504598  0.63196166  0.13256265  1
  O  O298  1  0.88056611  0.62026660  0.62213032  1
  O  O299  1  0.25823994  0.25802198  0.12468624  1
  O  O300  1  0.25700829  0.26648008  0.63310015  1
  O  O301  1  0.25094144  0.76216119  0.12308222  1
  O  O302  1  0.25534204  0.75909682  0.61800221  1
  O  O303  1  0.75775349  0.25605771  0.12117955  1
  O  O304  1  0.75779946  0.24918732  0.61617154  1
  O  O305  1  0.75381630  0.75224682  0.11743808  1
  O  O306  1  0.73952109  0.75307798  0.61022220  1
  O  O307  1  0.24007430  0.25508518  0.37240710  1
  O  O308  1  0.23702211  0.25802722  0.87311954  1
  O  O309  1  0.24474725  0.74375144  0.38239160  1
  O  O310  1  0.24323266  0.74630492  0.87650360  1
  O  O311  1  0.74969364  0.25207916  0.38742375  1
  O  O312  1  0.74959233  0.23858168  0.87699464  1
  O  O313  1  0.74650856  0.74560863  0.38714708  1
  O  O314  1  0.73542249  0.74696083  0.88492125  1
  O  O315  1  0.00756027  0.11966102  0.01208215  1
  O  O316  1  0.00812617  0.11398780  0.49909466  1
  O  O317  1  0.00773941  0.61867572  0.00479327  1
  O  O318  1  0.01588394  0.61789696  0.49796040  1
  O  O319  1  0.50888502  0.11900556  0.00411054  1
  O  O320  1  0.50685345  0.11312101  0.50076560  1
  O  O321  1  0.49498539  0.61446825  0.00867067  1
  O  O322  1  0.50670252  0.62001525  0.50087405  1
  O  O323  1  0.49322489  0.37962728  0.49325894  1
  O  O324  1  0.50065762  0.37974049  0.98557590  1
  O  O325  1  0.50736271  0.88890757  0.49130528  1
  O  O326  1  0.49424374  0.88049580  0.99385892  1
  O  O327  1  1.00011819  0.38441450  0.48877700  1
  O  O328  1  0.99802233  0.37958180  0.99400663  1
  O  O329  1  0.99573705  0.88773724  0.49480268  1
  O  O330  1  1.00761487  0.88844466  0.99469213  1
  O  O331  1  0.49251644  0.49361692  0.38082215  1
  O  O332  1  0.48981628  0.49251075  0.87916062  1
  O  O333  1  0.49097463  0.99462057  0.38036532  1
  O  O334  1  0.49454491  0.98998250  0.87997512  1
  O  O335  1  0.99482652  0.49464462  0.38127809  1
  O  O336  1  0.99473240  0.49181241  0.87985322  1
  O  O337  1  0.99135240  0.99670055  0.37980186  1
  O  O338  1  0.99211277  0.99505854  0.88256865  1
  O  O339  1  -0.00587192  0.00969550  0.11512887  1
  O  O340  1  0.01775818  0.00125463  0.61459430  1
  O  O341  1  0.00840973  0.51225115  0.11979665  1
  O  O342  1  -0.00112988  0.49035158  0.61232733  1
  O  O343  1  0.51203417  0.00000343  0.11989747  1
  O  O344  1  0.50368955  -0.00047027  0.61729936  1
  O  O345  1  0.48923160  0.50332268  0.10781231  1
  O  O346  1  0.50500046  0.50073743  0.61871407  1
  O  O347  1  0.23569966  0.37507168  0.23904322  1
  O  O348  1  0.24758337  0.38998665  0.73758211  1
  O  O349  1  0.24352899  0.88026430  0.24496051  1
  O  O350  1  0.23897772  0.88363391  0.74297635  1
  O  O351  1  0.74786671  0.38431235  0.24897609  1
  O  O352  1  0.73628541  0.37386811  0.74872920  1
  O  O353  1  0.73670709  0.87457874  0.24338514  1
  O  O354  1  0.73711225  0.88619122  0.75522610  1
  O  O355  1  0.25787114  0.11599829  0.24557914  1
  O  O356  1  0.24539996  0.11318953  0.74426730  1
  O  O357  1  0.24833418  0.62544750  0.26395119  1
  O  O358  1  0.25594891  0.61438074  0.75133581  1
  O  O359  1  0.76501087  0.12198988  0.24653018  1
  O  O360  1  0.74799228  0.11898506  0.75912294  1
  O  O361  1  0.75616751  0.62046026  0.25675474  1
  O  O362  1  0.75515519  0.61526215  0.74664842  1
  O  O363  1  0.37963757  0.11824692  0.36260425  1
  O  O364  1  0.37935085  0.11038683  0.88067930  1
  O  O365  1  0.36505687  0.61448534  0.37954318  1
  O  O366  1  0.36800535  0.61960714  0.86624376  1
  O  O367  1  0.88451580  0.11730712  0.35972327  1
  O  O368  1  0.86826309  0.11893078  0.87556642  1
  O  O369  1  0.86966848  0.61561497  0.36654905  1
  O  O370  1  0.85397628  0.60249973  0.90927613  1
  O  O371  1  0.12696702  0.38233667  0.13159587  1
  O  O372  1  0.13802274  0.36963710  0.61698302  1
  O  O373  1  0.13502193  0.87090039  0.13517529  1
  O  O374  1  0.13492107  0.88370666  0.63198613  1
  O  O375  1  0.63337463  0.40582055  0.11656756  1
  O  O376  1  0.62273377  0.38121712  0.63208171  1
  O  O377  1  0.62863762  0.87986502  0.13017230  1
  O  O378  1  0.63357142  0.87816472  0.63492119  1
  O  O379  1  0.12520638  0.25728365  0.26256911  1
  O  O380  1  0.11435897  0.24611188  0.75613150  1
  O  O381  1  0.12855003  0.75795016  0.26267822  1
  O  O382  1  0.13044668  0.75946756  0.76311482  1
  O  O383  1  0.61723417  0.25636837  0.24938318  1
  O  O384  1  0.61653362  0.25655689  0.74820843  1
  O  O385  1  0.61779702  0.75717857  0.25111497  1
  O  O386  1  0.62994163  0.76071304  0.76189533  1
  O  O387  1  0.38095742  0.24523754  0.24347881  1
  O  O388  1  0.38511961  0.25622914  0.73918141  1
  O  O389  1  0.38198284  0.74227432  0.25602436  1
  O  O390  1  0.36464728  0.74069483  0.73895325  1
  O  O391  1  0.87592891  0.23623688  0.25367111  1
  O  O392  1  0.88410993  0.24816828  0.74313284  1
  O  O393  1  0.86848961  0.73945185  0.24312929  1
  O  O394  1  0.85032095  0.77325463  0.73048854  1
  O  O395  1  0.37974800  0.48997980  0.49472019  1
  O  O396  1  0.37760622  0.50084570  0.98144577  1
  O  O397  1  0.38303258  1.00484319  0.49069732  1
  O  O398  1  0.37988118  0.99209570  0.99466952  1
  O  O399  1  0.88350629  0.49787455  0.49026390  1
  O  O400  1  0.88820451  0.48489863  0.99697792  1
  O  O401  1  0.88337443  0.99792374  0.49279819  1
  O  O402  1  0.88334865  1.00695773  0.99179051  1
  O  O403  1  0.11484427  0.01044294  -0.00557451  1
  O  O404  1  0.12139843  0.00544211  0.50035586  1
  O  O405  1  0.12155292  0.50652197  0.00811773  1
  O  O406  1  0.11928140  0.51472610  0.49585022  1
  O  O407  1  0.62013807  0.01011225  0.00624384  1
  O  O408  1  0.62123464  0.00393193  0.50608771  1
  O  O409  1  0.61126652  0.49877606  -0.00872758  1
  O  O410  1  0.62090723  0.50973335  0.50451393  1
  O  O411  1  0.36408390  0.36694505  0.13236454  1
  O  O412  1  0.36904768  0.36862650  0.61760552  1
  O  O413  1  0.36880110  0.87979034  0.11590906  1
  O  O414  1  0.36240355  0.86994896  0.63116226  1
  O  O415  1  0.87920192  0.37471883  0.11685694  1
  O  O416  1  0.87289626  0.36063395  0.62230075  1
  O  O417  1  0.86426161  0.86227647  0.13082126  1
  O  O418  1  0.87285417  0.88642005  0.60992286  1
  O  O419  1  0.12173046  0.13942028  0.37633908  1
  O  O420  1  0.11897918  0.13523917  0.88612897  1
  O  O421  1  0.12991218  0.63492029  0.37913211  1
  O  O422  1  0.12939142  0.63495462  0.87649409  1
  O  O423  1  0.62107909  0.12495610  0.38749720  1
  O  O424  1  0.63265114  0.12556060  0.88484791  1
  O  O425  1  0.62968077  0.62556515  0.38340353  1
  O  O426  1  0.61624422  0.63923167  0.86569446  1
