# generated using pymatgen
data_V85Zn86O256
_symmetry_space_group_name_H-M   'P 1'
_cell_length_a   16.93843441
_cell_length_b   16.93494704
_cell_length_c   16.92418822
_cell_angle_alpha   90.01969474
_cell_angle_beta   90.05219921
_cell_angle_gamma   89.99564331
_symmetry_Int_Tables_number   1
_chemical_formula_structural   V85Zn86O256
_chemical_formula_sum   'V85 Zn86 O256'
_cell_volume   4854.72628597
_cell_formula_units_Z   1
loop_
 _symmetry_equiv_pos_site_id
 _symmetry_equiv_pos_as_xyz
  1  'x, y, z'
loop_
 _atom_site_type_symbol
 _atom_site_label
 _atom_site_symmetry_multiplicity
 _atom_site_fract_x
 _atom_site_fract_y
 _atom_site_fract_z
 _atom_site_occupancy
  V  V0  1  0.50270764  0.25298236  0.24593872  1
  V  V1  1  0.61688255  0.25277872  0.87782858  1
  V  V2  1  0.64145835  0.49443169  0.62601328  1
  V  V3  1  0.88041004  0.75077667  0.63142046  1
  V  V4  1  0.75059763  0.62556616  0.88858796  1
  V  V5  1  0.00014568  0.12304386  0.12134118  1
  V  V6  1  0.00352383  0.87736569  0.37507270  1
  V  V7  1  0.49342351  0.85490431  0.87091407  1
  V  V8  1  0.38234942  0.74808397  0.63544294  1
  V  V9  1  0.24964787  0.37734842  0.12119947  1
  V  V10  1  0.86424137  0.74646572  0.12236406  1
  V  V11  1  0.24880443  0.25135077  -0.00185445  1
  V  V12  1  0.74748732  0.11995631  0.37122139  1
  V  V13  1  0.78962088  0.45977933  0.29742856  1
  V  V14  1  0.13082703  0.88140579  0.23272871  1
  V  V15  1  0.24858574  0.11303193  0.86834114  1
  V  V16  1  0.49738085  0.13132895  0.62763478  1
  V  V17  1  0.74981940  0.62656494  0.37083442  1
  V  V18  1  0.74443903  0.87828823  0.14342029  1
  V  V19  1  0.74992933  0.75152573  0.50138350  1
  V  V20  1  0.37386015  0.12732279  0.24786806  1
  V  V21  1  0.00401005  0.25337444  0.26231815  1
  V  V22  1  0.86739955  0.49423124  0.86652264  1
  V  V23  1  0.87706139  0.24677418  0.12140200  1
  V  V24  1  0.00135772  0.75169596  0.24833275  1
  V  V25  1  -0.00287364  -0.00333721  0.00353410  1
  V  V26  1  0.74878726  0.25751833  0.50466286  1
  V  V27  1  0.63071243  0.37868703  0.75301947  1
  V  V28  1  0.12271709  0.62465214  -0.00587491  1
  V  V29  1  0.19287712  0.29860083  0.43869709  1
  V  V30  1  0.12629475  0.12530666  0.50512599  1
  V  V31  1  0.36976865  -0.00029654  0.36975272  1
  V  V32  1  0.12304422  0.24343745  0.87847354  1
  V  V33  1  0.50369299  0.12711239  0.11950376  1
  V  V34  1  0.13126315  0.37367917  0.74207702  1
  V  V35  1  0.86464241  0.62017915  0.74587159  1
  V  V36  1  0.37845954  0.25873840  0.11795819  1
  V  V37  1  0.25139369  0.88405286  0.63349960  1
  V  V38  1  -0.00613903  0.86168081  0.87100854  1
  V  V39  1  0.50775311  0.87918779  0.36717828  1
  V  V40  1  0.49758907  0.00354615  0.50005078  1
  V  V41  1  0.87422636  0.37418722  -0.00267285  1
  V  V42  1  0.74764821  0.87466981  0.62922378  1
  V  V43  1  0.62929652  0.38195104  0.24954553  1
  V  V44  1  0.25070423  0.75050936  0.00257832  1
  V  V45  1  0.40244108  0.46814124  0.87851721  1
  V  V46  1  0.62297298  0.24760174  0.37741332  1
  V  V47  1  0.86087382  0.87202160  -0.00024525  1
  V  V48  1  0.37461960  0.37205910  0.50602655  1
  V  V49  1  0.50264472  -0.00182949  -0.01411924  1
  V  V50  1  0.62566884  -0.00110523  0.13504657  1
  V  V51  1  -0.00073351  0.37094559  0.87214347  1
  V  V52  1  -0.00447316  0.62386895  0.12514083  1
  V  V53  1  0.55771995  0.53884771  0.07787858  1
  V  V54  1  0.25829590  0.61945316  0.87207402  1
  V  V55  1  0.62293336  0.00181715  0.62921903  1
  V  V56  1  0.87324055  0.12339347  0.73734366  1
  V  V57  1  -0.00434738  0.49695050  0.48792939  1
  V  V58  1  0.49658441  0.50335453  0.50289449  1
  V  V59  1  0.37161674  0.11411883  0.75174340  1
  V  V60  1  0.12453274  0.49751817  0.12597314  1
  V  V61  1  0.16865325  0.06708777  0.05327751  1
  V  V62  1  -0.00260224  0.49728640  -0.00190571  1
  V  V63  1  0.62900407  0.74210588  0.88204458  1
  V  V64  1  -0.00160995  0.24239720  0.74393947  1
  V  V65  1  0.87252658  -0.00100736  0.36861704  1
  V  V66  1  0.25966395  0.62981330  0.36937414  1
  V  V67  1  0.49958969  0.37633332  0.37526879  1
  V  V68  1  0.00063219  0.00560846  0.50768385  1
  V  V69  1  0.12778563  0.75447031  0.37218349  1
  V  V70  1  0.75256211  0.38093329  0.12620885  1
  V  V71  1  0.35800439  0.25154453  0.62375556  1
  V  V72  1  0.12414184  0.63011490  0.50210820  1
  V  V73  1  0.62404150  0.62637005  0.49691806  1
  V  V74  1  0.87710058  0.87636406  0.50135364  1
  V  V75  1  0.37348965  0.87622501  0.00594736  1
  V  V76  1  0.87085892  0.00158354  0.87339028  1
  V  V77  1  0.37360802  0.87598494  0.49971093  1
  V  V78  1  0.00395061  0.62585264  0.63274149  1
  V  V79  1  0.24336010  0.12300457  0.37459295  1
  V  V80  1  0.87340628  0.62526244  0.25512760  1
  V  V81  1  0.12239662  0.87263802  0.75042502  1
  V  V82  1  0.50308638  0.74926095  0.24230262  1
  V  V83  1  0.87276512  0.26543175  0.62347784  1
  V  V84  1  0.25252801  0.75300823  0.50156748  1
  Zn  Zn85  1  0.61755115  0.86522341  0.74979836  1
  Zn  Zn86  1  0.62554570  0.12774357  0.50419565  1
  Zn  Zn87  1  0.37849369  0.50133535  0.36952774  1
  Zn  Zn88  1  0.74508910  0.24999838  -0.00034000  1
  Zn  Zn89  1  0.13071971  0.49666788  0.62395597  1
  Zn  Zn90  1  0.37160396  0.74619713  0.12491412  1
  Zn  Zn91  1  0.74604552  0.00124354  0.75235783  1
  Zn  Zn92  1  0.62773882  0.12233527  -0.00199227  1
  Zn  Zn93  1  0.11905914  0.74293354  0.86460326  1
  Zn  Zn94  1  0.12506964  0.00575481  0.63437455  1
  Zn  Zn95  1  0.25486134  0.50231968  0.24588799  1
  Zn  Zn96  1  0.62668465  0.75637289  0.37139683  1
  Zn  Zn97  1  0.50876955  0.63051983  0.63442728  1
  Zn  Zn98  1  0.12268650  0.37540353  0.26089470  1
  Zn  Zn99  1  0.26046555  0.49551945  0.74443599  1
  Zn  Zn100  1  0.87250308  0.11797653  0.24593894  1
  Zn  Zn101  1  0.49242584  0.26060714  0.75430878  1
  Zn  Zn102  1  0.38711381  0.61528204  0.23061907  1
  Zn  Zn103  1  0.24745844  -0.00023354  0.22897694  1
  Zn  Zn104  1  0.74933279  0.12907709  0.87575699  1
  Zn  Zn105  1  0.87286890  0.38247303  0.47508055  1
  Zn  Zn106  1  0.38812255  0.62342674  0.76076553  1
  Zn  Zn107  1  0.18862020  0.19414944  0.19377926  1
  Zn  Zn108  1  0.18524710  0.18678760  0.68908953  1
  Zn  Zn109  1  0.18819689  0.68668241  0.18406266  1
  Zn  Zn110  1  0.19269147  0.69239845  0.68965738  1
  Zn  Zn111  1  0.68870061  0.18881273  0.18670220  1
  Zn  Zn112  1  0.68775095  0.19141095  0.69198089  1
  Zn  Zn113  1  0.67801882  0.68972312  0.18673311  1
  Zn  Zn114  1  0.68362987  0.68645792  0.69188961  1
  Zn  Zn115  1  0.31887644  0.32130932  0.30363473  1
  Zn  Zn116  1  0.31223385  0.30573925  0.81171087  1
  Zn  Zn117  1  0.31417226  0.81473431  0.30530156  1
  Zn  Zn118  1  0.30799657  0.81116209  0.81688338  1
  Zn  Zn119  1  0.81611613  0.29023442  0.31190996  1
  Zn  Zn120  1  0.80401461  0.31010093  0.80847168  1
  Zn  Zn121  1  0.81389502  0.81093646  0.31393993  1
  Zn  Zn122  1  0.80892457  0.80783726  0.81050461  1
  Zn  Zn123  1  0.19295077  0.45965032  0.44247291  1
  Zn  Zn124  1  0.18936434  0.43594109  0.93423646  1
  Zn  Zn125  1  0.18680989  0.93950589  0.43804231  1
  Zn  Zn126  1  0.18688961  0.92753983  0.93021919  1
  Zn  Zn127  1  0.68358507  0.43597942  0.44243847  1
  Zn  Zn128  1  0.68445078  0.43673548  0.93594493  1
  Zn  Zn129  1  0.68763194  0.94219192  0.44317914  1
  Zn  Zn130  1  0.68100265  0.93396579  0.93728507  1
  Zn  Zn131  1  0.33308865  0.06784039  0.05221484  1
  Zn  Zn132  1  0.31041593  0.06590519  0.56018694  1
  Zn  Zn133  1  0.31897483  0.55790725  0.05192183  1
  Zn  Zn134  1  0.31084822  0.56324326  0.56645370  1
  Zn  Zn135  1  0.80707444  0.06125349  0.06016734  1
  Zn  Zn136  1  0.80942763  0.06406432  0.55887225  1
  Zn  Zn137  1  0.72789170  0.56085885  0.07119709  1
  Zn  Zn138  1  0.81578720  0.56447668  0.55566989  1
  Zn  Zn139  1  0.44577495  0.44501733  0.17354742  1
  Zn  Zn140  1  0.44267875  0.44144516  0.68909497  1
  Zn  Zn141  1  0.43983587  0.93876943  0.18358448  1
  Zn  Zn142  1  0.43778403  0.93654502  0.69082972  1
  Zn  Zn143  1  0.93981698  0.43442412  0.18870532  1
  Zn  Zn144  1  0.94527190  0.43960265  0.68460946  1
  Zn  Zn145  1  0.93827621  0.93423414  0.18575389  1
  Zn  Zn146  1  0.93933937  0.93700567  0.69009309  1
  Zn  Zn147  1  0.06151765  0.06190451  0.31103184  1
  Zn  Zn148  1  0.05928333  0.05805659  0.81422887  1
  Zn  Zn149  1  0.06867869  0.56617179  0.31077093  1
  Zn  Zn150  1  0.05851883  0.55898722  0.81118775  1
  Zn  Zn151  1  0.56032713  0.06558985  0.31087799  1
  Zn  Zn152  1  0.56160521  0.06646035  0.81040956  1
  Zn  Zn153  1  0.56492865  0.55672775  0.29492605  1
  Zn  Zn154  1  0.56421407  0.56107653  0.81385535  1
  Zn  Zn155  1  0.43368444  0.18903437  0.43850157  1
  Zn  Zn156  1  0.43537169  0.18885691  0.93427885  1
  Zn  Zn157  1  0.44052513  0.69324840  0.43774177  1
  Zn  Zn158  1  0.44244071  0.67582240  0.95766071  1
  Zn  Zn159  1  0.93380072  0.18387313  0.44243725  1
  Zn  Zn160  1  0.93697062  0.18240882  0.93670249  1
  Zn  Zn161  1  0.93931758  0.68916605  0.43959749  1
  Zn  Zn162  1  0.92795402  0.68348200  0.94071002  1
  Zn  Zn163  1  0.06347325  0.30921436  0.06152940  1
  Zn  Zn164  1  0.05011801  0.31454914  0.56329782  1
  Zn  Zn165  1  0.05662613  0.80850717  0.05708713  1
  Zn  Zn166  1  0.06348316  0.81456647  0.56601458  1
  Zn  Zn167  1  0.55952303  0.33752328  0.05857099  1
  Zn  Zn168  1  0.56078535  0.31540329  0.56658853  1
  Zn  Zn169  1  0.56773852  0.81143066  0.05975477  1
  Zn  Zn170  1  0.56119027  0.81552156  0.55786472  1
  O  O171  1  0.11851273  0.12947410  0.12206053  1
  O  O172  1  0.13113540  0.12304273  0.61099432  1
  O  O173  1  0.11937812  0.61369913  0.11699564  1
  O  O174  1  0.11855876  0.63297029  0.61788856  1
  O  O175  1  0.62002749  0.12029116  0.12179905  1
  O  O176  1  0.61572111  0.11914118  0.62794579  1
  O  O177  1  0.63734309  0.61061567  0.11864576  1
  O  O178  1  0.62838740  0.61793112  0.61282623  1
  O  O179  1  0.38229596  0.37491200  0.38538614  1
  O  O180  1  0.38740677  0.36830099  0.87047961  1
  O  O181  1  0.38016167  0.88542690  0.37703174  1
  O  O182  1  0.38833999  0.86578283  0.88292406  1
  O  O183  1  0.84967755  0.39063292  0.35678467  1
  O  O184  1  0.87602863  0.37674605  0.87622778  1
  O  O185  1  0.88071618  0.88003849  0.38203777  1
  O  O186  1  0.87619716  0.87773205  0.88052388  1
  O  O187  1  0.25951161  0.00600329  0.37268400  1
  O  O188  1  0.24286459  0.01467639  0.87903373  1
  O  O189  1  0.25531108  0.51521176  0.36920510  1
  O  O190  1  0.24058398  0.51432397  0.86657213  1
  O  O191  1  0.75930140  0.00651946  0.38233930  1
  O  O192  1  0.76051195  -0.00300675  0.87437349  1
  O  O193  1  0.75444646  0.51282643  0.38567605  1
  O  O194  1  0.76117341  0.50666206  0.87660628  1
  O  O195  1  0.24163979  0.49200509  0.12014019  1
  O  O196  1  0.24346224  0.50478797  0.63250513  1
  O  O197  1  0.24235208  1.01760625  0.11056575  1
  O  O198  1  0.24990965  0.98703127  0.61966418  1
  O  O199  1  0.77043263  0.47981224  0.14044850  1
  O  O200  1  0.73927717  0.50335023  0.61643407  1
  O  O201  1  0.74299041  0.98739147  0.12366043  1
  O  O202  1  0.74054718  0.99308783  0.62399018  1
  O  O203  1  0.00250514  0.35910395  0.24861851  1
  O  O204  1  0.00500723  0.36129632  0.75483052  1
  O  O205  1  0.00879953  0.87086357  0.25494188  1
  O  O206  1  0.00166304  0.87372140  0.76182348  1
  O  O207  1  0.51169272  0.37097125  0.25396830  1
  O  O208  1  0.52196565  0.37142411  0.73335833  1
  O  O209  1  0.49500509  0.87071701  0.26197750  1
  O  O210  1  0.49729293  0.87453746  0.76790596  1
  O  O211  1  0.49351018  0.13383428  0.24132470  1
  O  O212  1  0.48984418  0.12886259  0.74320604  1
  O  O213  1  0.49457817  0.64924340  0.27132938  1
  O  O214  1  0.50004288  0.62177600  0.74661576  1
  O  O215  1  1.00094068  0.13052960  0.23669537  1
  O  O216  1  0.99204151  0.13583443  0.75583198  1
  O  O217  1  0.99389825  0.63017642  0.24507192  1
  O  O218  1  0.99171991  0.62084499  0.73711318  1
  O  O219  1  0.36024807  0.24373246  0.00581423  1
  O  O220  1  0.37738737  0.25983529  0.50942972  1
  O  O221  1  0.36753421  0.75564921  0.00135934  1
  O  O222  1  0.37035040  0.75888947  0.50683908  1
  O  O223  1  0.87663042  0.25846593  0.00334925  1
  O  O224  1  0.86972688  0.25670686  0.50535187  1
  O  O225  1  0.87764878  0.75755054  0.01484133  1
  O  O226  1  0.86955156  0.75648046  0.50908209  1
  O  O227  1  0.12376722  0.24713551  0.49761781  1
  O  O228  1  0.13490122  0.24912174  0.99129366  1
  O  O229  1  0.12959731  0.74480103  0.49479417  1
  O  O230  1  0.12545030  0.73578169  0.99692941  1
  O  O231  1  0.63092412  0.24966759  0.49684079  1
  O  O232  1  0.61873691  0.26318859  0.98816126  1
  O  O233  1  0.63004845  0.74299940  0.49692630  1
  O  O234  1  0.62709005  0.75171286  0.98398782  1
  O  O235  1  0.49359504  0.25182441  0.12252050  1
  O  O236  1  0.49504915  0.23773922  0.62333774  1
  O  O237  1  0.50293756  0.75639473  0.13902639  1
  O  O238  1  0.48596258  0.75346654  0.61947635  1
  O  O239  1  0.99191185  0.24141202  0.12478212  1
  O  O240  1  0.98750040  0.24775561  0.63252790  1
  O  O241  1  0.99062751  0.74231493  0.12932062  1
  O  O242  1  0.98910155  0.74151664  0.61724118  1
  O  O243  1  -0.00766280  0.24329880  0.36034413  1
  O  O244  1  0.00638186  0.25063771  0.86967634  1
  O  O245  1  0.00698024  0.75650645  0.36910359  1
  O  O246  1  -0.00528858  0.75880967  0.88185732  1
  O  O247  1  0.50374516  0.25502946  0.36916019  1
  O  O248  1  0.51115165  0.24892586  0.87264632  1
  O  O249  1  0.50037867  0.76964754  0.37318015  1
  O  O250  1  0.50458328  0.75164973  0.88323666  1
  O  O251  1  0.24134705  0.12483961  0.48819798  1
  O  O252  1  0.24342666  0.12748790  0.99313458  1
  O  O253  1  0.24159293  0.63324982  0.49414136  1
  O  O254  1  0.23908959  0.62700978  0.98777468  1
  O  O255  1  0.74759447  0.13357724  0.48949304  1
  O  O256  1  0.74569226  0.13156720  0.99590470  1
  O  O257  1  0.74588741  0.63289395  0.49117319  1
  O  O258  1  0.77106867  0.62373920  0.98605464  1
  O  O259  1  0.24338317  0.36499385  0.00994072  1
  O  O260  1  0.25226109  0.36613129  0.49154947  1
  O  O261  1  0.26096093  0.86412805  -0.01199467  1
  O  O262  1  0.25493895  0.87105779  0.50623665  1
  O  O263  1  0.75901207  0.37127170  0.00833459  1
  O  O264  1  0.75461147  0.36195014  0.49499252  1
  O  O265  1  0.75938774  0.87735267  0.00515681  1
  O  O266  1  0.75499356  0.87207359  0.51118010  1
  O  O267  1  0.12776447  0.49622215  0.24013420  1
  O  O268  1  0.11712757  0.47942003  0.75012838  1
  O  O269  1  0.12545260  0.98574139  0.24911704  1
  O  O270  1  0.11459473  0.98381277  0.74835374  1
  O  O271  1  0.65645609  0.47916879  0.27142175  1
  O  O272  1  0.62687702  0.49176642  0.73563568  1
  O  O273  1  0.61699305  1.00258036  0.23497761  1
  O  O274  1  0.62407722  0.99609730  0.73929482  1
  O  O275  1  0.37047331  0.00658401  0.25262307  1
  O  O276  1  0.37476012  0.01463979  0.74529031  1
  O  O277  1  0.37367304  0.49962231  0.25106946  1
  O  O278  1  0.37767785  0.49727113  0.76896424  1
  O  O279  1  0.88258766  -0.00084774  0.26435178  1
  O  O280  1  0.87478251  0.00714064  0.75637532  1
  O  O281  1  0.87502775  0.51017544  0.25298939  1
  O  O282  1  0.88103337  0.50506888  0.75625119  1
  O  O283  1  0.14072833  0.36666019  0.38309885  1
  O  O284  1  0.11954666  0.36174796  0.86803259  1
  O  O285  1  0.12133941  0.87001101  0.36945999  1
  O  O286  1  0.11120215  0.86854687  0.86863911  1
  O  O287  1  0.61876613  0.36530049  0.37285331  1
  O  O288  1  0.62689495  0.37032868  0.86194417  1
  O  O289  1  0.60994712  0.88248226  0.38059036  1
  O  O290  1  0.61267969  0.86477761  0.87367230  1
  O  O291  1  0.38305246  0.13855713  0.12829809  1
  O  O292  1  0.37850664  0.13162723  0.62927380  1
  O  O293  1  0.36636549  0.63029924  0.12016565  1
  O  O294  1  0.37683706  0.64191534  0.62357560  1
  O  O295  1  0.88110458  0.12902253  0.12446757  1
  O  O296  1  0.87258172  0.12789110  0.63461997  1
  O  O297  1  0.87441008  0.63484747  0.14006974  1
  O  O298  1  0.88058971  0.63082545  0.62902479  1
  O  O299  1  0.25516872  0.25476213  0.11737502  1
  O  O300  1  0.25865546  0.24741483  0.62464925  1
  O  O301  1  0.24352236  0.74861020  0.10608679  1
  O  O302  1  0.26065790  0.76033614  0.61916806  1
  O  O303  1  0.76575471  0.25425475  0.12511018  1
  O  O304  1  0.75909570  0.24145021  0.61450024  1
  O  O305  1  0.75460037  0.76366376  0.13255856  1
  O  O306  1  0.75545904  0.75664345  0.62074950  1
  O  O307  1  0.25158013  0.24453669  0.37208922  1
  O  O308  1  0.24229827  0.24153984  0.88224156  1
  O  O309  1  0.24662727  0.74939443  0.38031531  1
  O  O310  1  0.24287925  0.73731463  0.88307189  1
  O  O311  1  0.74240776  0.23990572  0.38453510  1
  O  O312  1  0.73390584  0.25064577  0.87779436  1
  O  O313  1  0.74696375  0.74626564  0.38249730  1
  O  O314  1  0.74948316  0.73331052  0.87522703  1
  O  O315  1  -0.00116328  0.11529557  0.01071930  1
  O  O316  1  0.01149783  0.11671177  0.49295445  1
  O  O317  1  0.00228068  0.61835461  0.00536835  1
  O  O318  1  0.00682899  0.62205984  0.50766463  1
  O  O319  1  0.49950463  0.11583692  0.00269849  1
  O  O320  1  0.49901077  0.11963789  0.50797872  1
  O  O321  1  0.50346885  0.60132363  0.02031728  1
  O  O322  1  0.50925374  0.62055703  0.49970367  1
  O  O323  1  0.49217134  0.38251565  0.49649024  1
  O  O324  1  0.50693573  0.43862301  1.06850752  1
  O  O325  1  0.49253032  0.88385589  0.48928004  1
  O  O326  1  0.49490383  0.87844255  0.98993353  1
  O  O327  1  0.99657907  0.39111566  0.49615961  1
  O  O328  1  0.99469779  0.37572708  0.99176945  1
  O  O329  1  0.99636814  0.88143051  0.49413306  1
  O  O330  1  0.98780424  0.88032040  0.99444726  1
  O  O331  1  0.50328442  0.49409162  0.38494078  1
  O  O332  1  0.50083099  0.48936340  0.88012340  1
  O  O333  1  0.48955169  0.99565933  0.37542676  1
  O  O334  1  0.50917186  0.99141954  0.88350254  1
  O  O335  1  1.00693371  0.50962121  0.38959066  1
  O  O336  1  0.98919136  0.49190732  0.87886854  1
  O  O337  1  0.99348099  0.99556386  0.38361256  1
  O  O338  1  0.98709031  0.99273439  0.88495235  1
  O  O339  1  -0.00556302  0.00449848  0.11233330  1
  O  O340  1  0.00019497  -0.00477537  0.61089934  1
  O  O341  1  0.00450515  0.50389772  0.11919852  1
  O  O342  1  0.00797141  0.51057542  0.61469931  1
  O  O343  1  0.50702294  0.00582124  0.11565795  1
  O  O344  1  0.50363777  0.00911486  0.62235227  1
  O  O345  1  0.52761614  0.52933944  0.18111556  1
  O  O346  1  0.50756991  0.50419166  0.61112800  1
  O  O347  1  0.24263685  0.37372698  0.23418460  1
  O  O348  1  0.23364808  0.37236569  0.75647389  1
  O  O349  1  0.23612924  0.87891920  0.24647253  1
  O  O350  1  0.24105329  0.87331699  0.74459693  1
  O  O351  1  0.74944290  0.36440006  0.24576109  1
  O  O352  1  0.73117380  0.36760836  0.74016226  1
  O  O353  1  0.75287131  0.87829467  0.24202840  1
  O  O354  1  0.75049719  0.87811194  0.73756891  1
  O  O355  1  0.25522929  0.12224153  0.25554254  1
  O  O356  1  0.25356557  0.12682838  0.76117336  1
  O  O357  1  0.25098668  0.62749732  0.25923426  1
  O  O358  1  0.25581362  0.62678009  0.76292103  1
  O  O359  1  0.75289859  0.13170464  0.26563676  1
  O  O360  1  0.75880130  0.12164124  0.75377996  1
  O  O361  1  0.75518433  0.63042738  0.26287544  1
  O  O362  1  0.76225565  0.62263702  0.75509511  1
  O  O363  1  0.36611995  0.11923407  0.36973270  1
  O  O364  1  0.35833138  0.12999219  0.86710772  1
  O  O365  1  0.36430644  0.62848803  0.38019528  1
  O  O366  1  0.36244514  0.62940534  0.87992817  1
  O  O367  1  0.86660993  0.11534221  0.37445153  1
  O  O368  1  0.87352760  0.11553104  0.86632062  1
  O  O369  1  0.86892355  0.63605873  0.36334834  1
  O  O370  1  0.87015612  0.61570728  0.86536800  1
  O  O371  1  0.12776575  0.38662467  0.12147614  1
  O  O372  1  0.11928750  0.37025867  0.63920500  1
  O  O373  1  0.11679206  0.87149004  0.13474304  1
  O  O374  1  0.13420086  0.87677405  0.63164209  1
  O  O375  1  0.64224774  0.36411750  0.13952166  1
  O  O376  1  0.62852569  0.38974165  0.62370571  1
  O  O377  1  0.63839525  0.88092435  0.12330852  1
  O  O378  1  0.63019905  0.88099586  0.62683232  1
  O  O379  1  0.10919762  0.25315148  0.24911014  1
  O  O380  1  0.11663270  0.25538517  0.75474073  1
  O  O381  1  0.12072854  0.75901503  0.25220184  1
  O  O382  1  0.12327286  0.76383575  0.74835919  1
  O  O383  1  0.62055299  0.25570634  0.25776744  1
  O  O384  1  0.62063156  0.25812538  0.75973454  1
  O  O385  1  0.61031425  0.75347579  0.25541810  1
  O  O386  1  0.63215505  0.75135911  0.76827278  1
  O  O387  1  0.38264329  0.24727362  0.23967639  1
  O  O388  1  0.37554376  0.24162209  0.73908351  1
  O  O389  1  0.38688918  0.75280535  0.24441121  1
  O  O390  1  0.37073772  0.75084190  0.73709223  1
  O  O391  1  0.88862899  0.24153537  0.23829372  1
  O  O392  1  0.87888574  0.24418479  0.74282667  1
  O  O393  1  0.88197575  0.74721211  0.24259839  1
  O  O394  1  0.87185679  0.74063648  0.73765347  1
  O  O395  1  0.38168734  0.49381959  0.49858830  1
  O  O396  1  0.36227419  0.49257047  0.96909036  1
  O  O397  1  0.37862632  0.99700866  0.49015679  1
  O  O398  1  0.38955438  0.98949004  0.99633570  1
  O  O399  1  0.89074168  0.50114191  0.49893106  1
  O  O400  1  0.88107947  0.48261005  0.98923531  1
  O  O401  1  0.88200821  0.99577837  0.49334234  1
  O  O402  1  0.87895887  0.99172241  0.99362572  1
  O  O403  1  0.11460512  -0.00469874  -0.00412902  1
  O  O404  1  0.11740968  0.00866008  0.50135297  1
  O  O405  1  0.11849050  0.50780326  0.00277774  1
  O  O406  1  0.11690690  0.51595949  0.50319027  1
  O  O407  1  0.61656065  -0.00028025  0.00852079  1
  O  O408  1  0.61655674  0.00313422  0.51366407  1
  O  O409  1  0.64129776  0.49861756  0.01954023  1
  O  O410  1  0.61909673  0.50652599  0.50807521  1
  O  O411  1  0.36550028  0.36449169  0.12755201  1
  O  O412  1  0.37912554  0.36830431  0.61440684  1
  O  O413  1  0.37807533  0.87314089  0.10989259  1
  O  O414  1  0.37026943  0.86892120  0.62231841  1
  O  O415  1  0.87611128  0.36488192  0.11575520  1
  O  O416  1  0.87817634  0.36648694  0.62433408  1
  O  O417  1  0.86349804  0.86978200  0.12065320  1
  O  O418  1  0.86918548  0.86860781  0.62222321  1
  O  O419  1  0.13724239  0.11949726  0.37973459  1
  O  O420  1  0.13324153  0.13474449  0.86716490  1
  O  O421  1  0.13445800  0.63535374  0.38152987  1
  O  O422  1  0.12600158  0.62440861  0.87950891  1
  O  O423  1  0.62900166  0.12898085  0.37865987  1
  O  O424  1  0.62479900  0.13871858  0.87674618  1
  O  O425  1  0.63272359  0.62436485  0.38349026  1
  O  O426  1  0.64372115  0.62356704  0.87595615  1
