# generated using pymatgen
data_V85Zn86O256
_symmetry_space_group_name_H-M   'P 1'
_cell_length_a   16.94355952
_cell_length_b   16.93512358
_cell_length_c   16.93858279
_cell_angle_alpha   89.96978945
_cell_angle_beta   90.02645942
_cell_angle_gamma   90.05244821
_symmetry_Int_Tables_number   1
_chemical_formula_structural   V85Zn86O256
_chemical_formula_sum   'V85 Zn86 O256'
_cell_volume   4860.37530257
_cell_formula_units_Z   1
loop_
 _symmetry_equiv_pos_site_id
 _symmetry_equiv_pos_as_xyz
  1  'x, y, z'
loop_
 _atom_site_type_symbol
 _atom_site_label
 _atom_site_symmetry_multiplicity
 _atom_site_fract_x
 _atom_site_fract_y
 _atom_site_fract_z
 _atom_site_occupancy
  V  V0  1  0.04657553  0.67746799  0.18243357  1
  V  V1  1  0.25174855  0.24405696  0.49888434  1
  V  V2  1  0.74014066  0.49875830  0.24630919  1
  V  V3  1  0.62142670  0.63289164  0.49474049  1
  V  V4  1  0.87247143  0.74013978  0.11967372  1
  V  V5  1  0.13095847  0.37369585  0.24820307  1
  V  V6  1  0.74918666  0.37442956  0.62398677  1
  V  V7  1  0.49846540  0.36968511  0.37164858  1
  V  V8  1  0.88397239  -0.01155757  0.36149524  1
  V  V9  1  0.86556335  0.00068115  0.86831745  1
  V  V10  1  0.49988291  -0.00217344  0.00132869  1
  V  V11  1  0.75015934  0.75437196  0.49081137  1
  V  V12  1  0.74943201  0.12422696  0.38453416  1
  V  V13  1  0.25077259  0.63344535  0.87687836  1
  V  V14  1  0.37607283  0.25209714  0.62487860  1
  V  V15  1  -0.00088924  0.12445650  0.12203674  1
  V  V16  1  0.61878575  0.37231654  0.24388620  1
  V  V17  1  0.62758175  0.87014984  0.26431774  1
  V  V18  1  0.74938786  0.62754951  0.37567935  1
  V  V19  1  0.35830016  0.36992722  0.00330520  1
  V  V20  1  0.87378522  0.49925014  0.37631022  1
  V  V21  1  0.62760358  0.25083564  0.87545552  1
  V  V22  1  0.75044052  0.87777136  0.63104644  1
  V  V23  1  0.50200759  0.75091605  0.74953157  1
  V  V24  1  0.12350149  0.49485577  0.12317961  1
  V  V25  1  0.12416489  0.63153496  -0.00548130  1
  V  V26  1  0.25616665  0.62264656  0.37988536  1
  V  V27  1  0.50632045  0.12779419  0.61781558  1
  V  V28  1  0.75232294  0.50122765  0.75328805  1
  V  V29  1  0.25528313  0.49999891  0.24845169  1
  V  V30  1  0.86903743  0.13271800  0.24433334  1
  V  V31  1  0.88258148  0.24972184  0.62481459  1
  V  V32  1  0.49986418  0.49607347  0.00511647  1
  V  V33  1  0.24815005  0.89534527  0.63433336  1
  V  V34  1  0.62305664  -0.00189973  0.12647439  1
  V  V35  1  0.62496094  0.74874073  0.87316313  1
  V  V36  1  0.24659111  0.49582038  0.75003938  1
  V  V37  1  0.50076869  0.13675637  0.12992345  1
  V  V38  1  0.01034396  0.01592183  0.49895538  1
  V  V39  1  0.49641282  0.50337224  0.49702593  1
  V  V40  1  0.87995502  0.74373207  0.62208299  1
  V  V41  1  0.25077524  0.75882233  0.50690118  1
  V  V42  1  0.75032424  0.87430095  0.12577915  1
  V  V43  1  0.88614999  0.87846528  0.50183647  1
  V  V44  1  0.75370169  0.62147829  0.87288730  1
  V  V45  1  0.11881629  0.49307928  0.62668753  1
  V  V46  1  0.50012465  0.87622745  0.87617652  1
  V  V47  1  0.62336657  0.24666867  0.37890252  1
  V  V48  1  0.37568410  0.62393174  0.74945788  1
  V  V49  1  0.88299519  0.62127228  0.74950769  1
  V  V50  1  0.49750134  0.62399906  0.12637673  1
  V  V51  1  0.62388393  0.50125345  0.62544269  1
  V  V52  1  -0.00429025  0.38211992  0.87349059  1
  V  V53  1  0.36649258  0.00090691  0.87246193  1
  V  V54  1  0.36837978  0.75000985  0.12510953  1
  V  V55  1  -0.00435288  0.25316218  0.24599014  1
  V  V56  1  0.00688427  0.25369236  0.75553127  1
  V  V57  1  0.87237078  0.62380516  0.24475504  1
  V  V58  1  0.74928203  0.74641247  -0.00318148  1
  V  V59  1  0.35893279  0.86975435  0.00172443  1
  V  V60  1  0.63260053  0.00714076  0.62414783  1
  V  V61  1  0.86824882  0.12591473  0.74740122  1
  V  V62  1  0.13100777  0.25735850  0.88729743  1
  V  V63  1  0.62535302  0.61778213  0.00355794  1
  V  V64  1  0.24716494  0.37336437  0.62433647  1
  V  V65  1  0.35364494  0.24934242  0.12606958  1
  V  V66  1  0.62624316  0.12505556  0.00052249  1
  V  V67  1  0.24781399  -0.01178710  0.24318029  1
  V  V68  1  0.37813250  0.12127112  0.25454302  1
  V  V69  1  0.49951813  0.62760945  0.62386876  1
  V  V70  1  0.00065313  0.37421683  0.38249050  1
  V  V71  1  -0.00905885  0.50721089  0.00053115  1
  V  V72  1  0.50116055  0.74854289  0.25440877  1
  V  V73  1  0.37457837  0.12196341  0.75024728  1
  V  V74  1  0.25111843  0.11324885  0.37483907  1
  V  V75  1  0.87481824  0.87549809  -0.00333117  1
  V  V76  1  0.75446849  0.37035896  0.12678219  1
  V  V77  1  0.12611107  0.24417272  0.37978186  1
  V  V78  1  0.00135619  0.87831726  0.86868563  1
  V  V79  1  0.49798486  0.37352657  0.87721784  1
  V  V80  1  0.49374640  -0.00786727  0.49927477  1
  V  V81  1  0.00845494  0.75028605  0.74402946  1
  V  V82  1  0.87515671  0.36929609  0.00123050  1
  V  V83  1  0.11905202  0.62342238  0.50687404  1
  V  V84  1  0.74683643  0.00196935  0.25125430  1
  Zn  Zn85  1  0.11951459  0.74566589  0.37315513  1
  Zn  Zn86  1  0.62973574  0.88398478  0.75228413  1
  Zn  Zn87  1  0.74625619  0.12180872  0.87284004  1
  Zn  Zn88  1  0.37475716  0.37688397  0.49621139  1
  Zn  Zn89  1  0.00070256  0.00481037  -0.00029155  1
  Zn  Zn90  1  0.37150510  0.49741245  0.87812893  1
  Zn  Zn91  1  0.75352036  0.24611065  0.00611166  1
  Zn  Zn92  1  0.48535220  0.88924634  0.37216127  1
  Zn  Zn93  1  0.25091116  0.13112663  0.87885422  1
  Zn  Zn94  1  0.37586247  0.76231537  0.62561012  1
  Zn  Zn95  1  0.14169321  0.12763527  0.00921670  1
  Zn  Zn96  1  0.13294309  -0.01984015  0.12212251  1
  Zn  Zn97  1  0.37733038  0.50182629  0.36682427  1
  Zn  Zn98  1  0.87199030  0.37455949  0.49994700  1
  Zn  Zn99  1  0.12317414  0.90868427  0.74441927  1
  Zn  Zn100  1  -0.00504027  0.50259644  0.50614697  1
  Zn  Zn101  1  0.62346863  0.37627952  0.75124135  1
  Zn  Zn102  1  0.02122225  0.86424690  0.33920644  1
  Zn  Zn103  1  0.03922266  0.08991220  0.65772755  1
  Zn  Zn104  1  0.50241151  0.25128597  0.74925965  1
  Zn  Zn105  1  0.13334354  0.76175298  0.87376147  1
  Zn  Zn106  1  0.74748167  0.24538915  0.50507633  1
  Zn  Zn107  1  0.18346288  0.18084781  0.19532414  1
  Zn  Zn108  1  0.19360268  0.08622499  0.68566111  1
  Zn  Zn109  1  0.20976186  0.67942319  0.18450777  1
  Zn  Zn110  1  0.18829526  0.68399102  0.68408449  1
  Zn  Zn111  1  0.68402221  0.19183081  0.19130380  1
  Zn  Zn112  1  0.68838031  0.18968862  0.68952569  1
  Zn  Zn113  1  0.68514132  0.68716998  0.18570216  1
  Zn  Zn114  1  0.68990391  0.68990543  0.68343408  1
  Zn  Zn115  1  0.31467598  0.30929016  0.30984090  1
  Zn  Zn116  1  0.31355216  0.31258782  0.80904801  1
  Zn  Zn117  1  0.30945213  0.80938236  0.31718330  1
  Zn  Zn118  1  0.31318879  0.81680386  0.80533133  1
  Zn  Zn119  1  0.80870191  0.31268892  0.31464835  1
  Zn  Zn120  1  0.81374758  0.31445237  0.81449869  1
  Zn  Zn121  1  0.83811664  0.82081372  0.30299515  1
  Zn  Zn122  1  0.81579417  0.80776071  0.80961836  1
  Zn  Zn123  1  0.18783933  0.43503383  0.43880485  1
  Zn  Zn124  1  0.18185774  0.44302378  0.93431496  1
  Zn  Zn125  1  0.18181254  0.93078362  0.43132114  1
  Zn  Zn126  1  0.18263519  0.94623585  0.93781117  1
  Zn  Zn127  1  0.68329040  0.43794940  0.43693660  1
  Zn  Zn128  1  0.68802877  0.43683205  0.93876915  1
  Zn  Zn129  1  0.68800851  0.94168386  0.44434644  1
  Zn  Zn130  1  0.68699960  0.93687516  0.93727230  1
  Zn  Zn131  1  0.31287811  0.06103290  0.06249186  1
  Zn  Zn132  1  0.32037822  0.06476302  0.55679772  1
  Zn  Zn133  1  0.31093201  0.56123661  0.06067628  1
  Zn  Zn134  1  0.31176088  0.56460434  0.56325707  1
  Zn  Zn135  1  0.81508868  0.06183380  0.06436632  1
  Zn  Zn136  1  0.82055434  0.06054290  0.56246853  1
  Zn  Zn137  1  0.80780045  0.55371795  0.06373372  1
  Zn  Zn138  1  0.81120530  0.56360207  0.56308928  1
  Zn  Zn139  1  0.43601325  0.43160509  0.18347017  1
  Zn  Zn140  1  0.43560615  0.43831128  0.68854329  1
  Zn  Zn141  1  0.43576328  0.93699455  0.18822894  1
  Zn  Zn142  1  0.43751900  0.93961775  0.68466673  1
  Zn  Zn143  1  0.93878388  0.43938892  0.18691325  1
  Zn  Zn144  1  0.93464068  0.43424558  0.68909128  1
  Zn  Zn145  1  0.96862097  0.91303070  0.17159230  1
  Zn  Zn146  1  0.93603610  0.93828656  0.68512798  1
  Zn  Zn147  1  0.06428173  0.06244037  0.30877454  1
  Zn  Zn148  1  0.05691506  0.07243503  0.82615754  1
  Zn  Zn149  1  0.06859425  0.55721010  0.32165136  1
  Zn  Zn150  1  0.06409196  0.56166470  0.81233823  1
  Zn  Zn151  1  0.56328937  0.06409697  0.31441726  1
  Zn  Zn152  1  0.55939394  0.06316359  0.80746862  1
  Zn  Zn153  1  0.56039153  0.56556420  0.31443184  1
  Zn  Zn154  1  0.56244529  0.55962254  0.81613519  1
  Zn  Zn155  1  0.43861170  0.18538911  0.43808759  1
  Zn  Zn156  1  0.43629349  0.18851369  0.94264255  1
  Zn  Zn157  1  0.42255872  0.71683952  0.42329597  1
  Zn  Zn158  1  0.43655015  0.68752653  0.93803967  1
  Zn  Zn159  1  0.93325632  0.18770659  0.43554930  1
  Zn  Zn160  1  0.93418547  0.19107483  0.93531509  1
  Zn  Zn161  1  0.94178119  0.69056669  0.43320985  1
  Zn  Zn162  1  0.93993274  0.68891355  0.93002758  1
  Zn  Zn163  1  0.05904060  0.31480657  0.06455309  1
  Zn  Zn164  1  0.09767665  0.25948935  0.59736871  1
  Zn  Zn165  1  0.06600484  0.81505958  0.05463940  1
  Zn  Zn166  1  0.06763872  0.81746686  0.56352316  1
  Zn  Zn167  1  0.56343416  0.31337218  0.06198230  1
  Zn  Zn168  1  0.56342188  0.31487262  0.55841009  1
  Zn  Zn169  1  0.56258486  0.80977293  0.06419672  1
  Zn  Zn170  1  0.56658057  0.81544444  0.56358961  1
  O  O171  1  0.10699591  0.12764271  0.12672558  1
  O  O172  1  0.12557429  0.15359633  0.62577627  1
  O  O173  1  0.11671794  0.62376012  0.12083502  1
  O  O174  1  0.12937896  0.61014331  0.61435782  1
  O  O175  1  0.61940445  0.12008989  0.12151655  1
  O  O176  1  0.61943625  0.12088103  0.62785428  1
  O  O177  1  0.61811942  0.62842828  0.10953791  1
  O  O178  1  0.62046220  0.62136476  0.61495254  1
  O  O179  1  0.38501274  0.37660115  0.37417332  1
  O  O180  1  0.38210677  0.37116518  0.88514033  1
  O  O181  1  0.39725870  0.82362358  0.38263753  1
  O  O182  1  0.38062604  0.87906467  0.88294209  1
  O  O183  1  0.87945219  0.38530684  0.37355776  1
  O  O184  1  0.88190617  0.37716107  0.88668161  1
  O  O185  1  0.85090471  0.88797739  0.39594819  1
  O  O186  1  0.87858956  0.88065616  0.87612916  1
  O  O187  1  0.24764114  0.01003637  0.37141539  1
  O  O188  1  0.26419379  0.00003055  0.87443183  1
  O  O189  1  0.25184867  0.50337612  0.36866481  1
  O  O190  1  0.24957866  0.50921987  0.86483900  1
  O  O191  1  0.75283595  0.00751624  0.36894615  1
  O  O192  1  0.76116215  -0.00103159  0.87541189  1
  O  O193  1  0.75711537  0.50345076  0.36872912  1
  O  O194  1  0.74490594  0.50373648  0.86039653  1
  O  O195  1  0.23387474  0.51198329  0.13366658  1
  O  O196  1  0.24387332  0.49172335  0.62923877  1
  O  O197  1  0.25017158  0.99739610  0.13733988  1
  O  O198  1  0.25098107  0.99971475  0.62317276  1
  O  O199  1  0.74731842  0.48811325  0.13687082  1
  O  O200  1  0.74425596  0.49579851  0.63333862  1
  O  O201  1  0.74504679  0.99450964  0.13178966  1
  O  O202  1  0.74488520  0.99223349  0.61969848  1
  O  O203  1  0.00637978  0.36965707  0.25738752  1
  O  O204  1  -0.01031767  0.36996465  0.76596009  1
  O  O205  1  -0.06650159  0.89353705  0.27702727  1
  O  O206  1  0.00319283  0.86965368  0.75208042  1
  O  O207  1  0.50799944  0.38171655  0.25835060  1
  O  O208  1  0.49944523  0.37667345  0.76554697  1
  O  O209  1  0.50875561  0.86776775  0.25351092  1
  O  O210  1  0.49943618  0.86916313  0.76120534  1
  O  O211  1  0.49079318  0.11762277  0.24196483  1
  O  O212  1  0.49270076  0.12986940  0.73765955  1
  O  O213  1  0.50772234  0.62341413  0.22966092  1
  O  O214  1  0.49435238  0.62931678  0.74762995  1
  O  O215  1  0.99096245  0.13279063  0.24335710  1
  O  O216  1  0.98562643  0.13902335  0.75459958  1
  O  O217  1  0.99313309  0.61421804  0.24581737  1
  O  O218  1  0.98995183  0.63191035  0.75530237  1
  O  O219  1  0.37808070  0.25625009  0.01560284  1
  O  O220  1  0.37129199  0.25195924  0.50890785  1
  O  O221  1  0.38069203  0.76373302  0.00496238  1
  O  O222  1  0.35297880  0.73574948  0.51302061  1
  O  O223  1  0.87135291  0.26436935  -0.00052132  1
  O  O224  1  0.87203347  0.25306313  0.50957568  1
  O  O225  1  0.86750673  0.75381765  -0.00223642  1
  O  O226  1  0.87150888  0.75580968  0.50614519  1
  O  O227  1  0.13667916  0.25718855  0.48606462  1
  O  O228  1  0.12015480  0.25147281  0.99075564  1
  O  O229  1  0.13344551  0.73640265  0.50751978  1
  O  O230  1  0.11993781  0.73775301  0.99352377  1
  O  O231  1  0.62973286  0.25607257  0.48519643  1
  O  O232  1  0.62688731  0.24128276  0.99499382  1
  O  O233  1  0.63534320  0.74272671  0.50403947  1
  O  O234  1  0.63059831  0.74206584  0.99260403  1
  O  O235  1  0.50116071  0.23815742  0.12468187  1
  O  O236  1  0.49497450  0.24618845  0.62293161  1
  O  O237  1  0.49463407  0.74145820  0.12841300  1
  O  O238  1  0.49852624  0.74603718  0.63122403  1
  O  O239  1  1.00006298  0.24442545  0.13940042  1
  O  O240  1  0.98835450  0.26359169  0.63865033  1
  O  O241  1  0.99136618  0.73802159  0.11951341  1
  O  O242  1  0.99053336  0.75674212  0.63002390  1
  O  O243  1  0.00682469  0.25473192  0.36795380  1
  O  O244  1  0.00257743  0.26152199  0.87372227  1
  O  O245  1  0.00403469  0.75107913  0.36596898  1
  O  O246  1  -0.00044287  0.76494754  0.86275968  1
  O  O247  1  0.50674695  0.26064250  0.38003651  1
  O  O248  1  0.51011259  0.25720896  0.87808160  1
  O  O249  1  0.51124448  0.71649240  0.34931553  1
  O  O250  1  0.50489606  0.75609116  0.87008337  1
  O  O251  1  0.25826730  0.13645530  0.49040211  1
  O  O252  1  0.25500032  0.12384344  0.99259461  1
  O  O253  1  0.23875651  0.62703434  0.49797158  1
  O  O254  1  0.23999006  0.61915741  0.98769308  1
  O  O255  1  0.75571016  0.12333565  0.48772033  1
  O  O256  1  0.73787576  0.12449738  1.00075186  1
  O  O257  1  0.74319677  0.63336648  0.49645902  1
  O  O258  1  0.74312231  0.62338274  0.99358241  1
  O  O259  1  0.26019160  0.38334960  -0.00414621  1
  O  O260  1  0.25516469  0.36523483  0.50437628  1
  O  O261  1  0.26070923  0.87547174  -0.00509102  1
  O  O262  1  0.24468913  0.86280401  0.50865299  1
  O  O263  1  0.75778732  0.37938983  0.00963203  1
  O  O264  1  0.74902189  0.37859020  0.51381633  1
  O  O265  1  0.75878691  0.86895351  0.00249293  1
  O  O266  1  0.75366620  0.86829888  0.51214949  1
  O  O267  1  0.12959509  0.49190002  0.24400541  1
  O  O268  1  0.13527679  0.50484283  0.74008281  1
  O  O269  1  0.14297463  1.00541436  0.24602471  1
  O  O270  1  0.11050482  1.02300525  0.73911678  1
  O  O271  1  0.63496801  0.49153876  0.25861580  1
  O  O272  1  0.63246691  0.50094237  0.74299558  1
  O  O273  1  0.62879924  0.99128084  0.24556419  1
  O  O274  1  0.62018488  0.99979591  0.73289873  1
  O  O275  1  0.36576452  0.01089798  0.24557347  1
  O  O276  1  0.38610357  0.00947793  0.76124119  1
  O  O277  1  0.35897746  0.49309624  0.24450456  1
  O  O278  1  0.36850430  0.50801518  0.75410203  1
  O  O279  1  0.86111605  0.01726612  0.25564090  1
  O  O280  1  0.88079344  0.01107547  0.75681115  1
  O  O281  1  0.86558744  0.50716355  0.25497200  1
  O  O282  1  0.86648565  0.51179755  0.74169349  1
  O  O283  1  0.11710432  0.36967086  0.36775671  1
  O  O284  1  0.11158931  0.36698632  0.88255939  1
  O  O285  1  0.12777623  0.86087845  0.36467404  1
  O  O286  1  0.11605865  0.87998388  0.86664969  1
  O  O287  1  0.61769766  0.37070417  0.36689924  1
  O  O288  1  0.61703606  0.36802183  0.87655816  1
  O  O289  1  0.62705239  0.87741261  0.36565478  1
  O  O290  1  0.61831991  0.86965570  0.87176497  1
  O  O291  1  0.38212964  0.13422402  0.12995938  1
  O  O292  1  0.38236182  0.13358943  0.63089984  1
  O  O293  1  0.38373647  0.64001331  0.11095248  1
  O  O294  1  0.38140966  0.62310060  0.63839253  1
  O  O295  1  0.87777752  0.13023230  0.13733208  1
  O  O296  1  0.87335974  0.13649838  0.63256618  1
  O  O297  1  0.86782749  0.62583809  0.13164169  1
  O  O298  1  0.87135518  0.63627224  0.63126501  1
  O  O299  1  0.25560482  0.24411972  0.12704634  1
  O  O300  1  0.26162083  0.25776183  0.61480207  1
  O  O301  1  0.26807967  0.75009332  0.12137947  1
  O  O302  1  0.24980420  0.75545523  0.61822593  1
  O  O303  1  0.74534267  0.26472549  0.12526352  1
  O  O304  1  0.75786509  0.25934404  0.62539900  1
  O  O305  1  0.75398773  0.75344679  0.11546039  1
  O  O306  1  0.76006161  0.75554423  0.61521216  1
  O  O307  1  0.24460084  0.24383278  0.37996232  1
  O  O308  1  0.23266651  0.25831670  0.87016426  1
  O  O309  1  0.24327490  0.73963206  0.38947494  1
  O  O310  1  0.24978889  0.73799955  0.86371247  1
  O  O311  1  0.74396220  0.24220716  0.37911163  1
  O  O312  1  0.73746085  0.25144000  0.88042736  1
  O  O313  1  0.76082628  0.74608924  0.38703155  1
  O  O314  1  0.74442029  0.74314655  0.87784733  1
  O  O315  1  -0.00850109  0.13156395  0.01664683  1
  O  O316  1  0.00154487  0.11608072  0.49390272  1
  O  O317  1  0.00743978  0.61639673  -0.01094940  1
  O  O318  1  0.01468716  0.62139153  0.49784082  1
  O  O319  1  0.51006908  0.11971083  0.00835046  1
  O  O320  1  0.49768218  0.11799371  0.51248457  1
  O  O321  1  0.50616508  0.61695896  0.00335623  1
  O  O322  1  0.50676916  0.62237924  0.50374474  1
  O  O323  1  0.50017297  0.38624037  0.48979595  1
  O  O324  1  0.49558121  0.38041217  0.99416104  1
  O  O325  1  0.50492561  0.88847827  0.50152190  1
  O  O326  1  0.50050222  0.87703990  0.98779487  1
  O  O327  1  0.99681179  0.37685306  0.48434838  1
  O  O328  1  0.99143098  0.38341957  0.99641117  1
  O  O329  1  0.98965369  0.87818026  0.50029376  1
  O  O330  1  0.98610424  0.87196305  0.98577808  1
  O  O331  1  0.49705293  0.49485768  0.38123859  1
  O  O332  1  0.49667767  0.49223283  0.88641450  1
  O  O333  1  0.50853055  1.00207788  0.39330030  1
  O  O334  1  0.49581915  0.99214633  0.88122212  1
  O  O335  1  0.98988234  0.49179371  0.37458315  1
  O  O336  1  1.00716888  0.49124871  0.88547729  1
  O  O337  1  0.99292165  1.00145705  0.38011403  1
  O  O338  1  0.98787676  0.99130546  0.87803964  1
  O  O339  1  -0.01295312  0.02098507  0.12365141  1
  O  O340  1  -0.00987677  0.00210783  0.60547681  1
  O  O341  1  0.01163403  0.49800666  0.11561814  1
  O  O342  1  0.01502289  0.48639510  0.62477521  1
  O  O343  1  0.50486931  0.00597237  0.11896865  1
  O  O344  1  0.50727156  0.00800990  0.61736954  1
  O  O345  1  0.49291187  0.50590361  0.11253987  1
  O  O346  1  0.50499314  0.50618077  0.61901483  1
  O  O347  1  0.23666854  0.38031853  0.25662465  1
  O  O348  1  0.25791446  0.38811746  0.74094939  1
  O  O349  1  0.25996799  0.89003120  0.25536256  1
  O  O350  1  0.24359606  0.88139552  0.73900336  1
  O  O351  1  0.74359862  0.38114404  0.24566248  1
  O  O352  1  0.75037734  0.38419293  0.74105663  1
  O  O353  1  0.74554836  0.87877535  0.24363548  1
  O  O354  1  0.75140495  0.86671524  0.73537417  1
  O  O355  1  0.25924617  0.11747524  0.25713243  1
  O  O356  1  0.26999866  0.12986281  0.75963831  1
  O  O357  1  0.24415399  0.61194061  0.26602033  1
  O  O358  1  0.25838742  0.61660755  0.75276769  1
  O  O359  1  0.75363267  0.12419063  0.25672930  1
  O  O360  1  0.76301465  0.13088882  0.75482945  1
  O  O361  1  0.75229174  0.61703723  0.25383119  1
  O  O362  1  0.75709379  0.61958124  0.75197765  1
  O  O363  1  0.36721266  0.13348655  0.36275185  1
  O  O364  1  0.38376069  0.11664615  0.86894267  1
  O  O365  1  0.35988513  0.62217684  0.38198101  1
  O  O366  1  0.36988969  0.62338229  0.86623041  1
  O  O367  1  0.86774160  0.11656427  0.36593911  1
  O  O368  1  0.87144193  0.11718421  0.87057776  1
  O  O369  1  0.86975063  0.61523365  0.36793261  1
  O  O370  1  0.86497484  0.63035480  0.86214983  1
  O  O371  1  0.12180090  0.38255313  0.13461431  1
  O  O372  1  0.14136044  0.37356134  0.62184353  1
  O  O373  1  0.07431054  0.88398615  0.13916919  1
  O  O374  1  0.14214420  0.87697330  0.62818813  1
  O  O375  1  0.62849723  0.37201203  0.13818624  1
  O  O376  1  0.63059477  0.38180337  0.62855644  1
  O  O377  1  0.63241594  0.88167764  0.12691661  1
  O  O378  1  0.63493443  0.88318674  0.62952608  1
  O  O379  1  0.11849470  0.25680669  0.25894551  1
  O  O380  1  0.10691217  0.25439626  0.76507169  1
  O  O381  1  0.11429789  0.72997840  0.23526600  1
  O  O382  1  0.11208250  0.74231190  0.74965153  1
  O  O383  1  0.62758463  0.26220855  0.26398016  1
  O  O384  1  0.62226859  0.25428654  0.76070924  1
  O  O385  1  0.61682773  0.76188540  0.23894057  1
  O  O386  1  0.61742626  0.74932993  0.75506893  1
  O  O387  1  0.37099319  0.24033453  0.23429108  1
  O  O388  1  0.38023034  0.24674362  0.73880353  1
  O  O389  1  0.38386439  0.75411787  0.23036936  1
  O  O390  1  0.38450394  0.74274409  0.74812724  1
  O  O391  1  0.88382921  0.24442571  0.26031466  1
  O  O392  1  0.87966496  0.24619737  0.74571205  1
  O  O393  1  0.86846540  0.73039507  0.24049517  1
  O  O394  1  0.88486843  0.74271252  0.74053479  1
  O  O395  1  0.38805014  0.50084666  0.50113540  1
  O  O396  1  0.38119764  0.48938901  0.99968320  1
  O  O397  1  0.39387718  0.99835542  0.50239843  1
  O  O398  1  0.38209061  0.98607710  0.99558979  1
  O  O399  1  0.87575804  0.49962451  0.49096558  1
  O  O400  1  0.88662721  0.49450267  1.00354947  1
  O  O401  1  0.88502456  0.99467612  0.48891016  1
  O  O402  1  0.87550449  0.99009001  0.99278137  1
  O  O403  1  0.11791095  0.00724166  0.00742464  1
  O  O404  1  0.10821812  -0.00327063  0.49241816  1
  O  O405  1  0.11796332  0.51062882  0.00762518  1
  O  O406  1  0.12372394  0.50611498  0.50784518  1
  O  O407  1  0.62049426  0.00669885  0.00453294  1
  O  O408  1  0.61792396  -0.00072424  0.51678370  1
  O  O409  1  0.61524495  0.50735619  -0.00416461  1
  O  O410  1  0.61449693  0.50774437  0.50498104  1
  O  O411  1  0.37457917  0.35742384  0.11956417  1
  O  O412  1  0.36901592  0.36880446  0.62250681  1
  O  O413  1  0.38321933  0.86480537  0.10904182  1
  O  O414  1  0.35612172  0.87761468  0.63043186  1
  O  O415  1  0.86620545  0.38111328  0.11780552  1
  O  O416  1  0.86561430  0.36900454  0.62296067  1
  O  O417  1  0.87232888  0.86344355  0.11196880  1
  O  O418  1  0.86894816  0.86815396  0.61797539  1
  O  O419  1  0.13584625  0.13536271  0.36651403  1
  O  O420  1  0.12339070  0.14473115  0.88406152  1
  O  O421  1  0.13376545  0.62282458  0.39013234  1
  O  O422  1  0.13347773  0.62729168  0.88052049  1
  O  O423  1  0.63553933  0.13524027  0.36850569  1
  O  O424  1  0.62361960  0.13086665  0.88279543  1
  O  O425  1  0.63453082  0.61765734  0.38834531  1
  O  O426  1  0.63115927  0.62897410  0.88331138  1
