# generated using pymatgen
data_V85Zn86O256
_symmetry_space_group_name_H-M   'P 1'
_cell_length_a   16.94260645
_cell_length_b   16.93893710
_cell_length_c   16.95059888
_cell_angle_alpha   90.05760097
_cell_angle_beta   90.03968750
_cell_angle_gamma   90.00763423
_symmetry_Int_Tables_number   1
_chemical_formula_structural   V85Zn86O256
_chemical_formula_sum   'V85 Zn86 O256'
_cell_volume   4864.64438087
_cell_formula_units_Z   1
loop_
 _symmetry_equiv_pos_site_id
 _symmetry_equiv_pos_as_xyz
  1  'x, y, z'
loop_
 _atom_site_type_symbol
 _atom_site_label
 _atom_site_symmetry_multiplicity
 _atom_site_fract_x
 _atom_site_fract_y
 _atom_site_fract_z
 _atom_site_occupancy
  V  V0  1  0.87301814  0.62032306  0.74670624  1
  V  V1  1  0.24773788  0.13256531  0.87441812  1
  V  V2  1  0.12285471  0.37068198  0.76379123  1
  V  V3  1  0.62538401  0.86622400  0.75024952  1
  V  V4  1  0.24502772  0.87705819  0.13446789  1
  V  V5  1  0.75025565  -0.00167970  0.75239495  1
  V  V6  1  0.75173304  0.87285917  0.12065493  1
  V  V7  1  0.87225119  0.49808590  0.37676600  1
  V  V8  1  0.23822649  0.61818014  0.37673969  1
  V  V9  1  0.00164578  0.12677834  0.62294019  1
  V  V10  1  0.75223939  0.37711830  0.62797457  1
  V  V11  1  0.24634538  0.37025350  0.62073944  1
  V  V12  1  0.63315389  0.74913809  0.88652540  1
  V  V13  1  -0.00472464  -0.00535983  0.49923510  1
  V  V14  1  0.87612214  0.24920442  0.62442310  1
  V  V15  1  0.50155212  0.62757853  0.63366624  1
  V  V16  1  0.24242177  0.39116279  0.12505635  1
  V  V17  1  0.87401587  0.62703482  0.24906277  1
  V  V18  1  0.25281800  0.10632379  0.37050828  1
  V  V19  1  0.00167088  0.25207265  0.25002930  1
  V  V20  1  0.61919566  0.00502013  0.62295731  1
  V  V21  1  0.49688739  0.12555300  0.12334685  1
  V  V22  1  0.62270708  0.12605484  0.48129357  1
  V  V23  1  0.00817647  0.63053903  0.62549837  1
  V  V24  1  0.37728189  0.75074589  0.12148822  1
  V  V25  1  0.62532655  0.87161608  0.25192544  1
  V  V26  1  0.37132302  0.11523618  0.25069760  1
  V  V27  1  0.49576084  0.37781567  0.88177850  1
  V  V28  1  0.37533705  0.62614830  0.75278869  1
  V  V29  1  0.49930710  0.86279681  0.87355345  1
  V  V30  1  0.24852471  0.49982460  0.75201739  1
  V  V31  1  0.87666917  0.12345629  0.75060356  1
  V  V32  1  0.74887695  0.62350746  0.37646045  1
  V  V33  1  0.25182617  -0.00666296  0.74946992  1
  V  V34  1  0.37525035  0.25098197  0.61926932  1
  V  V35  1  0.12832657  0.13108647  0.49782514  1
  V  V36  1  0.11583107  0.87579203  0.75500539  1
  V  V37  1  0.75103570  0.12875588  0.87917302  1
  V  V38  1  0.37549912  0.75080136  0.62707181  1
  V  V39  1  0.62422071  0.38266177  0.24231057  1
  V  V40  1  0.24630364  0.75362690  -0.00131528  1
  V  V41  1  0.00037590  0.37383098  0.37591553  1
  V  V42  1  0.49915612  0.49889242  0.50257055  1
  V  V43  1  0.50682099  0.37257746  0.37710446  1
  V  V44  1  0.12778597  -0.00213351  0.62213353  1
  V  V45  1  0.75594554  0.75395484  0.50165898  1
  V  V46  1  0.46448116  0.77767341  0.29353116  1
  V  V47  1  0.30151635  0.91158723  0.56883437  1
  V  V48  1  -0.00537569  0.87605836  0.37095658  1
  V  V49  1  0.75370650  0.87768837  0.61546620  1
  V  V50  1  0.50156463  -0.00118374  -0.00237621  1
  V  V51  1  0.63027113  0.50000384  0.63037526  1
  V  V52  1  0.11873133  0.75045266  0.38441673  1
  V  V53  1  0.00317990  0.25179662  0.76437616  1
  V  V54  1  0.86564171  0.12539227  0.25485274  1
  V  V55  1  0.62536297  0.62465323  0.50287129  1
  V  V56  1  0.37067530  0.25944309  0.11865291  1
  V  V57  1  0.13740372  0.25175260  0.37286478  1
  V  V58  1  0.12459227  0.61967979  0.00047576  1
  V  V59  1  0.01052679  0.75216852  0.24721243  1
  V  V60  1  0.87533624  0.74973722  0.12089358  1
  V  V61  1  0.12708479  0.13181555  -0.00088859  1
  V  V62  1  0.74798729  0.24532725  0.48902294  1
  V  V63  1  0.00208626  0.61141504  0.12389327  1
  V  V64  1  0.50191317  0.24984949  0.25303668  1
  V  V65  1  0.24500353  0.74069442  0.50782168  1
  V  V66  1  0.75246765  0.61868487  0.87253349  1
  V  V67  1  0.37863045  0.00097539  0.87489525  1
  V  V68  1  0.62957706  0.61471451  0.00937404  1
  V  V69  1  0.37149580  0.37077954  0.49806562  1
  V  V70  1  0.37936781  0.12651178  0.74917999  1
  V  V71  1  0.00053775  0.12417100  0.12636746  1
  V  V72  1  0.00736082  0.50433615  0.50193302  1
  V  V73  1  0.87821481  0.87262776  -0.00675924  1
  V  V74  1  0.00424823  -0.00469856  -0.00619550  1
  V  V75  1  -0.00216692  0.48912397  -0.01401426  1
  V  V76  1  0.62667464  -0.00128929  0.12485795  1
  V  V77  1  0.86400335  0.00075002  0.37793946  1
  V  V78  1  0.62457919  0.37263731  0.75026281  1
  V  V79  1  0.86461440  0.25325965  0.12011473  1
  V  V80  1  0.62946552  0.13188515  0.00179490  1
  V  V81  1  0.62558173  0.75115330  0.37399513  1
  V  V82  1  0.12782846  -0.00128337  0.13663378  1
  V  V83  1  0.36982023  0.62465586  0.25059443  1
  V  V84  1  0.37017426  0.50065865  0.37351750  1
  Zn  Zn85  1  0.50684882  0.62764611  0.13584859  1
  Zn  Zn86  1  0.87933796  0.75490360  0.62506554  1
  Zn  Zn87  1  0.11679517  0.75611939  0.88036624  1
  Zn  Zn88  1  0.62876589  0.25474828  0.88110167  1
  Zn  Zn89  1  0.50399916  0.12778394  0.61983857  1
  Zn  Zn90  1  0.12880285  0.39139127  0.24989215  1
  Zn  Zn91  1  0.12492713  0.50029323  0.62493855  1
  Zn  Zn92  1  0.24958125  0.25987784  -0.00513720  1
  Zn  Zn93  1  -0.00817001  0.75431007  0.75949776  1
  Zn  Zn94  1  0.87998660  -0.00466605  0.87393893  1
  Zn  Zn95  1  0.42914691  0.92289771  0.42864084  1
  Zn  Zn96  1  0.74071675  0.50489492  0.24336818  1
  Zn  Zn97  1  0.24891583  0.62674196  0.87622199  1
  Zn  Zn98  1  0.74530962  0.00341068  0.25532566  1
  Zn  Zn99  1  0.50260520  0.24889877  0.75162222  1
  Zn  Zn100  1  0.87489945  0.37417737  0.50048315  1
  Zn  Zn101  1  0.49700117  0.49611945  0.01828151  1
  Zn  Zn102  1  0.37342993  0.49384237  0.87861059  1
  Zn  Zn103  1  0.87225321  0.48793154  0.86584715  1
  Zn  Zn104  1  0.37241676  0.87618639  -0.00061385  1
  Zn  Zn105  1  0.86838100  0.36214150  -0.01887673  1
  Zn  Zn106  1  0.74292054  0.38508839  0.10799421  1
  Zn  Zn107  1  0.18865186  0.18862933  0.18800661  1
  Zn  Zn108  1  0.18962654  0.18921492  0.68863307  1
  Zn  Zn109  1  0.18569246  0.56921425  0.18847509  1
  Zn  Zn110  1  0.18717815  0.69014517  0.68977250  1
  Zn  Zn111  1  0.68370774  0.19015758  0.19213926  1
  Zn  Zn112  1  0.69074687  0.18826775  0.68728662  1
  Zn  Zn113  1  0.69210615  0.69169433  0.18862830  1
  Zn  Zn114  1  0.69068882  0.68966803  0.69204477  1
  Zn  Zn115  1  0.31573858  0.31419051  0.30421979  1
  Zn  Zn116  1  0.31363090  0.31225409  0.80888910  1
  Zn  Zn117  1  0.29322209  0.80904468  0.31237934  1
  Zn  Zn118  1  0.31066010  0.81153149  0.81248776  1
  Zn  Zn119  1  0.81169128  0.31341929  0.30893874  1
  Zn  Zn120  1  0.81098560  0.31211102  0.81070778  1
  Zn  Zn121  1  0.81411477  0.81547902  0.31019387  1
  Zn  Zn122  1  0.81116830  0.80688115  0.81172074  1
  Zn  Zn123  1  0.18581719  0.43477301  0.43779660  1
  Zn  Zn124  1  0.18913346  0.43997554  0.94248958  1
  Zn  Zn125  1  0.17608208  0.93650713  0.43037904  1
  Zn  Zn126  1  0.18911581  0.94295568  0.93897325  1
  Zn  Zn127  1  0.68722547  0.43484753  0.44050203  1
  Zn  Zn128  1  0.69044173  0.43732584  0.93665116  1
  Zn  Zn129  1  0.58792752  0.94189586  0.43966173  1
  Zn  Zn130  1  0.68951802  0.93864438  0.93871844  1
  Zn  Zn131  1  0.31209931  0.06282565  0.06272073  1
  Zn  Zn132  1  0.31442394  0.07716363  0.55499176  1
  Zn  Zn133  1  0.31921520  0.56488565  0.05742606  1
  Zn  Zn134  1  0.31097381  0.55997629  0.56407127  1
  Zn  Zn135  1  0.81456898  0.06014141  0.06507879  1
  Zn  Zn136  1  0.80835462  0.06297546  0.55933655  1
  Zn  Zn137  1  0.81263592  0.55875153  0.05802020  1
  Zn  Zn138  1  0.81687817  0.56318316  0.56382962  1
  Zn  Zn139  1  0.43682607  0.44086202  0.18805208  1
  Zn  Zn140  1  0.43823301  0.43742424  0.69077640  1
  Zn  Zn141  1  0.43700384  0.93619805  0.18540630  1
  Zn  Zn142  1  0.44503735  0.93894748  0.69138296  1
  Zn  Zn143  1  0.93151730  0.43662445  0.18988079  1
  Zn  Zn144  1  0.94022476  0.43755185  0.69029438  1
  Zn  Zn145  1  0.93891046  0.93895317  0.18732926  1
  Zn  Zn146  1  0.93656466  0.93948760  0.68381074  1
  Zn  Zn147  1  0.05766497  0.06524427  0.31346501  1
  Zn  Zn148  1  0.06519853  0.06398179  0.81320144  1
  Zn  Zn149  1  0.05621183  0.56526079  0.31648467  1
  Zn  Zn150  1  0.06397562  0.56702114  0.81196860  1
  Zn  Zn151  1  0.55358026  0.05862124  0.30917563  1
  Zn  Zn152  1  0.56504483  0.06106243  0.81264624  1
  Zn  Zn153  1  0.55323304  0.56631435  0.30979690  1
  Zn  Zn154  1  0.56608629  0.56042239  0.81348038  1
  Zn  Zn155  1  0.43669858  0.18488208  0.43525014  1
  Zn  Zn156  1  0.44121318  0.19127671  0.93588219  1
  Zn  Zn157  1  0.43093451  0.68616991  0.44841098  1
  Zn  Zn158  1  0.43833526  0.67920273  0.94289897  1
  Zn  Zn159  1  0.93797782  0.18612334  0.43635684  1
  Zn  Zn160  1  0.93714609  0.18117519  0.94005807  1
  Zn  Zn161  1  0.93579227  0.68658979  0.44160617  1
  Zn  Zn162  1  0.94015325  0.68682692  0.93558772  1
  Zn  Zn163  1  0.06271211  0.31323237  0.06479270  1
  Zn  Zn164  1  0.06258961  0.31415870  0.56183146  1
  Zn  Zn165  1  0.06294908  0.81106248  0.06376432  1
  Zn  Zn166  1  0.06477287  0.81590958  0.56661605  1
  Zn  Zn167  1  0.56050084  0.31199050  0.06410347  1
  Zn  Zn168  1  0.56290592  0.30841068  0.56171268  1
  Zn  Zn169  1  0.56107868  0.81030308  0.06183292  1
  Zn  Zn170  1  0.56073418  0.80987556  0.56515239  1
  O  O171  1  0.12303755  0.11795956  0.11920108  1
  O  O172  1  0.12491445  0.12115882  0.61530903  1
  O  O173  1  0.11455956  0.62492316  0.11328874  1
  O  O174  1  0.11226216  0.62205314  0.63234090  1
  O  O175  1  0.61934694  0.11996661  0.12059552  1
  O  O176  1  0.62557551  0.11722267  0.62500954  1
  O  O177  1  0.62974187  0.63364406  0.11236413  1
  O  O178  1  0.62032682  0.61952955  0.62599963  1
  O  O179  1  0.37934470  0.38309484  0.37729868  1
  O  O180  1  0.39105762  0.37365533  0.86853811  1
  O  O181  1  0.39510023  0.83611903  0.35702160  1
  O  O182  1  0.38444587  0.88076862  0.87284825  1
  O  O183  1  0.88007594  0.38268385  0.37502701  1
  O  O184  1  0.88010947  0.37429445  0.86821472  1
  O  O185  1  0.88570223  0.88267425  0.37274044  1
  O  O186  1  0.86518678  0.87508524  0.89019259  1
  O  O187  1  0.24550127  0.00758719  0.37173366  1
  O  O188  1  0.25971029  0.00903146  0.86703480  1
  O  O189  1  0.25706029  0.50796534  0.38467065  1
  O  O190  1  0.25238437  0.50095733  0.86348575  1
  O  O191  1  0.76506737  -0.00627140  0.37379434  1
  O  O192  1  0.75038868  0.00652615  0.86449411  1
  O  O193  1  0.75493015  0.50679584  0.37567660  1
  O  O194  1  0.74945210  0.51480723  0.87163113  1
  O  O195  1  0.25363039  0.49506853  0.12456243  1
  O  O196  1  0.24829975  0.49180622  0.63556675  1
  O  O197  1  0.24363969  0.98666850  0.11861425  1
  O  O198  1  0.25080407  0.99555035  0.62677152  1
  O  O199  1  0.76701480  0.49358042  0.13505281  1
  O  O200  1  0.74211540  0.49015909  0.61612725  1
  O  O201  1  0.74305434  0.99284410  0.13019580  1
  O  O202  1  0.74425715  0.99180743  0.63117354  1
  O  O203  1  0.00141623  0.36635448  0.25637464  1
  O  O204  1  0.01544989  0.36677434  0.74495252  1
  O  O205  1  -0.00535858  0.86497266  0.25753378  1
  O  O206  1  0.01240192  0.87923256  0.74700780  1
  O  O207  1  0.50645374  0.37037786  0.25680480  1
  O  O208  1  0.50910266  0.37238473  0.75571054  1
  O  O209  1  0.50850194  0.86097703  0.24170756  1
  O  O210  1  0.51370487  0.88068264  0.76186069  1
  O  O211  1  0.49452007  0.13366869  0.24284362  1
  O  O212  1  0.49133780  0.12558919  0.74882758  1
  O  O213  1  0.48174194  0.64616164  0.25971021  1
  O  O214  1  0.49342542  0.61829197  0.74084980  1
  O  O215  1  0.99120936  0.13406456  0.24553248  1
  O  O216  1  0.99887978  0.13091339  0.74167947  1
  O  O217  1  0.99196421  0.63237829  0.24252274  1
  O  O218  1  0.99319218  0.62808715  0.74189936  1
  O  O219  1  0.37494171  0.24447484  0.01600353  1
  O  O220  1  0.37736191  0.25590311  0.50817549  1
  O  O221  1  0.36670715  0.74905516  0.00526504  1
  O  O222  1  0.36251379  0.74973231  0.51594306  1
  O  O223  1  0.88208970  0.24607694  0.01710935  1
  O  O224  1  0.86645024  0.24860220  0.50673883  1
  O  O225  1  0.88341248  0.75782616  0.01351445  1
  O  O226  1  0.85961107  0.74904227  0.50234879  1
  O  O227  1  0.11764699  0.23807150  0.48977351  1
  O  O228  1  0.12682563  0.23581154  1.00598979  1
  O  O229  1  0.12778978  0.74967521  0.49302791  1
  O  O230  1  0.13148140  0.74350544  1.00099890  1
  O  O231  1  0.63840461  0.23996187  0.50390571  1
  O  O232  1  0.62266174  0.23536608  1.00275736  1
  O  O233  1  0.63628541  0.74276510  0.49517428  1
  O  O234  1  0.62738176  0.74727562  0.98956497  1
  O  O235  1  0.48861661  0.24703568  0.13033160  1
  O  O236  1  0.48826896  0.25068024  0.62902625  1
  O  O237  1  0.48346110  0.74740637  0.12001795  1
  O  O238  1  0.49135105  0.73814540  0.62394491  1
  O  O239  1  0.99539723  0.24455619  0.13510912  1
  O  O240  1  0.98967773  0.24568533  0.62615900  1
  O  O241  1  0.99613118  0.74325189  0.13300911  1
  O  O242  1  0.99858702  0.74443207  0.62814856  1
  O  O243  1  0.00663385  0.25351844  0.36772526  1
  O  O244  1  -0.00091398  0.23977511  0.86266874  1
  O  O245  1  0.00014979  0.75559488  0.37373461  1
  O  O246  1  0.00343826  0.75205436  0.87241854  1
  O  O247  1  0.48999370  0.26114620  0.36517048  1
  O  O248  1  0.50641365  0.26198501  0.87269528  1
  O  O249  1  0.51548241  0.73912110  0.38412778  1
  O  O250  1  0.50727938  0.76000524  0.87982827  1
  O  O251  1  0.24142537  0.12510993  0.48214498  1
  O  O252  1  0.24358800  0.12460927  0.99072260  1
  O  O253  1  0.25145040  0.63318488  0.49453984  1
  O  O254  1  0.24017167  0.63404011  1.00142974  1
  O  O255  1  0.74100981  0.13840947  0.50276799  1
  O  O256  1  0.74240182  0.11492986  0.99126167  1
  O  O257  1  0.74493952  0.63156681  0.49524806  1
  O  O258  1  0.73974658  0.62304701  0.98805003  1
  O  O259  1  0.24928556  0.37486248  0.01656962  1
  O  O260  1  0.25525484  0.37904333  0.51260333  1
  O  O261  1  0.25185954  0.86969656  0.00305628  1
  O  O262  1  0.23953251  0.86264466  0.49903199  1
  O  O263  1  0.75447396  0.37071701  -0.00323502  1
  O  O264  1  0.74979712  0.36273422  0.51016159  1
  O  O265  1  0.75879700  0.88238988  0.01375108  1
  O  O266  1  0.74225212  0.86993964  0.51484606  1
  O  O267  1  0.12271919  0.50418733  0.25330132  1
  O  O268  1  0.13052544  0.48835663  0.74908919  1
  O  O269  1  0.11823519  1.00589904  0.23585934  1
  O  O270  1  0.13338826  0.99720713  0.74300317  1
  O  O271  1  0.62078316  0.48702848  0.25693529  1
  O  O272  1  0.62326518  0.49020076  0.73675307  1
  O  O273  1  0.62385897  0.98914165  0.24241416  1
  O  O274  1  0.63476382  0.99313309  0.74382274  1
  O  O275  1  0.38154641  0.01556996  0.24520883  1
  O  O276  1  0.37000572  0.00956038  0.75082970  1
  O  O277  1  0.37906079  0.50911505  0.26631805  1
  O  O278  1  0.36628096  0.50768834  0.75153742  1
  O  O279  1  0.87558460  0.00950636  0.25703805  1
  O  O280  1  0.86780408  0.00424912  0.75183597  1
  O  O281  1  0.87773657  0.50831467  0.26576613  1
  O  O282  1  0.87962714  0.51454420  0.74965473  1
  O  O283  1  0.11911880  0.36680695  0.37255416  1
  O  O284  1  0.13287738  0.37288087  0.86198288  1
  O  O285  1  0.10836379  0.86415232  0.37559836  1
  O  O286  1  0.12906553  0.88387627  0.85791941  1
  O  O287  1  0.61064516  0.37835330  0.37191563  1
  O  O288  1  0.61974036  0.37451461  0.86452919  1
  O  O289  1  0.63108623  0.86525679  0.36029682  1
  O  O290  1  0.62336136  0.86768106  0.87114216  1
  O  O291  1  0.37833146  0.13248170  0.13150547  1
  O  O292  1  0.37899420  0.13233351  0.62954227  1
  O  O293  1  0.36842917  0.63609389  0.13733691  1
  O  O294  1  0.38202830  0.62883382  0.63331717  1
  O  O295  1  0.87976210  0.13339120  0.13294288  1
  O  O296  1  0.87892346  0.13074061  0.63028111  1
  O  O297  1  0.88187983  0.63405303  0.12683159  1
  O  O298  1  0.88257765  0.62869036  0.63156986  1
  O  O299  1  0.26233905  0.25105722  0.12273927  1
  O  O300  1  0.26262084  0.25769379  0.62958496  1
  O  O301  1  0.25827725  0.76585420  0.11219576  1
  O  O302  1  0.25447289  0.74924221  0.61663990  1
  O  O303  1  0.76322856  0.25139440  0.13170066  1
  O  O304  1  0.76221920  0.25456837  0.61948046  1
  O  O305  1  0.76352947  0.75969480  0.12898530  1
  O  O306  1  0.74766101  0.76206560  0.61924284  1
  O  O307  1  0.23885191  0.25082038  0.36816814  1
  O  O308  1  0.25808626  0.23709430  0.87663659  1
  O  O309  1  0.23632169  0.74182587  0.38505933  1
  O  O310  1  0.24567758  0.75095802  0.88725299  1
  O  O311  1  0.75564968  0.25433776  0.39098414  1
  O  O312  1  0.74632378  0.23214255  0.86536024  1
  O  O313  1  0.74382420  0.74529294  0.38154824  1
  O  O314  1  0.74211114  0.73734496  0.87330289  1
  O  O315  1  0.00807173  0.11739128  0.00763475  1
  O  O316  1  0.00855520  0.11762795  0.50347498  1
  O  O317  1  0.00504733  0.61633737  0.00721981  1
  O  O318  1  -0.00636469  0.61644935  0.51117157  1
  O  O319  1  0.50749945  0.11887614  0.00426835  1
  O  O320  1  0.51849879  0.13467161  0.50039020  1
  O  O321  1  0.52327582  0.62961821  0.00014153  1
  O  O322  1  0.50564218  0.61929988  0.51288572  1
  O  O323  1  0.49456804  0.37795404  0.49387795  1
  O  O324  1  0.50819821  0.37832671  0.98611688  1
  O  O325  1  0.51165742  0.88093914  0.49867749  1
  O  O326  1  0.49905608  0.88180940  0.99147685  1
  O  O327  1  0.99617919  0.38200882  0.49343030  1
  O  O328  1  0.99869538  0.38760560  1.00451157  1
  O  O329  1  1.00410230  0.88911438  0.49531792  1
  O  O330  1  0.99144364  0.88425344  1.00827800  1
  O  O331  1  0.49118420  0.49564756  0.38347055  1
  O  O332  1  0.50201917  0.48343581  0.86993562  1
  O  O333  1  0.50291038  0.99543436  0.38211431  1
  O  O334  1  0.49747839  0.99229886  0.88013443  1
  O  O335  1  0.99099710  0.49665951  0.38453891  1
  O  O336  1  1.00025218  0.50146872  0.88442955  1
  O  O337  1  0.99551461  0.99294370  0.38081444  1
  O  O338  1  0.99974048  1.00517150  0.88927969  1
  O  O339  1  0.00752270  0.00573834  0.11804676  1
  O  O340  1  0.00501967  0.00734902  0.61691541  1
  O  O341  1  -0.00902953  0.50953452  0.12024920  1
  O  O342  1  0.00006168  0.50683418  0.61713335  1
  O  O343  1  0.50627068  0.00405217  0.11756669  1
  O  O344  1  0.51578716  0.00307303  0.62800143  1
  O  O345  1  0.49583523  0.51456758  0.13165620  1
  O  O346  1  0.50714973  0.50527721  0.62050855  1
  O  O347  1  0.24837995  0.37160485  0.23120508  1
  O  O348  1  0.24165077  0.37870661  0.74281589  1
  O  O349  1  0.24597445  0.87427365  0.23373125  1
  O  O350  1  0.24487723  0.88969852  0.75292336  1
  O  O351  1  0.72871586  0.37375901  0.25679288  1
  O  O352  1  0.74184224  0.37053327  0.73504143  1
  O  O353  1  0.74237629  0.87638943  0.23937405  1
  O  O354  1  0.74458202  0.88202582  0.74487585  1
  O  O355  1  0.25601038  0.12780223  0.26252674  1
  O  O356  1  0.25579904  0.11586896  0.75482770  1
  O  O357  1  0.26012969  0.62442177  0.26340996  1
  O  O358  1  0.25555849  0.61604939  0.74961272  1
  O  O359  1  0.76107816  0.12481248  0.24853088  1
  O  O360  1  0.75510591  0.11449796  0.75422698  1
  O  O361  1  0.75492627  0.62518161  0.26103125  1
  O  O362  1  0.75653917  0.62656914  0.76089861  1
  O  O363  1  0.35955894  0.12780844  0.36897838  1
  O  O364  1  0.37270146  0.12079377  0.86646012  1
  O  O365  1  0.36401629  0.61956299  0.37513234  1
  O  O366  1  0.37408645  0.63275806  0.85856608  1
  O  O367  1  0.88211124  0.11522611  0.36505735  1
  O  O368  1  0.86795418  0.11962304  0.86930993  1
  O  O369  1  0.86388751  0.62067936  0.37355415  1
  O  O370  1  0.86276675  0.62442809  0.86986122  1
  O  O371  1  0.13936099  0.37353539  0.12834106  1
  O  O372  1  0.13450659  0.37492198  0.62986726  1
  O  O373  1  0.13712790  0.88255038  0.11985375  1
  O  O374  1  0.12546790  0.88663879  0.63751666  1
  O  O375  1  0.62442793  0.37318454  0.13881063  1
  O  O376  1  0.63086994  0.38134621  0.62785084  1
  O  O377  1  0.63218533  0.87458702  0.13124638  1
  O  O378  1  0.63450695  0.88063881  0.63456550  1
  O  O379  1  0.11477253  0.24824180  0.25716815  1
  O  O380  1  0.11822072  0.26105863  0.74593770  1
  O  O381  1  0.10996002  0.74430302  0.26762699  1
  O  O382  1  0.12887912  0.76914465  0.75138959  1
  O  O383  1  0.60926368  0.25954286  0.24752625  1
  O  O384  1  0.62432394  0.26236384  0.74685850  1
  O  O385  1  0.62529978  0.75454995  0.26142529  1
  O  O386  1  0.62881763  0.76202962  0.75945516  1
  O  O387  1  0.38357032  0.24234299  0.23968197  1
  O  O388  1  0.37529706  0.23795380  0.74277373  1
  O  O389  1  0.36854567  0.74525266  0.24141184  1
  O  O390  1  0.36484566  0.74164921  0.73649177  1
  O  O391  1  0.88185652  0.24396364  0.24524980  1
  O  O392  1  0.88319661  0.24259421  0.74109900  1
  O  O393  1  0.88238258  0.74494853  0.24209827  1
  O  O394  1  0.87421734  0.73872471  0.74495863  1
  O  O395  1  0.37990156  0.49343284  0.49385084  1
  O  O396  1  0.39034226  0.52408096  0.98535798  1
  O  O397  1  0.35630288  0.97868674  0.50731285  1
  O  O398  1  0.38507476  1.00053074  0.99375582  1
  O  O399  1  0.88037832  0.49814444  0.48943121  1
  O  O400  1  0.89078215  0.50139059  0.99174439  1
  O  O401  1  0.88447721  1.00890545  0.49219940  1
  O  O402  1  0.88596619  0.99159432  1.00151039  1
  O  O403  1  0.11946947  0.00831163  0.00779970  1
  O  O404  1  0.11815484  0.01045217  0.50245289  1
  O  O405  1  0.11146656  0.50683022  -0.00256094  1
  O  O406  1  0.11111988  0.49719713  0.50173954  1
  O  O407  1  0.61875765  0.00648134  0.00555955  1
  O  O408  1  0.63764012  0.02029799  0.50922351  1
  O  O409  1  0.62261071  0.51308061  -0.00126759  1
  O  O410  1  0.62029359  0.50520214  0.51010785  1
  O  O411  1  0.36695441  0.36411009  0.13094586  1
  O  O412  1  0.36843223  0.36911419  0.62139088  1
  O  O413  1  0.36545507  0.87008648  0.12255181  1
  O  O414  1  0.37394317  0.86744007  0.63399040  1
  O  O415  1  0.87600309  0.35721741  0.12821199  1
  O  O416  1  0.86907144  0.36779426  0.62484242  1
  O  O417  1  0.86945551  0.86986641  0.11996692  1
  O  O418  1  0.85849339  0.87529277  0.62856711  1
  O  O419  1  0.13444617  0.12963048  0.37792285  1
  O  O420  1  0.13718139  0.11896584  0.88408707  1
  O  O421  1  0.13262122  0.63131080  0.37722082  1
  O  O422  1  0.12778892  0.62802864  0.88727558  1
  O  O423  1  0.62578203  0.12299786  0.38297084  1
  O  O424  1  0.63192458  0.12445166  0.88459497  1
  O  O425  1  0.63429991  0.62855706  0.37857508  1
  O  O426  1  0.63354769  0.63090517  0.87801953  1
