# generated using pymatgen
data_V85Zn86O256
_symmetry_space_group_name_H-M   'P 1'
_cell_length_a   16.92278849
_cell_length_b   16.92169546
_cell_length_c   16.92436172
_cell_angle_alpha   90.02046125
_cell_angle_beta   90.04667129
_cell_angle_gamma   90.00013464
_symmetry_Int_Tables_number   1
_chemical_formula_structural   V85Zn86O256
_chemical_formula_sum   'V85 Zn86 O256'
_cell_volume   4846.49677928
_cell_formula_units_Z   1
loop_
 _symmetry_equiv_pos_site_id
 _symmetry_equiv_pos_as_xyz
  1  'x, y, z'
loop_
 _atom_site_type_symbol
 _atom_site_label
 _atom_site_symmetry_multiplicity
 _atom_site_fract_x
 _atom_site_fract_y
 _atom_site_fract_z
 _atom_site_occupancy
  V  V0  1  0.25066206  -0.00283415  0.25218134  1
  V  V1  1  0.25302125  0.61426918  0.86824111  1
  V  V2  1  0.37348939  0.61667733  0.74730686  1
  V  V3  1  0.75045827  0.74724033  0.00646240  1
  V  V4  1  0.87615646  0.37090100  0.00492096  1
  V  V5  1  0.86933894  0.50241369  0.36242678  1
  V  V6  1  0.74966332  0.75543205  0.51377120  1
  V  V7  1  0.87466284  0.11442233  0.25212678  1
  V  V8  1  0.75147916  0.12300424  0.88390698  1
  V  V9  1  0.50825566  0.24859753  0.75863681  1
  V  V10  1  0.75157113  -0.00289950  0.74786753  1
  V  V11  1  0.12211754  0.87099942  0.24740826  1
  V  V12  1  0.63005933  0.87335960  0.75061096  1
  V  V13  1  0.37941732  0.75067444  0.62216106  1
  V  V14  1  0.37456892  0.37763308  0.50534447  1
  V  V15  1  0.49953243  0.74891374  0.74601774  1
  V  V16  1  0.60131213  0.12106240  -0.00095580  1
  V  V17  1  -0.00335159  0.63912145  0.12821701  1
  V  V18  1  0.74717047  0.11770261  0.36476688  1
  V  V19  1  0.24969658  0.62718633  0.37397602  1
  V  V20  1  0.12841665  0.24615132  0.87807783  1
  V  V21  1  0.49925307  0.75007030  0.25415574  1
  V  V22  1  0.37523508  0.50002854  0.37445568  1
  V  V23  1  0.00301953  0.87344744  0.87545245  1
  V  V24  1  0.62575700  0.50463632  0.13718861  1
  V  V25  1  0.24965651  0.25060192  0.50297857  1
  V  V26  1  -0.00171374  0.12125231  0.62095362  1
  V  V27  1  0.87666638  0.86551690  0.00532369  1
  V  V28  1  0.37533011  -0.00304507  0.87990040  1
  V  V29  1  0.37207037  0.88047674  0.48769750  1
  V  V30  1  0.25075748  0.49814708  0.24501740  1
  V  V31  1  0.62587311  0.61673408  -0.00214948  1
  V  V32  1  0.60755648  -0.00101743  0.12342953  1
  V  V33  1  0.74843604  0.24878893  0.49878627  1
  V  V34  1  0.00534580  0.11882348  0.12917311  1
  V  V35  1  0.25141006  0.87946262  0.63396887  1
  V  V36  1  0.38977172  0.39901038  -0.02503366  1
  V  V37  1  0.49964744  0.37333068  0.37387522  1
  V  V38  1  0.49960218  0.12192145  0.62660826  1
  V  V39  1  0.48911604  0.62737263  0.11582891  1
  V  V40  1  0.13225703  0.12005662  0.00522665  1
  V  V41  1  0.87285378  0.37792978  0.49937763  1
  V  V42  1  0.12467426  0.62625694  0.49989774  1
  V  V43  1  0.87625238  0.64314125  0.24759326  1
  V  V44  1  0.87627606  -0.00109218  0.87617080  1
  V  V45  1  0.37531324  0.25102807  0.63211017  1
  V  V46  1  -0.00449999  0.87487238  0.37363868  1
  V  V47  1  -0.00342781  0.63143320  0.62314340  1
  V  V48  1  0.12581876  0.62476914  -0.00048237  1
  V  V49  1  0.12670798  0.37747264  0.75262013  1
  V  V50  1  0.12565112  0.24784668  0.37752259  1
  V  V51  1  -0.00064814  0.24828408  0.24837395  1
  V  V52  1  0.12743179  0.50071433  0.62956168  1
  V  V53  1  0.25848441  0.74431440  0.00336971  1
  V  V54  1  0.73858062  0.37526592  0.62688671  1
  V  V55  1  0.12819816  0.00158056  0.63195266  1
  V  V56  1  0.87469273  0.62758626  0.74787531  1
  V  V57  1  0.75056970  0.49651347  0.75242193  1
  V  V58  1  0.62108558  0.51351690  0.62309293  1
  V  V59  1  0.87828680  0.87430302  0.51793665  1
  V  V60  1  0.74748066  0.37762291  0.13381688  1
  V  V61  1  0.62661968  -0.00564528  0.62468218  1
  V  V62  1  0.25384602  0.37822674  0.63785630  1
  V  V63  1  0.13081535  0.37481057  0.24898163  1
  V  V64  1  -0.00228175  0.37544858  0.37553882  1
  V  V65  1  0.38144420  0.12724019  0.23084707  1
  V  V66  1  0.87440223  0.25203187  0.62458555  1
  V  V67  1  0.00022454  0.49754208  0.00489533  1
  V  V68  1  0.38226208  0.87032634  0.00801802  1
  V  V69  1  0.24728999  0.87753478  0.12314661  1
  V  V70  1  0.24884578  0.75335470  0.49888614  1
  V  V71  1  0.26215906  0.11997414  0.37658886  1
  V  V72  1  0.12208548  0.11763456  0.49777631  1
  V  V73  1  0.24738827  0.11529194  0.87092520  1
  V  V74  1  -0.00272477  0.25033031  0.75065801  1
  V  V75  1  0.50153393  0.87641617  0.87940273  1
  V  V76  1  0.74188789  0.63375029  0.37155010  1
  V  V77  1  0.00052142  0.37494694  0.87936386  1
  V  V78  1  0.62679384  0.12376608  0.49944265  1
  V  V79  1  -0.00200820  0.75274337  0.74682221  1
  V  V80  1  0.49715587  0.00027673  0.48846944  1
  V  V81  1  0.37073797  0.11581868  0.75117492  1
  V  V82  1  0.00445328  -0.00336045  0.00691034  1
  V  V83  1  -0.00254697  0.50173503  0.49929968  1
  V  V84  1  0.75360815  0.88377524  0.13193593  1
  Zn  Zn85  1  0.50592466  0.86996969  0.37422759  1
  Zn  Zn86  1  0.30299233  0.30924687  0.07634369  1
  Zn  Zn87  1  0.86420050  0.24585641  0.12889821  1
  Zn  Zn88  1  0.49315693  0.25805735  0.23106730  1
  Zn  Zn89  1  0.87324864  0.12536879  0.75114153  1
  Zn  Zn90  1  0.62212088  0.25116031  0.37457719  1
  Zn  Zn91  1  0.37080666  0.62860077  0.23913021  1
  Zn  Zn92  1  0.12553104  0.50296311  0.12751461  1
  Zn  Zn93  1  0.62677799  0.75015186  0.87790991  1
  Zn  Zn94  1  0.75268479  0.62747347  0.87562264  1
  Zn  Zn95  1  0.12876033  0.75006745  0.87209065  1
  Zn  Zn96  1  0.12856052  0.87829365  0.75259188  1
  Zn  Zn97  1  0.62470652  0.37755693  0.25539913  1
  Zn  Zn98  1  0.87594218  0.50136416  0.87693233  1
  Zn  Zn99  1  0.74538132  0.25047450  0.00084232  1
  Zn  Zn100  1  0.62915433  0.25659521  0.87438380  1
  Zn  Zn101  1  0.49613623  0.50808024  0.50827288  1
  Zn  Zn102  1  0.11942230  0.74868144  0.36993340  1
  Zn  Zn103  1  0.62873884  0.87572765  0.25525131  1
  Zn  Zn104  1  0.87841289  -0.00074819  0.38432647  1
  Zn  Zn105  1  0.53048622  0.40935398  0.86863384  1
  Zn  Zn106  1  0.61409796  0.63915517  0.49635737  1
  Zn  Zn107  1  0.19331073  0.18482493  0.18985244  1
  Zn  Zn108  1  0.18778067  0.18773171  0.69088162  1
  Zn  Zn109  1  0.18822784  0.68899456  0.18463974  1
  Zn  Zn110  1  0.18636004  0.69288461  0.68673011  1
  Zn  Zn111  1  0.64387797  0.20980487  0.16292445  1
  Zn  Zn112  1  0.68989954  0.18156756  0.68834753  1
  Zn  Zn113  1  0.68743599  0.69193643  0.18802641  1
  Zn  Zn114  1  0.69036216  0.68937812  0.68840160  1
  Zn  Zn115  1  0.31501694  0.30920639  0.31230405  1
  Zn  Zn116  1  0.32008743  0.30289718  0.83084972  1
  Zn  Zn117  1  0.31767636  0.80709252  0.30661505  1
  Zn  Zn118  1  0.31353867  0.80729747  0.81593034  1
  Zn  Zn119  1  0.81053490  0.30693733  0.31123603  1
  Zn  Zn120  1  0.80973879  0.31435032  0.81591578  1
  Zn  Zn121  1  0.81085180  0.81294637  0.31636673  1
  Zn  Zn122  1  0.81433913  0.81018805  0.81515081  1
  Zn  Zn123  1  0.18839916  0.43791260  0.43887280  1
  Zn  Zn124  1  0.19153483  0.43572514  0.93815059  1
  Zn  Zn125  1  0.18394757  0.93870576  0.43611698  1
  Zn  Zn126  1  0.18938794  0.93635388  0.93968326  1
  Zn  Zn127  1  0.68822323  0.44402353  0.43838215  1
  Zn  Zn128  1  0.69336837  0.43796010  0.94041846  1
  Zn  Zn129  1  0.69022496  0.93251005  0.43662311  1
  Zn  Zn130  1  0.68680885  0.93892737  0.94148561  1
  Zn  Zn131  1  0.31398749  0.05574550  0.06190327  1
  Zn  Zn132  1  0.31151373  0.06060701  0.56241818  1
  Zn  Zn133  1  0.30865053  0.53162083  0.04801973  1
  Zn  Zn134  1  0.31317052  0.56324475  0.56657085  1
  Zn  Zn135  1  0.81821816  0.05798524  0.06583502  1
  Zn  Zn136  1  0.81283732  0.05947650  0.56185524  1
  Zn  Zn137  1  0.81230114  0.56018075  0.06771907  1
  Zn  Zn138  1  0.80964824  0.56619684  0.55897821  1
  Zn  Zn139  1  0.43644745  0.43888989  0.17922620  1
  Zn  Zn140  1  0.44847858  0.44881035  0.71638578  1
  Zn  Zn141  1  0.43285041  0.93763359  0.19143000  1
  Zn  Zn142  1  0.43844833  0.93542333  0.68762350  1
  Zn  Zn143  1  0.93994699  0.43732498  0.18560509  1
  Zn  Zn144  1  0.93638413  0.43921935  0.68666977  1
  Zn  Zn145  1  0.93831804  0.93278285  0.18985181  1
  Zn  Zn146  1  0.94079815  0.94104238  0.68785873  1
  Zn  Zn147  1  0.06582834  0.05292011  0.31465353  1
  Zn  Zn148  1  0.05904655  0.06165316  0.81123084  1
  Zn  Zn149  1  0.05915448  0.56421556  0.31164476  1
  Zn  Zn150  1  0.06371960  0.56324067  0.81427037  1
  Zn  Zn151  1  0.56467370  0.06037957  0.30612438  1
  Zn  Zn152  1  0.56179797  0.06043127  0.81608660  1
  Zn  Zn153  1  0.55687553  0.56589953  0.31063686  1
  Zn  Zn154  1  0.56828036  0.57102978  0.80565482  1
  Zn  Zn155  1  0.43728616  0.18966592  0.44085566  1
  Zn  Zn156  1  0.42858107  0.19868367  0.94643642  1
  Zn  Zn157  1  0.43664578  0.68599869  0.43737637  1
  Zn  Zn158  1  0.43793807  0.68319286  0.93330460  1
  Zn  Zn159  1  0.93556765  0.18709612  0.43713148  1
  Zn  Zn160  1  0.93843970  0.18624597  0.94124006  1
  Zn  Zn161  1  0.93347257  0.69427404  0.43575976  1
  Zn  Zn162  1  0.93924271  0.68704846  0.93557248  1
  Zn  Zn163  1  0.10266511  0.29395571  0.08048099  1
  Zn  Zn164  1  0.06321317  0.31204551  0.56304814  1
  Zn  Zn165  1  0.06900070  0.81002305  0.06320610  1
  Zn  Zn166  1  0.06172350  0.81546408  0.55883167  1
  Zn  Zn167  1  0.54390995  0.32367571  0.05856673  1
  Zn  Zn168  1  0.55912768  0.31346939  0.56134967  1
  Zn  Zn169  1  0.56597094  0.80673828  0.06677763  1
  Zn  Zn170  1  0.56336857  0.81507264  0.55903320  1
  O  O171  1  0.11401953  0.12285840  0.11880873  1
  O  O172  1  0.12009880  0.12130975  0.61959257  1
  O  O173  1  0.11622861  0.62393030  0.11853532  1
  O  O174  1  0.11965019  0.61776258  0.62185780  1
  O  O175  1  0.63009722  0.10799546  0.10677107  1
  O  O176  1  0.61795059  0.11426986  0.62175546  1
  O  O177  1  0.62390670  0.61734797  0.11981344  1
  O  O178  1  0.62943843  0.61626428  0.62183322  1
  O  O179  1  0.37654444  0.38237764  0.38352905  1
  O  O180  1  0.37383505  0.39148373  0.87194015  1
  O  O181  1  0.37653094  0.87313248  0.38540234  1
  O  O182  1  0.38028498  0.87982322  0.88142492  1
  O  O183  1  0.87650165  0.38238037  0.37890225  1
  O  O184  1  0.88352294  0.37566815  0.88559235  1
  O  O185  1  0.88484642  0.87849167  0.37441472  1
  O  O186  1  0.88641953  0.87853299  0.88310211  1
  O  O187  1  0.24718009  0.00846617  0.36723189  1
  O  O188  1  0.25573565  0.00704654  0.87465372  1
  O  O189  1  0.25748657  0.50564031  0.36971175  1
  O  O190  1  0.24184629  0.51630692  0.86766866  1
  O  O191  1  0.75459587  0.01549557  0.38124235  1
  O  O192  1  0.75673617  0.00187593  0.86785988  1
  O  O193  1  0.76107107  0.51735105  0.38396214  1
  O  O194  1  0.75642782  0.50448147  0.86528197  1
  O  O195  1  0.24578002  0.50912480  0.14218692  1
  O  O196  1  0.23492153  0.49121494  0.61777575  1
  O  O197  1  0.25106223  0.98528592  0.13057469  1
  O  O198  1  0.24163819  0.99201609  0.62302851  1
  O  O199  1  0.73731742  0.49384266  0.12398621  1
  O  O200  1  0.74508882  0.49285073  0.62758572  1
  O  O201  1  0.74735752  0.98592042  0.12011069  1
  O  O202  1  0.74162981  1.00648420  0.63940024  1
  O  O203  1  0.00261750  0.36593600  0.25814668  1
  O  O204  1  0.00468130  0.36820220  0.75583155  1
  O  O205  1  0.00911140  0.87757431  0.25979992  1
  O  O206  1  0.00037935  0.86936806  0.75815797  1
  O  O207  1  0.49449119  0.37705449  0.26133046  1
  O  O208  1  0.49690235  0.34774217  0.74391711  1
  O  O209  1  0.49518540  0.86172446  0.24905510  1
  O  O210  1  0.51010358  0.86967527  0.75604562  1
  O  O211  1  0.48165505  0.12232771  0.25221395  1
  O  O212  1  0.49351940  0.12535040  0.74283727  1
  O  O213  1  0.49604304  0.63231711  0.23803784  1
  O  O214  1  0.49050895  0.64325061  0.74895347  1
  O  O215  1  0.99837427  0.12717117  0.24729021  1
  O  O216  1  0.99806736  0.13465059  0.74219237  1
  O  O217  1  0.98749466  0.62353839  0.24296341  1
  O  O218  1  0.99659602  0.63165626  0.74267707  1
  O  O219  1  0.35939142  0.27760294  -0.02217924  1
  O  O220  1  0.36925497  0.25618673  0.51210995  1
  O  O221  1  0.36866491  0.75690267  -0.00599583  1
  O  O222  1  0.36931096  0.76025974  0.50486175  1
  O  O223  1  0.87917859  0.26133542  0.00671287  1
  O  O224  1  0.86886562  0.25634106  0.50557753  1
  O  O225  1  0.87215972  0.76022999  -0.00275174  1
  O  O226  1  0.86464035  0.76314496  0.49742519  1
  O  O227  1  0.13062652  0.24085765  0.49780301  1
  O  O228  1  0.10870653  0.23297364  0.98383123  1
  O  O229  1  0.13192066  0.74324119  0.49838201  1
  O  O230  1  0.13265414  0.73625176  0.99775699  1
  O  O231  1  0.62960839  0.24215421  0.49855687  1
  O  O232  1  0.62743349  0.22666649  0.99252913  1
  O  O233  1  0.64183080  0.75429710  0.50353526  1
  O  O234  1  0.63441375  0.73877032  1.00020278  1
  O  O235  1  0.53449982  0.24009764  0.12685339  1
  O  O236  1  0.49560366  0.23622656  0.62992568  1
  O  O237  1  0.49994740  0.73291527  0.12852453  1
  O  O238  1  0.48992769  0.76241386  0.63200218  1
  O  O239  1  1.00638387  0.24122560  0.13998686  1
  O  O240  1  0.99756415  0.24321793  0.63298086  1
  O  O241  1  0.99892093  0.73833087  0.11843391  1
  O  O242  1  1.00564036  0.73895809  0.63028491  1
  O  O243  1  0.00461898  0.25267513  0.36678857  1
  O  O244  1  0.00437417  0.25226947  0.86598166  1
  O  O245  1  0.00284804  0.76638783  0.37863474  1
  O  O246  1  0.00354511  0.75819754  0.86812709  1
  O  O247  1  0.49645885  0.26650225  0.38128635  1
  O  O248  1  0.50341483  0.23656815  0.86120895  1
  O  O249  1  0.49660957  0.74734200  0.35909248  1
  O  O250  1  0.50032884  0.76088465  0.86483068  1
  O  O251  1  0.24379715  0.12980546  0.49507337  1
  O  O252  1  0.23652874  0.11495842  0.99377357  1
  O  O253  1  0.24429238  0.63015011  0.49329463  1
  O  O254  1  0.24617584  0.62480806  0.99125718  1
  O  O255  1  0.74493289  0.13013784  0.49559401  1
  O  O256  1  0.75983558  0.12185922  0.98916015  1
  O  O257  1  0.75162870  0.63919050  0.48974027  1
  O  O258  1  0.74776651  0.63201895  1.00077877  1
  O  O259  1  0.27471460  0.41177358  0.00815247  1
  O  O260  1  0.25396068  0.36939222  0.51083832  1
  O  O261  1  0.25535693  0.86599044  0.00577348  1
  O  O262  1  0.25572450  0.87369061  0.50581655  1
  O  O263  1  0.76238832  0.37465212  0.01070163  1
  O  O264  1  0.75426480  0.36906993  0.50629335  1
  O  O265  1  0.75982573  0.87041004  0.00625382  1
  O  O266  1  0.76203160  0.86402563  0.49823127  1
  O  O267  1  0.13311158  0.49251708  0.25710121  1
  O  O268  1  0.11815602  0.49192872  0.74031844  1
  O  O269  1  0.13991758  0.98792848  0.25221931  1
  O  O270  1  0.12109135  0.99891444  0.73690149  1
  O  O271  1  0.62544769  0.50021481  0.24040716  1
  O  O272  1  0.64432732  0.50915073  0.73656098  1
  O  O273  1  0.62228764  0.99911922  0.22847201  1
  O  O274  1  0.63099587  0.99344561  0.74573121  1
  O  O275  1  0.36240121  0.01265231  0.24566322  1
  O  O276  1  0.37986225  0.00814852  0.75990704  1
  O  O277  1  0.36689570  0.50195496  0.25713515  1
  O  O278  1  0.35951509  0.52238987  0.71723200  1
  O  O279  1  0.88010174  0.01192517  0.25380193  1
  O  O280  1  0.86694659  -0.00028191  0.75523128  1
  O  O281  1  0.87879156  0.50321855  0.26068156  1
  O  O282  1  0.86758486  0.50797831  0.74951110  1
  O  O283  1  0.11774307  0.36993973  0.37065763  1
  O  O284  1  0.12238323  0.36527034  0.87450431  1
  O  O285  1  0.11549831  0.87355586  0.36947602  1
  O  O286  1  0.11459947  0.87496494  0.87469589  1
  O  O287  1  0.61301676  0.38148189  0.37827105  1
  O  O288  1  0.63541973  0.37057125  0.87318548  1
  O  O289  1  0.61836689  0.88677075  0.36770425  1
  O  O290  1  0.61797916  0.87462552  0.86939016  1
  O  O291  1  0.37035280  0.12749136  0.13113456  1
  O  O292  1  0.38047867  0.12625661  0.63335638  1
  O  O293  1  0.38863513  0.61180839  0.11681685  1
  O  O294  1  0.36452711  0.64600290  0.62808967  1
  O  O295  1  0.88624931  0.12661815  0.13291938  1
  O  O296  1  0.88245548  0.13203110  0.62528124  1
  O  O297  1  0.87906645  0.62189745  0.14088530  1
  O  O298  1  0.88586524  0.61848614  0.63501262  1
  O  O299  1  0.21181817  0.26103747  0.11269129  1
  O  O300  1  0.25509984  0.25687868  0.62324087  1
  O  O301  1  0.24863687  0.75672003  0.11111694  1
  O  O302  1  0.25346974  0.76113006  0.61671010  1
  O  O303  1  0.74436781  0.26105799  0.12005222  1
  O  O304  1  0.75338104  0.25537133  0.62069294  1
  O  O305  1  0.74611959  0.76326520  0.11313589  1
  O  O306  1  0.75554811  0.74631313  0.61278926  1
  O  O307  1  0.24389679  0.24272159  0.38244332  1
  O  O308  1  0.23596141  0.23327659  0.86766399  1
  O  O309  1  0.25010125  0.74190735  0.38026281  1
  O  O310  1  0.24731168  0.74409675  0.88789369  1
  O  O311  1  0.75017993  0.23929073  0.38491310  1
  O  O312  1  0.75136815  0.23700638  0.87735502  1
  O  O313  1  0.75316463  0.73777385  0.38236655  1
  O  O314  1  0.74996628  0.75029022  0.89002359  1
  O  O315  1  0.00516153  0.11485149  0.00919120  1
  O  O316  1  0.00968867  0.13335113  0.50891225  1
  O  O317  1  0.00633081  0.61964386  0.00459740  1
  O  O318  1  0.00243192  0.62384683  0.50631794  1
  O  O319  1  0.50285362  0.12230510  -0.00840764  1
  O  O320  1  0.50449594  0.11947885  0.50808454  1
  O  O321  1  0.51042350  0.63171539  0.00845058  1
  O  O322  1  0.50208001  0.62111794  0.49810326  1
  O  O323  1  0.48982594  0.38261135  0.49650443  1
  O  O324  1  0.49641872  0.37579281  0.97404435  1
  O  O325  1  0.49076346  0.88401870  0.49842198  1
  O  O326  1  0.49341709  0.86405204  0.99222334  1
  O  O327  1  0.99431657  0.37926160  0.49470964  1
  O  O328  1  0.99658200  0.38331601  0.99898263  1
  O  O329  1  0.98571701  0.87097395  0.49244393  1
  O  O330  1  0.99737775  0.87754576  0.99647707  1
  O  O331  1  0.48543409  0.49525724  0.37428146  1
  O  O332  1  0.48804894  0.49624567  0.81528418  1
  O  O333  1  0.49996388  1.00584682  0.38721769  1
  O  O334  1  0.49129984  0.98511590  0.87109844  1
  O  O335  1  0.99161581  0.49585727  0.38121221  1
  O  O336  1  1.00072671  0.49479165  0.88742959  1
  O  O337  1  1.00049440  0.98342343  0.37900197  1
  O  O338  1  0.99527217  0.99252068  0.88129566  1
  O  O339  1  -0.00314364  0.00537773  0.11811843  1
  O  O340  1  0.00655103  0.01513395  0.62727533  1
  O  O341  1  -0.00014426  0.50952193  0.11471298  1
  O  O342  1  0.00828116  0.50823761  0.61961630  1
  O  O343  1  0.50890501  -0.00844658  0.12016502  1
  O  O344  1  0.50588944  0.00791905  0.62078028  1
  O  O345  1  0.51589907  0.51462861  0.12796093  1
  O  O346  1  0.52049065  0.49294472  0.63088907  1
  O  O347  1  0.24153609  0.38281994  0.25871957  1
  O  O348  1  0.24521380  0.36588313  0.74142081  1
  O  O349  1  0.24978884  0.87969915  0.24314810  1
  O  O350  1  0.24900229  0.86860054  0.73793696  1
  O  O351  1  0.75028032  0.37280876  0.23818455  1
  O  O352  1  0.76027773  0.38439631  0.73816338  1
  O  O353  1  0.75017259  0.86859270  0.23483673  1
  O  O354  1  0.73852327  0.87996812  0.75688688  1
  O  O355  1  0.25590352  0.11799754  0.25764935  1
  O  O356  1  0.25814150  0.12356186  0.75715007  1
  O  O357  1  0.24986713  0.61961584  0.25823792  1
  O  O358  1  0.25525017  0.63841922  0.76263360  1
  O  O359  1  0.75874478  0.13080891  0.26370202  1
  O  O360  1  0.75129226  0.11445317  0.76243403  1
  O  O361  1  0.76123952  0.63323331  0.26066657  1
  O  O362  1  0.76103125  0.62158178  0.75066464  1
  O  O363  1  0.36336919  0.12807328  0.37729519  1
  O  O364  1  0.36624457  0.11628945  0.87218844  1
  O  O365  1  0.36197345  0.61697281  0.37416210  1
  O  O366  1  0.36244701  0.62763197  0.86361541  1
  O  O367  1  0.86697507  0.12185429  0.37104326  1
  O  O368  1  0.87190388  0.11643155  0.87381070  1
  O  O369  1  0.87181349  0.62145945  0.36388112  1
  O  O370  1  0.87856009  0.62258174  0.86094867  1
  O  O371  1  0.11038775  0.38686977  0.14683276  1
  O  O372  1  0.13053168  0.38136619  0.63067952  1
  O  O373  1  0.13431425  0.87272502  0.13238608  1
  O  O374  1  0.13164087  0.88523205  0.62325378  1
  O  O375  1  0.62952945  0.39209544  0.12261247  1
  O  O376  1  0.63608663  0.37929607  0.62153804  1
  O  O377  1  0.63583463  0.88626483  0.12000720  1
  O  O378  1  0.62068901  0.88774371  0.63391285  1
  O  O379  1  0.11988894  0.25601203  0.26014316  1
  O  O380  1  0.11488086  0.25435093  0.75766483  1
  O  O381  1  0.13380754  0.76541046  0.25214744  1
  O  O382  1  0.11184557  0.75481826  0.75087173  1
  O  O383  1  0.61636033  0.26024763  0.26134163  1
  O  O384  1  0.61211902  0.23619900  0.75195340  1
  O  O385  1  0.60620436  0.75491228  0.23862893  1
  O  O386  1  0.61963863  0.75762392  0.75019296  1
  O  O387  1  0.37415074  0.23407101  0.24954659  1
  O  O388  1  0.38235772  0.23407882  0.74970487  1
  O  O389  1  0.38818189  0.74428663  0.24326987  1
  O  O390  1  0.38197278  0.74963054  0.74086669  1
  O  O391  1  0.88472169  0.23800631  0.25001065  1
  O  O392  1  0.88408013  0.25065244  0.74474177  1
  O  O393  1  0.87810778  0.74124058  0.25144394  1
  O  O394  1  0.88789539  0.74408075  0.75230006  1
  O  O395  1  0.37180898  0.49417175  0.49389641  1
  O  O396  1  0.39834487  0.50017226  0.98640765  1
  O  O397  1  0.38507785  0.99201518  0.50706229  1
  O  O398  1  0.37124883  0.98825580  0.98730665  1
  O  O399  1  0.88054473  0.49660145  0.49367178  1
  O  O400  1  0.88280838  0.49064611  1.00119107  1
  O  O401  1  0.86926775  0.98068327  0.50271358  1
  O  O402  1  0.88714487  0.98833147  0.99637435  1
  O  O403  1  0.11238250  0.00522635  -0.00446780  1
  O  O404  1  0.12822941  0.01286813  0.51015947  1
  O  O405  1  0.11890023  0.51016093  0.00163460  1
  O  O406  1  0.11735148  0.50604300  0.50587003  1
  O  O407  1  0.62480377  0.00976640  0.00633873  1
  O  O408  1  0.61924985  0.00373057  0.50941553  1
  O  O409  1  0.63160623  0.51315742  0.00761396  1
  O  O410  1  0.62684058  0.50465911  0.51578518  1
  O  O411  1  0.39543829  0.37450539  0.09759697  1
  O  O412  1  0.36769459  0.37211389  0.62582404  1
  O  O413  1  0.36813304  0.87834506  0.11229010  1
  O  O414  1  0.36728769  0.87039744  0.61883707  1
  O  O415  1  0.86808132  0.37253034  0.12168386  1
  O  O416  1  0.86944419  0.37025183  0.61752621  1
  O  O417  1  0.86490883  0.87865154  0.11835439  1
  O  O418  1  0.88309122  0.87235521  0.61681422  1
  O  O419  1  0.13087406  0.12748498  0.38288996  1
  O  O420  1  0.12938062  0.12585542  0.87900656  1
  O  O421  1  0.13408330  0.62527795  0.37945243  1
  O  O422  1  0.13393974  0.62795429  0.88088044  1
  O  O423  1  0.63481245  0.12379665  0.37831594  1
  O  O424  1  0.63365530  0.11610628  0.88751344  1
  O  O425  1  0.63939140  0.61948266  0.37430085  1
  O  O426  1  0.62866100  0.62896030  0.88275887  1
