# generated using pymatgen
data_V85Zn86O256
_symmetry_space_group_name_H-M   'P 1'
_cell_length_a   16.94637407
_cell_length_b   16.93568328
_cell_length_c   16.92378891
_cell_angle_alpha   90.01103097
_cell_angle_beta   90.02063827
_cell_angle_gamma   90.01356921
_symmetry_Int_Tables_number   1
_chemical_formula_structural   V85Zn86O256
_chemical_formula_sum   'V85 Zn86 O256'
_cell_volume   4857.10020232
_cell_formula_units_Z   1
loop_
 _symmetry_equiv_pos_site_id
 _symmetry_equiv_pos_as_xyz
  1  'x, y, z'
loop_
 _atom_site_type_symbol
 _atom_site_label
 _atom_site_symmetry_multiplicity
 _atom_site_fract_x
 _atom_site_fract_y
 _atom_site_fract_z
 _atom_site_occupancy
  V  V0  1  0.49370636  0.37951830  0.37112323  1
  V  V1  1  0.50284267  0.62606236  0.12007608  1
  V  V2  1  0.24903101  -0.00105669  0.25410176  1
  V  V3  1  0.62639092  0.50321366  0.62931720  1
  V  V4  1  0.37332399  -0.00834472  0.88818960  1
  V  V5  1  -0.00221894  0.63548783  0.63344997  1
  V  V6  1  0.75027546  0.12670147  0.87494823  1
  V  V7  1  0.49933960  0.50303987  -0.00016016  1
  V  V8  1  0.86171365  0.50466709  0.86347467  1
  V  V9  1  0.62380033  0.87763793  0.75208673  1
  V  V10  1  0.37787594  0.36643109  0.50267319  1
  V  V11  1  0.38144586  0.87350390  0.48957986  1
  V  V12  1  0.87551825  -0.00285352  0.37562066  1
  V  V13  1  0.75044207  0.37973218  0.62700458  1
  V  V14  1  0.25620380  0.36679331  0.62599814  1
  V  V15  1  0.12487299  0.37431942  0.74964001  1
  V  V16  1  0.75118671  0.87187798  0.12306892  1
  V  V17  1  -0.00247633  0.37633301  0.87500570  1
  V  V18  1  0.12748181  -0.00341821  0.62543043  1
  V  V19  1  0.87691002  0.86817698  0.50646148  1
  V  V20  1  0.37392673  0.62208604  0.25628326  1
  V  V21  1  0.75096476  0.25430349  0.49817596  1
  V  V22  1  0.25168989  0.87239110  0.11913906  1
  V  V23  1  0.87373999  0.12621490  0.74930618  1
  V  V24  1  0.37347917  0.49944923  0.87997043  1
  V  V25  1  0.37578915  0.75142781  0.11655752  1
  V  V26  1  0.12030355  0.74645826  0.87100429  1
  V  V27  1  0.87138716  0.25428860  0.12804978  1
  V  V28  1  0.12143605  0.00066787  0.12555041  1
  V  V29  1  0.26013958  0.37548916  0.10771710  1
  V  V30  1  0.74589349  0.12306161  0.38003735  1
  V  V31  1  -0.00136074  0.25159489  0.74957176  1
  V  V32  1  0.87523332  0.25644081  0.61863012  1
  V  V33  1  0.75432557  0.74299329  0.49887959  1
  V  V34  1  0.62633320  0.62234960  0.49531277  1
  V  V35  1  0.07958143  0.44625138  0.17388831  1
  V  V36  1  -0.00114947  0.12383509  0.62465290  1
  V  V37  1  0.11971452  0.13002046  -0.00481660  1
  V  V38  1  0.87483065  -0.00137136  0.87611285  1
  V  V39  1  0.49845646  0.25039493  0.24098865  1
  V  V40  1  0.00051261  0.86951368  0.37375119  1
  V  V41  1  0.50788231  0.00272852  0.49408350  1
  V  V42  1  0.87789637  0.12685409  0.25137749  1
  V  V43  1  0.12420790  0.87207706  0.74934707  1
  V  V44  1  0.12327562  0.62406164  0.01063339  1
  V  V45  1  0.00111479  -0.00403792  0.50153974  1
  V  V46  1  0.63155680  0.50098268  0.11903854  1
  V  V47  1  0.00141938  0.50638862  -0.00068330  1
  V  V48  1  0.86599634  0.37981307  0.00436170  1
  V  V49  1  0.49697013  0.75378202  0.25551692  1
  V  V50  1  0.74165664  0.52010679  0.26029957  1
  V  V51  1  0.50068376  0.87899970  0.89082019  1
  V  V52  1  0.75086974  0.87104406  0.62576779  1
  V  V53  1  0.25175935  0.50118041  0.74710122  1
  V  V54  1  0.89302816  0.63052135  0.25824536  1
  V  V55  1  0.11969774  0.86829774  0.24822163  1
  V  V56  1  0.25750644  0.48822171  0.25244984  1
  V  V57  1  0.50195715  0.13060867  0.62517302  1
  V  V58  1  0.25313152  0.00665223  0.75354894  1
  V  V59  1  0.62866803  0.25438688  0.87034263  1
  V  V60  1  0.62986924  0.37721463  0.24335302  1
  V  V61  1  0.74760336  0.73320408  0.00011835  1
  V  V62  1  0.29881603  0.18167624  0.93581486  1
  V  V63  1  0.25790009  0.74477904  0.50515811  1
  V  V64  1  0.62392552  0.11855836  0.00298380  1
  V  V65  1  -0.00874007  0.48819296  0.49896466  1
  V  V66  1  -0.00037543  0.12932285  0.13048645  1
  V  V67  1  0.12947077  0.12422314  0.49737255  1
  V  V68  1  0.49948464  0.37851785  0.87613126  1
  V  V69  1  0.74977296  -0.00110907  0.24856635  1
  V  V70  1  0.12478451  0.74595310  0.37321458  1
  V  V71  1  0.62709050  0.73974922  0.87999809  1
  V  V72  1  -0.00213303  0.87014003  0.87071693  1
  V  V73  1  0.26373138  0.87132637  0.62740057  1
  V  V74  1  0.62115486  0.24735886  0.37769999  1
  V  V75  1  0.12576565  0.26201478  0.36898554  1
  V  V76  1  0.12324342  0.62123828  0.50306906  1
  V  V77  1  0.24936142  0.62576474  0.87689101  1
  V  V78  1  0.62212318  0.87551471  0.25474270  1
  V  V79  1  0.86306762  0.63762710  0.74777700  1
  V  V80  1  0.37388945  0.12633506  0.24982854  1
  V  V81  1  0.49220918  0.50168258  0.49735175  1
  V  V82  1  0.62673670  0.74775185  0.37531297  1
  V  V83  1  0.49260660  0.75416157  0.74457589  1
  V  V84  1  0.88742195  0.74362104  0.12575006  1
  Zn  Zn85  1  0.25606559  0.24495311  0.50229008  1
  Zn  Zn86  1  0.74711015  0.25584932  0.00593352  1
  Zn  Zn87  1  -0.02881388  0.30786149  0.30334025  1
  Zn  Zn88  1  0.62760748  0.00312674  0.62061300  1
  Zn  Zn89  1  0.61784462  -0.00841111  0.11863334  1
  Zn  Zn90  1  0.25360062  0.61690292  0.37765781  1
  Zn  Zn91  1  0.38124840  -0.00352863  0.37101715  1
  Zn  Zn92  1  0.74919662  0.00025472  0.74683411  1
  Zn  Zn93  1  0.12743086  0.24705482  0.87613056  1
  Zn  Zn94  1  0.87498194  0.87117689  -0.00058859  1
  Zn  Zn95  1  0.49328932  0.11535404  0.11903619  1
  Zn  Zn96  1  0.87212004  0.48991548  0.37885227  1
  Zn  Zn97  1  0.62808989  0.38282231  0.75124076  1
  Zn  Zn98  1  0.37067285  0.25041885  0.11465276  1
  Zn  Zn99  1  0.37285085  0.13005957  0.74405053  1
  Zn  Zn100  1  -0.00197201  -0.00103499  0.00028869  1
  Zn  Zn101  1  0.49356506  0.25881955  0.74106225  1
  Zn  Zn102  1  0.12233141  0.49777857  0.62500441  1
  Zn  Zn103  1  0.25121553  0.12556804  0.37663990  1
  Zn  Zn104  1  0.49339089  0.63116083  0.62080841  1
  Zn  Zn105  1  0.37168989  0.63156279  0.74353200  1
  Zn  Zn106  1  0.25188240  0.75190494  -0.00260526  1
  Zn  Zn107  1  0.18783290  0.19346421  0.18617971  1
  Zn  Zn108  1  0.18570021  0.18819894  0.68691615  1
  Zn  Zn109  1  0.18980498  0.68435523  0.18994284  1
  Zn  Zn110  1  0.18678998  0.68738474  0.68737893  1
  Zn  Zn111  1  0.68916740  0.18738266  0.18949809  1
  Zn  Zn112  1  0.68222052  0.18667813  0.68586379  1
  Zn  Zn113  1  0.68459158  0.68936204  0.18307988  1
  Zn  Zn114  1  0.68216911  0.69148179  0.68439487  1
  Zn  Zn115  1  0.31147586  0.31000486  0.31484075  1
  Zn  Zn116  1  0.32025731  0.31774687  0.80769107  1
  Zn  Zn117  1  0.30773108  0.80860489  0.31125540  1
  Zn  Zn118  1  0.31093040  0.81730593  0.81702525  1
  Zn  Zn119  1  0.80163801  0.31402382  0.30841534  1
  Zn  Zn120  1  0.81235435  0.31557664  0.80994649  1
  Zn  Zn121  1  0.81174905  0.80693489  0.31288869  1
  Zn  Zn122  1  0.80912937  0.80921108  0.81305588  1
  Zn  Zn123  1  0.18988986  0.43744754  0.43866100  1
  Zn  Zn124  1  0.18343270  0.43859775  0.93615975  1
  Zn  Zn125  1  0.19059447  0.93340630  0.43839612  1
  Zn  Zn126  1  0.18455933  0.94073510  0.93783988  1
  Zn  Zn127  1  0.68417753  0.43542831  0.43699364  1
  Zn  Zn128  1  0.68573431  0.44302597  0.93871235  1
  Zn  Zn129  1  0.68852661  0.93269487  0.43589611  1
  Zn  Zn130  1  0.69144263  0.93429246  0.93618231  1
  Zn  Zn131  1  0.31243919  0.05748228  0.07173938  1
  Zn  Zn132  1  0.31862865  0.05842660  0.56320329  1
  Zn  Zn133  1  0.31127480  0.56079680  0.06645644  1
  Zn  Zn134  1  0.31599881  0.55935312  0.56625137  1
  Zn  Zn135  1  0.81017094  0.06255071  0.06144112  1
  Zn  Zn136  1  0.81103197  0.06180452  0.56091731  1
  Zn  Zn137  1  0.81667768  0.56197899  0.06821666  1
  Zn  Zn138  1  0.81570298  0.56352431  0.56505281  1
  Zn  Zn139  1  0.43543926  0.43627916  0.18283780  1
  Zn  Zn140  1  0.43841289  0.44174557  0.68673646  1
  Zn  Zn141  1  0.43766811  0.93698156  0.18345635  1
  Zn  Zn142  1  0.43976914  0.94513722  0.68832239  1
  Zn  Zn143  1  0.90508898  0.42752786  0.21027921  1
  Zn  Zn144  1  0.93719044  0.44161888  0.68346868  1
  Zn  Zn145  1  0.93747927  0.93549829  0.18681849  1
  Zn  Zn146  1  0.93652165  0.93483904  0.69005404  1
  Zn  Zn147  1  0.06300664  0.06145963  0.31366652  1
  Zn  Zn148  1  0.06167157  0.06014856  0.81206358  1
  Zn  Zn149  1  0.06430766  0.55885761  0.32022800  1
  Zn  Zn150  1  0.06138681  0.56190551  0.81323207  1
  Zn  Zn151  1  0.56138814  0.06248759  0.30881188  1
  Zn  Zn152  1  0.55976134  0.06121737  0.81161524  1
  Zn  Zn153  1  0.55976692  0.56500946  0.31309710  1
  Zn  Zn154  1  0.56137011  0.56684521  0.80959517  1
  Zn  Zn155  1  0.44033487  0.18341905  0.43520654  1
  Zn  Zn156  1  0.45717307  0.18256922  0.92641230  1
  Zn  Zn157  1  0.43873667  0.68839186  0.43677259  1
  Zn  Zn158  1  0.43968478  0.68642877  0.93378613  1
  Zn  Zn159  1  0.93859759  0.18482777  0.44060132  1
  Zn  Zn160  1  0.93602901  0.18985655  0.94202499  1
  Zn  Zn161  1  0.94094836  0.68363977  0.43938449  1
  Zn  Zn162  1  0.93477892  0.68575534  0.93490470  1
  Zn  Zn163  1  0.05545913  0.30886006  0.05812828  1
  Zn  Zn164  1  0.06814646  0.31041263  0.56096741  1
  Zn  Zn165  1  0.06340995  0.81277498  0.05515615  1
  Zn  Zn166  1  0.06771047  0.80881355  0.56299205  1
  Zn  Zn167  1  0.56210242  0.31383843  0.05744818  1
  Zn  Zn168  1  0.56604466  0.31384662  0.55982464  1
  Zn  Zn169  1  0.56523830  0.80940539  0.06442616  1
  Zn  Zn170  1  0.56416052  0.81729823  0.56142829  1
  O  O171  1  0.11688351  0.12306298  0.12117931  1
  O  O172  1  0.11980877  0.11892619  0.61525142  1
  O  O173  1  0.12755812  0.63230386  0.11011099  1
  O  O174  1  0.11562528  0.62221282  0.62082156  1
  O  O175  1  0.63135678  0.12719032  0.10900285  1
  O  O176  1  0.61255389  0.11871850  0.62586906  1
  O  O177  1  0.61011304  0.61768134  0.13085543  1
  O  O178  1  0.62000453  0.62150179  0.61249454  1
  O  O179  1  0.38814831  0.37157183  0.37991430  1
  O  O180  1  0.38329637  0.39158228  0.87406229  1
  O  O181  1  0.36983620  0.87365145  0.38564368  1
  O  O182  1  0.38337919  0.88408755  0.87809066  1
  O  O183  1  0.88762035  0.38505467  0.32577608  1
  O  O184  1  0.87832761  0.38678148  0.87901162  1
  O  O185  1  0.87986796  0.87641569  0.38282358  1
  O  O186  1  0.88012216  0.88129001  0.87341540  1
  O  O187  1  0.24983417  -0.00132108  0.36257091  1
  O  O188  1  0.26151414  -0.01048500  0.86648672  1
  O  O189  1  0.24480873  0.49922040  0.35747286  1
  O  O190  1  0.25684224  0.50430161  0.87003652  1
  O  O191  1  0.75407076  0.00639570  0.37176373  1
  O  O192  1  0.75796144  0.00737911  0.87145520  1
  O  O193  1  0.75213558  0.49380300  0.36487067  1
  O  O194  1  0.76349192  0.50072509  0.87572583  1
  O  O195  1  0.25180776  0.48591231  0.13428336  1
  O  O196  1  0.24670314  0.49045145  0.63353939  1
  O  O197  1  0.24296854  0.99130506  0.13656441  1
  O  O198  1  0.24645562  0.99022687  0.63137226  1
  O  O199  1  0.73510230  0.50856948  0.13319989  1
  O  O200  1  0.74122537  0.49013476  0.61335911  1
  O  O201  1  0.74851723  0.99010370  0.13098301  1
  O  O202  1  0.74855190  0.98818122  0.62433969  1
  O  O203  1  0.01790231  0.38839755  0.23107988  1
  O  O204  1  0.00309714  0.37273658  0.75524649  1
  O  O205  1  0.01266087  0.87776879  0.25564129  1
  O  O206  1  0.00731358  0.87870396  0.76154946  1
  O  O207  1  0.50378958  0.36979434  0.25404574  1
  O  O208  1  0.50478204  0.38017490  0.76134558  1
  O  O209  1  0.50703172  0.86133366  0.24623994  1
  O  O210  1  0.50618349  0.86930453  0.75718058  1
  O  O211  1  0.49274409  0.13446549  0.24702302  1
  O  O212  1  0.49957959  0.12440211  0.73652403  1
  O  O213  1  0.49350521  0.63406520  0.24441275  1
  O  O214  1  0.49952978  0.64471741  0.75062387  1
  O  O215  1  0.99421243  0.11773824  0.23908314  1
  O  O216  1  0.99469702  0.13081934  0.74359755  1
  O  O217  1  0.99118068  0.62087774  0.25197800  1
  O  O218  1  0.99585525  0.61890304  0.73714160  1
  O  O219  1  0.36759550  0.23345770  -0.00923945  1
  O  O220  1  0.37715030  0.26194294  0.49457220  1
  O  O221  1  0.37422567  0.74408881  0.01280827  1
  O  O222  1  0.36536073  0.75496988  0.49651799  1
  O  O223  1  0.87269777  0.26211264  0.00747408  1
  O  O224  1  0.86585122  0.24609980  0.50738672  1
  O  O225  1  0.86785460  0.74858966  0.00966001  1
  O  O226  1  0.86632390  0.75605532  0.49328400  1
  O  O227  1  0.12985784  0.23882738  0.49431155  1
  O  O228  1  0.11985268  0.23654725  0.99712517  1
  O  O229  1  0.13569117  0.73867985  0.49632442  1
  O  O230  1  0.12708310  0.74246215  0.98791681  1
  O  O231  1  0.63134827  0.25215603  0.48439093  1
  O  O232  1  0.62894671  0.24332134  0.98882667  1
  O  O233  1  0.62888681  0.74467321  0.49326175  1
  O  O234  1  0.63096890  0.75054055  0.98869918  1
  O  O235  1  0.49710353  0.24935139  0.13236195  1
  O  O236  1  0.50821176  0.23632003  0.62159590  1
  O  O237  1  0.49474646  0.74380254  0.13176459  1
  O  O238  1  0.50710521  0.75483715  0.64183644  1
  O  O239  1  0.98778329  0.23984297  0.12260681  1
  O  O240  1  0.99216636  0.24525890  0.62668342  1
  O  O241  1  0.98531705  0.75538018  0.11954633  1
  O  O242  1  1.00271038  0.73460453  0.62214592  1
  O  O243  1  0.01652055  0.24473678  0.38273868  1
  O  O244  1  -0.00651119  0.26386724  0.87014191  1
  O  O245  1  0.01626004  0.75501925  0.38424064  1
  O  O246  1  0.00728317  0.75762113  0.87847798  1
  O  O247  1  0.50658483  0.25406680  0.36419785  1
  O  O248  1  0.51157004  0.26358094  0.87296617  1
  O  O249  1  0.51264373  0.74660080  0.36746298  1
  O  O250  1  0.51003187  0.75842483  0.87046109  1
  O  O251  1  0.24385847  0.12249536  0.50097274  1
  O  O252  1  0.24193371  0.12547014  1.00169003  1
  O  O253  1  0.24423848  0.62833971  0.50075861  1
  O  O254  1  0.24246853  0.62358381  0.99279473  1
  O  O255  1  0.75312644  0.13337323  0.48684881  1
  O  O256  1  0.74491100  0.12969947  0.98820201  1
  O  O257  1  0.74408140  0.63591717  0.50605935  1
  O  O258  1  0.75206192  0.63382130  1.00475678  1
  O  O259  1  0.25095021  0.38151872  0.00878595  1
  O  O260  1  0.26096902  0.37645773  0.50818779  1
  O  O261  1  0.24108931  0.87344586  0.01562569  1
  O  O262  1  0.25789760  0.86624649  0.50750563  1
  O  O263  1  0.76215378  0.37767243  -0.00199471  1
  O  O264  1  0.74579388  0.36127155  0.50601597  1
  O  O265  1  0.75114682  0.86832387  0.01264696  1
  O  O266  1  0.75809664  0.86668245  0.50468653  1
  O  O267  1  0.13439416  0.50516448  0.24153678  1
  O  O268  1  0.13647402  0.49320900  0.75246723  1
  O  O269  1  0.13073351  0.99214724  0.24530649  1
  O  O270  1  0.13224941  0.99253362  0.74571597  1
  O  O271  1  0.62662303  0.49672363  0.24439983  1
  O  O272  1  0.62232388  0.50554768  0.73374292  1
  O  O273  1  0.63228328  0.99028495  0.25053609  1
  O  O274  1  0.62731541  0.98708395  0.75208102  1
  O  O275  1  0.36645132  0.00558301  0.25104726  1
  O  O276  1  0.36778842  0.00420461  0.76076219  1
  O  O277  1  0.36538252  0.50570485  0.24620373  1
  O  O278  1  0.36335782  0.50105313  0.75741059  1
  O  O279  1  0.86876660  0.00320168  0.25660399  1
  O  O280  1  0.87337409  0.00739371  0.75945341  1
  O  O281  1  0.85869561  0.52465556  0.24316798  1
  O  O282  1  0.87530447  0.50488129  0.76006099  1
  O  O283  1  0.12647237  0.36161195  0.37841778  1
  O  O284  1  0.11423591  0.37203345  0.86921645  1
  O  O285  1  0.12222837  0.86662873  0.36891091  1
  O  O286  1  0.11788335  0.86834352  0.87103791  1
  O  O287  1  0.61446185  0.36711422  0.36567184  1
  O  O288  1  0.62215178  0.37114035  0.87261274  1
  O  O289  1  0.62866856  0.86648651  0.36153524  1
  O  O290  1  0.61858555  0.87136587  0.86995758  1
  O  O291  1  0.37404068  0.13042971  0.13520987  1
  O  O292  1  0.39437317  0.11757287  0.62538006  1
  O  O293  1  0.38280755  0.63113343  0.13486140  1
  O  O294  1  0.38049000  0.62285373  0.63036251  1
  O  O295  1  0.88100805  0.12925326  0.12973979  1
  O  O296  1  0.87813891  0.13311768  0.62869863  1
  O  O297  1  0.87436555  0.63851906  0.13472157  1
  O  O298  1  0.88612115  0.62207812  0.63758141  1
  O  O299  1  0.25068076  0.27032698  0.12830427  1
  O  O300  1  0.24750062  0.26250930  0.62338233  1
  O  O301  1  0.25864443  0.75573822  0.12529940  1
  O  O302  1  0.24523078  0.75857829  0.61665455  1
  O  O303  1  0.76567999  0.24482089  0.12531965  1
  O  O304  1  0.75466566  0.25259695  0.61550392  1
  O  O305  1  0.75517013  0.75490191  0.11815685  1
  O  O306  1  0.74389042  0.76297425  0.61402571  1
  O  O307  1  0.23979299  0.24600735  0.38045030  1
  O  O308  1  0.24881187  0.24858412  0.87699537  1
  O  O309  1  0.24026611  0.74612356  0.38489698  1
  O  O310  1  0.24398171  0.74388361  0.87749829  1
  O  O311  1  0.74347756  0.24492862  0.37913761  1
  O  O312  1  0.74616495  0.24406957  0.87573413  1
  O  O313  1  0.73672093  0.75396744  0.38432331  1
  O  O314  1  0.73588450  0.75682484  0.88527364  1
  O  O315  1  0.00338217  0.12195027  0.01071658  1
  O  O316  1  0.00671657  0.11517317  0.50714723  1
  O  O317  1  0.00483737  0.61400559  -0.00548223  1
  O  O318  1  0.00672494  0.61950333  0.51155018  1
  O  O319  1  0.51910194  0.12526598  0.00105987  1
  O  O320  1  0.49781730  0.11131091  0.50677232  1
  O  O321  1  0.49774435  0.61988324  0.00978752  1
  O  O322  1  0.50663382  0.61767320  0.49849466  1
  O  O323  1  0.49635372  0.38049740  0.49216748  1
  O  O324  1  0.50348074  0.38532047  0.98551623  1
  O  O325  1  0.49073742  0.88507046  0.50483543  1
  O  O326  1  0.50638782  0.87362183  0.99030196  1
  O  O327  1  1.00431640  0.38982531  0.50744049  1
  O  O328  1  0.99055635  0.38424745  0.99175273  1
  O  O329  1  0.99408627  0.87580640  0.49771765  1
  O  O330  1  0.99685766  0.87874794  0.98617974  1
  O  O331  1  0.50637473  0.49037793  0.38306283  1
  O  O332  1  0.49534545  0.50053455  0.88020513  1
  O  O333  1  0.49983871  1.00478204  0.38822496  1
  O  O334  1  0.48451699  0.99359305  0.87255556  1
  O  O335  1  0.99718479  0.50365205  0.39390608  1
  O  O336  1  0.99137700  0.49143006  0.88015971  1
  O  O337  1  0.99618765  0.99052592  0.38243873  1
  O  O338  1  0.99019582  0.99318633  0.87572823  1
  O  O339  1  0.00459160  0.00618074  0.12258619  1
  O  O340  1  0.00576878  0.00301693  0.62126732  1
  O  O341  1  0.01056987  0.49529445  0.11630006  1
  O  O342  1  0.00180661  0.50840833  0.61423974  1
  O  O343  1  0.50636180  0.00332736  0.12908054  1
  O  O344  1  0.50482151  0.00572084  0.61349487  1
  O  O345  1  0.50391176  0.50713756  0.11773433  1
  O  O346  1  0.50948827  0.50057184  0.61378247  1
  O  O347  1  0.25537866  0.38574783  0.24461138  1
  O  O348  1  0.24630882  0.38179346  0.74485071  1
  O  O349  1  0.23915440  0.87922139  0.24345656  1
  O  O350  1  0.24586954  0.88145478  0.74290095  1
  O  O351  1  0.73248428  0.38488745  0.24668927  1
  O  O352  1  0.74695502  0.37006661  0.73233425  1
  O  O353  1  0.74432697  0.87592069  0.24160440  1
  O  O354  1  0.74369176  0.87401964  0.74188087  1
  O  O355  1  0.25536618  0.11611336  0.24889982  1
  O  O356  1  0.24851086  0.11017285  0.74325388  1
  O  O357  1  0.25906228  0.61302795  0.24858128  1
  O  O358  1  0.24856508  0.61738242  0.75762081  1
  O  O359  1  0.75684899  0.12067390  0.26043191  1
  O  O360  1  0.75386277  0.12528041  0.75999494  1
  O  O361  1  0.74412739  0.62212499  0.25419443  1
  O  O362  1  0.76356116  0.63113078  0.73992426  1
  O  O363  1  0.37218130  0.12248223  0.36218400  1
  O  O364  1  0.36524407  0.11897240  0.88087998  1
  O  O365  1  0.37376401  0.62912565  0.36093267  1
  O  O366  1  0.36864850  0.61674414  0.87011179  1
  O  O367  1  0.86985990  0.11773342  0.37103118  1
  O  O368  1  0.86873359  0.12039909  0.87198823  1
  O  O369  1  0.87793638  0.62677222  0.36079665  1
  O  O370  1  0.87972499  0.61386045  0.86043366  1
  O  O371  1  0.13215569  0.37818353  0.11689696  1
  O  O372  1  0.13341530  0.37641390  0.63299319  1
  O  O373  1  0.12783458  0.87672339  0.13202599  1
  O  O374  1  0.13294297  0.87882742  0.62979771  1
  O  O375  1  0.61468956  0.38757618  0.13160864  1
  O  O376  1  0.63219296  0.38453956  0.62431030  1
  O  O377  1  0.63383228  0.87044097  0.13657059  1
  O  O378  1  0.63335747  0.87772409  0.63390051  1
  O  O379  1  0.12514268  0.24319200  0.26929171  1
  O  O380  1  0.11629550  0.25493670  0.75321526  1
  O  O381  1  0.13153345  0.75629127  0.26009335  1
  O  O382  1  0.12981235  0.75621649  0.76277210  1
  O  O383  1  0.61868210  0.25795890  0.25307717  1
  O  O384  1  0.62205754  0.25244737  0.76183667  1
  O  O385  1  0.61778204  0.75382432  0.25651168  1
  O  O386  1  0.61932134  0.76008557  0.76050494  1
  O  O387  1  0.38277819  0.24344656  0.24894210  1
  O  O388  1  0.38244685  0.24182488  0.75936361  1
  O  O389  1  0.38109357  0.74382989  0.24417990  1
  O  O390  1  0.39009797  0.75526795  0.75779465  1
  O  O391  1  0.87972545  0.24435010  0.24560303  1
  O  O392  1  0.87985017  0.24482982  0.74165866  1
  O  O393  1  0.87321165  0.73937587  0.24040845  1
  O  O394  1  0.87727109  0.73631854  0.75666056  1
  O  O395  1  0.38759583  0.49034001  0.49982670  1
  O  O396  1  0.38773460  0.50742383  0.99337987  1
  O  O397  1  0.38431696  0.98992360  0.49426471  1
  O  O398  1  0.36634975  1.00189327  0.98727727  1
  O  O399  1  0.88565202  0.50018750  0.49790696  1
  O  O400  1  0.88116844  0.49827541  0.99343111  1
  O  O401  1  0.88020075  0.99045619  0.49448934  1
  O  O402  1  0.87346064  0.99736473  0.98739759  1
  O  O403  1  0.12385142  0.01097896  0.00823753  1
  O  O404  1  0.12168616  0.00209179  0.50600098  1
  O  O405  1  0.11350086  0.51101605  -0.00863090  1
  O  O406  1  0.12032137  0.51042048  0.50072695  1
  O  O407  1  0.63564216  0.01541768  -0.00111195  1
  O  O408  1  0.61126616  -0.00963526  0.49824234  1
  O  O409  1  0.61363821  0.50009195  0.00742124  1
  O  O410  1  0.61811948  0.50693289  0.50444388  1
  O  O411  1  0.36574800  0.37091506  0.11819638  1
  O  O412  1  0.36886853  0.37962772  0.61632173  1
  O  O413  1  0.36365200  0.86365524  0.13309229  1
  O  O414  1  0.36627796  0.88012221  0.61847111  1
  O  O415  1  0.87912122  0.36778848  0.11702281  1
  O  O416  1  0.86865834  0.36331840  0.62810255  1
  O  O417  1  0.86784133  0.86251261  0.12689189  1
  O  O418  1  0.86998511  0.87681412  0.61398856  1
  O  O419  1  0.12666840  0.12197923  0.38895154  1
  O  O420  1  0.11816776  0.12566758  0.88660732  1
  O  O421  1  0.12855846  0.63051343  0.38463302  1
  O  O422  1  0.12929312  0.63158318  0.87901019  1
  O  O423  1  0.63458698  0.13518132  0.36491740  1
  O  O424  1  0.63107199  0.13083181  0.88082523  1
  O  O425  1  0.62372601  0.63079441  0.38709226  1
  O  O426  1  0.62387428  0.64124856  0.87175584  1
