# generated using pymatgen
data_V85Zn86O256
_symmetry_space_group_name_H-M   'P 1'
_cell_length_a   16.93815207
_cell_length_b   16.93449819
_cell_length_c   16.93395340
_cell_angle_alpha   90.01765892
_cell_angle_beta   89.94962481
_cell_angle_gamma   89.98996404
_symmetry_Int_Tables_number   1
_chemical_formula_structural   V85Zn86O256
_chemical_formula_sum   'V85 Zn86 O256'
_cell_volume   4857.31786275
_cell_formula_units_Z   1
loop_
 _symmetry_equiv_pos_site_id
 _symmetry_equiv_pos_as_xyz
  1  'x, y, z'
loop_
 _atom_site_type_symbol
 _atom_site_label
 _atom_site_symmetry_multiplicity
 _atom_site_fract_x
 _atom_site_fract_y
 _atom_site_fract_z
 _atom_site_occupancy
  V  V0  1  0.74877923  0.38068511  0.12910296  1
  V  V1  1  0.13841468  0.38462225  0.25445174  1
  V  V2  1  -0.00309076  0.74312932  0.75276811  1
  V  V3  1  0.29532546  -0.06040773  0.19034990  1
  V  V4  1  0.37131008  0.87717334  0.50913244  1
  V  V5  1  0.12618297  -0.00125249  0.12954364  1
  V  V6  1  0.74736453  0.61827919  0.37051588  1
  V  V7  1  0.87570260  0.87267580  0.50000858  1
  V  V8  1  0.25281038  0.24486294  0.49928308  1
  V  V9  1  0.49704494  0.74455785  0.23746410  1
  V  V10  1  0.37551081  0.38131921  0.00386574  1
  V  V11  1  0.74688600  0.50502005  0.75518505  1
  V  V12  1  0.63077171  0.87181877  0.24287446  1
  V  V13  1  0.37165472  0.12485392  0.24724098  1
  V  V14  1  0.75129838  -0.00356331  0.23886569  1
  V  V15  1  0.74938536  0.87241935  0.62513008  1
  V  V16  1  0.50371382  0.51701905  0.00356950  1
  V  V17  1  0.36892628  0.62836603  0.75183662  1
  V  V18  1  -0.00622570  0.13674083  0.62022953  1
  V  V19  1  0.25384705  0.37401158  0.62029412  1
  V  V20  1  0.50247376  0.00243134  0.49911799  1
  V  V21  1  0.87362543  0.61836605  0.24562620  1
  V  V22  1  0.87439688  0.25054555  0.12532715  1
  V  V23  1  0.00175042  0.24834391  0.25112050  1
  V  V24  1  0.50080869  0.87231167  0.37664726  1
  V  V25  1  0.37488798  0.25874849  0.12720986  1
  V  V26  1  0.37816771  0.25314251  0.61971731  1
  V  V27  1  0.62532708  0.74397793  0.87785419  1
  V  V28  1  0.62549062  0.25556107  0.87205030  1
  V  V29  1  0.01464921  0.60935829  0.11678024  1
  V  V30  1  0.00002431  0.87658027  0.87571984  1
  V  V31  1  0.50152503  0.87899628  0.88758331  1
  V  V32  1  0.25021459  -0.00298450  0.74720413  1
  V  V33  1  -0.00199841  0.37568961  0.37701745  1
  V  V34  1  0.62358443  0.74799198  0.37489606  1
  V  V35  1  0.75602696  0.37100824  0.63036431  1
  V  V36  1  0.62912370  0.00390105  0.61851969  1
  V  V37  1  0.74935001  0.74741795  0.49925008  1
  V  V38  1  0.37406153  0.50649537  0.87602114  1
  V  V39  1  0.25520305  0.74877072  0.01783007  1
  V  V40  1  0.12207102  0.50182946  0.62329247  1
  V  V41  1  0.87569291  0.00028605  0.37254682  1
  V  V42  1  0.12569554  0.12433611  0.00311905  1
  V  V43  1  -0.00031880  0.74671440  0.24630056  1
  V  V44  1  0.87553965  0.14395380  0.74800079  1
  V  V45  1  0.37952845  -0.00057571  0.88096286  1
  V  V46  1  0.37257609  -0.00211646  0.37411212  1
  V  V47  1  0.62282662  0.49299781  0.63267611  1
  V  V48  1  0.75664715  -0.00064292  0.74790920  1
  V  V49  1  0.50006070  0.75411111  0.75193469  1
  V  V50  1  0.12525974  0.00457425  0.62609401  1
  V  V51  1  0.62725920  0.37693212  0.25279974  1
  V  V52  1  0.50659509  0.12809698  0.61994427  1
  V  V53  1  0.62328584  0.50936565  0.12423576  1
  V  V54  1  0.12488156  0.74873285  0.37609312  1
  V  V55  1  0.88687456  0.38064412  -0.00533871  1
  V  V56  1  0.12715494  0.87283757  0.24542239  1
  V  V57  1  -0.00115393  -0.00175665  0.00179772  1
  V  V58  1  0.11203611  0.36493419  0.74874391  1
  V  V59  1  0.49473640  0.49695716  0.50191156  1
  V  V60  1  0.24716350  0.11815197  0.37484522  1
  V  V61  1  0.50657379  0.12402656  0.11806777  1
  V  V62  1  0.25165793  0.62039894  0.37505837  1
  V  V63  1  0.00496029  0.00092475  0.50066974  1
  V  V64  1  0.75091720  0.62313760  0.88148011  1
  V  V65  1  0.49884317  0.37288217  0.37951139  1
  V  V66  1  0.73881084  0.12215036  0.37895909  1
  V  V67  1  0.86891780  0.49625843  0.37422675  1
  V  V68  1  0.37760272  0.62231049  0.24239065  1
  V  V69  1  0.19432293  0.43511144  0.07979031  1
  V  V70  1  0.87312609  0.74042926  0.63031416  1
  V  V71  1  0.74701554  0.25060082  -0.00122842  1
  V  V72  1  0.50253214  0.37944938  0.87331966  1
  V  V73  1  0.89082983  0.50395414  0.87404308  1
  V  V74  1  0.24833285  0.25261626  0.00321461  1
  V  V75  1  0.49958239  0.62757244  0.62463045  1
  V  V76  1  0.12422168  0.24425130  0.38006082  1
  V  V77  1  0.50213233  0.25466441  0.74938819  1
  V  V78  1  0.24839240  0.75337689  0.50834958  1
  V  V79  1  0.12573295  0.87679462  0.74661091  1
  V  V80  1  0.25046015  0.12679825  0.87325189  1
  V  V81  1  0.13545150  0.73826888  0.88133524  1
  V  V82  1  0.37169568  0.49576609  0.37668103  1
  V  V83  1  0.74932466  0.75478141  0.00732961  1
  V  V84  1  0.25065518  0.49968024  0.74956822  1
  Zn  Zn85  1  -0.00243697  0.50266556  0.50005701  1
  Zn  Zn86  1  -0.00142291  0.12317553  0.12774004  1
  Zn  Zn87  1  0.00034805  0.87388799  0.37474269  1
  Zn  Zn88  1  0.11022140  0.26024059  0.88017101  1
  Zn  Zn89  1  0.37626123  0.12529934  0.74900442  1
  Zn  Zn90  1  0.74788205  0.12326321  0.87275692  1
  Zn  Zn91  1  0.62588345  0.87646381  0.75039530  1
  Zn  Zn92  1  0.37027346  0.75614877  0.62906796  1
  Zn  Zn93  1  0.86917494  0.87893549  0.00879100  1
  Zn  Zn94  1  0.87319002  0.12517929  0.24952579  1
  Zn  Zn95  1  0.36997063  0.87595038  0.01250024  1
  Zn  Zn96  1  0.50213523  0.24939696  0.25161314  1
  Zn  Zn97  1  0.87521466  0.74968249  0.12428418  1
  Zn  Zn98  1  0.87481119  0.36843360  0.50591707  1
  Zn  Zn99  1  0.62233476  0.24631621  0.38179905  1
  Zn  Zn100  1  -0.00567261  0.62230725  0.62394460  1
  Zn  Zn101  1  0.74933666  0.24232200  0.50816923  1
  Zn  Zn102  1  0.12260517  0.62398365  0.50065953  1
  Zn  Zn103  1  0.62368747  0.62378655  0.50010203  1
  Zn  Zn104  1  0.61924942  0.12001443  -0.00931798  1
  Zn  Zn105  1  0.62816150  -0.01024249  0.11037922  1
  Zn  Zn106  1  0.87443909  0.00079464  0.87455223  1
  Zn  Zn107  1  0.18888968  0.18883529  0.18927516  1
  Zn  Zn108  1  0.18543253  0.18289200  0.68476762  1
  Zn  Zn109  1  0.18946956  0.67916855  0.18989893  1
  Zn  Zn110  1  0.18484102  0.68829270  0.69088030  1
  Zn  Zn111  1  0.68888941  0.19038454  0.19365943  1
  Zn  Zn112  1  0.68438218  0.18792760  0.69036785  1
  Zn  Zn113  1  0.68784690  0.68601190  0.19013803  1
  Zn  Zn114  1  0.68667280  0.68250345  0.69221997  1
  Zn  Zn115  1  0.31527289  0.31072410  0.31569852  1
  Zn  Zn116  1  0.31274677  0.31462537  0.81206878  1
  Zn  Zn117  1  0.31637634  0.80336063  0.32071923  1
  Zn  Zn118  1  0.31218996  0.81802140  0.81502564  1
  Zn  Zn119  1  0.81082953  0.30985669  0.31336293  1
  Zn  Zn120  1  0.80974603  0.32207176  0.81275999  1
  Zn  Zn121  1  0.81328301  0.81034324  0.31090797  1
  Zn  Zn122  1  0.81418147  0.81320439  0.81520066  1
  Zn  Zn123  1  0.18771656  0.43482473  0.43974438  1
  Zn  Zn124  1  0.17804154  0.44807652  0.91712277  1
  Zn  Zn125  1  0.18603247  0.93508469  0.43831650  1
  Zn  Zn126  1  0.18882247  0.93342631  0.93759087  1
  Zn  Zn127  1  0.68366085  0.43771641  0.44404795  1
  Zn  Zn128  1  0.68790197  0.43705683  0.94297545  1
  Zn  Zn129  1  0.68857857  0.93673351  0.43459966  1
  Zn  Zn130  1  0.68587336  0.93671981  0.93383149  1
  Zn  Zn131  1  0.31892225  0.06942139  0.05725812  1
  Zn  Zn132  1  0.31340128  0.06564038  0.56345095  1
  Zn  Zn133  1  0.31152035  0.57583588  0.05629453  1
  Zn  Zn134  1  0.31274001  0.56489227  0.56151967  1
  Zn  Zn135  1  0.81190107  0.06566813  0.05914960  1
  Zn  Zn136  1  0.81754839  0.06353994  0.56086128  1
  Zn  Zn137  1  0.81265050  0.56343081  0.06070419  1
  Zn  Zn138  1  0.80979729  0.55772847  0.55827887  1
  Zn  Zn139  1  0.44021006  0.44133937  0.19140850  1
  Zn  Zn140  1  0.43650479  0.43619380  0.68843722  1
  Zn  Zn141  1  0.45994386  0.93813888  0.18708115  1
  Zn  Zn142  1  0.43891705  0.94102590  0.69099792  1
  Zn  Zn143  1  0.93865169  0.43553637  0.19117148  1
  Zn  Zn144  1  0.93544915  0.44056359  0.69308379  1
  Zn  Zn145  1  0.93779758  0.93127697  0.18603387  1
  Zn  Zn146  1  0.93872366  0.93436936  0.68579087  1
  Zn  Zn147  1  0.06278793  0.06157488  0.31110068  1
  Zn  Zn148  1  0.04572660  0.09398164  0.82664550  1
  Zn  Zn149  1  0.06014023  0.56236703  0.31149095  1
  Zn  Zn150  1  0.06488234  0.56410506  0.80753623  1
  Zn  Zn151  1  0.56122639  0.05852567  0.30474665  1
  Zn  Zn152  1  0.56509823  0.06438269  0.80731536  1
  Zn  Zn153  1  0.56119487  0.55896202  0.30959389  1
  Zn  Zn154  1  0.56161665  0.56641515  0.81310708  1
  Zn  Zn155  1  0.43698149  0.18730756  0.43799186  1
  Zn  Zn156  1  0.43460186  0.19137364  0.93770326  1
  Zn  Zn157  1  0.43564921  0.68737010  0.43763498  1
  Zn  Zn158  1  0.42973427  0.69288932  0.93975511  1
  Zn  Zn159  1  0.92896324  0.18775987  0.44154271  1
  Zn  Zn160  1  0.93501227  0.18835015  0.93678140  1
  Zn  Zn161  1  0.93761273  0.68350100  0.43781166  1
  Zn  Zn162  1  0.93899088  0.68613551  0.94001405  1
  Zn  Zn163  1  0.06060769  0.31188230  0.06545894  1
  Zn  Zn164  1  0.06603564  0.31519915  0.55942491  1
  Zn  Zn165  1  0.06479937  0.80901952  0.06308471  1
  Zn  Zn166  1  0.06060746  0.81402505  0.56530590  1
  Zn  Zn167  1  0.56117863  0.31491754  0.06163421  1
  Zn  Zn168  1  0.57144637  0.31262193  0.55843251  1
  Zn  Zn169  1  0.56394311  0.80518762  0.05998883  1
  Zn  Zn170  1  0.56303997  0.81373161  0.56325990  1
  O  O171  1  0.12468412  0.11716499  0.12166938  1
  O  O172  1  0.10905578  0.11268893  0.63103036  1
  O  O173  1  0.11413862  0.61645436  0.13383010  1
  O  O174  1  0.12710693  0.61067609  0.62696392  1
  O  O175  1  0.61055454  0.13472797  0.12704973  1
  O  O176  1  0.61840210  0.11760774  0.62581492  1
  O  O177  1  0.62719726  0.60798483  0.13257451  1
  O  O178  1  0.61169172  0.61785875  0.62704704  1
  O  O179  1  0.38245299  0.38696056  0.37080944  1
  O  O180  1  0.37965533  0.38811023  0.88025982  1
  O  O181  1  0.38000110  0.88064954  0.38441352  1
  O  O182  1  0.38575200  0.88419295  0.87303335  1
  O  O183  1  0.88136692  0.38079266  0.37149689  1
  O  O184  1  0.87231598  0.38602842  0.88706320  1
  O  O185  1  0.87513250  0.88485082  0.37978047  1
  O  O186  1  0.89048403  0.87712147  0.87767725  1
  O  O187  1  0.25378696  0.01135016  0.38146738  1
  O  O188  1  0.25905699  0.00546121  0.86754128  1
  O  O189  1  0.25957895  0.50645994  0.38453806  1
  O  O190  1  0.25948817  0.49981295  0.85950952  1
  O  O191  1  0.75600478  0.00555769  0.36654243  1
  O  O192  1  0.75244398  0.00154721  0.86141560  1
  O  O193  1  0.75464639  0.50704999  0.37926483  1
  O  O194  1  0.74914898  0.50611148  0.87257933  1
  O  O195  1  0.25620018  0.49747713  0.12537325  1
  O  O196  1  0.24767703  0.49183772  0.62970174  1
  O  O197  1  0.24505155  1.00596533  0.12455259  1
  O  O198  1  0.23915688  1.01048288  0.63335432  1
  O  O199  1  0.73778823  0.49121466  0.11715932  1
  O  O200  1  0.74077555  0.50146069  0.63520869  1
  O  O201  1  0.75039117  1.00436298  0.13572682  1
  O  O202  1  0.74543103  0.99509853  0.62548866  1
  O  O203  1  0.00759515  0.36500418  0.25941753  1
  O  O204  1  0.01349173  0.37117996  0.74153821  1
  O  O205  1  0.01018577  0.86470074  0.25417752  1
  O  O206  1  0.00616380  0.86807129  0.75682816  1
  O  O207  1  0.50705423  0.37492948  0.26311290  1
  O  O208  1  0.49492023  0.37103330  0.76444730  1
  O  O209  1  0.50737093  0.86445306  0.25919672  1
  O  O210  1  0.49974447  0.86311867  0.75365794  1
  O  O211  1  0.48797113  0.12648296  0.24216557  1
  O  O212  1  0.49864662  0.13429495  0.73714365  1
  O  O213  1  0.48801803  0.63174468  0.25733199  1
  O  O214  1  0.49031174  0.63580162  0.74594158  1
  O  O215  1  0.99808570  0.13704613  0.24964720  1
  O  O216  1  0.98129329  0.11642287  0.73227091  1
  O  O217  1  0.99183068  0.62914855  0.24490956  1
  O  O218  1  1.00259846  0.63927441  0.74561009  1
  O  O219  1  0.36742163  0.26112250  0.00570320  1
  O  O220  1  0.36679556  0.24907926  0.50777866  1
  O  O221  1  0.36278456  0.75759351  0.00305979  1
  O  O222  1  0.36695448  0.75900128  0.50173539  1
  O  O223  1  0.86995243  0.25951177  0.00371170  1
  O  O224  1  0.86090213  0.25618173  0.49512021  1
  O  O225  1  0.86006908  0.74929382  -0.00209965  1
  O  O226  1  0.86898121  0.75460194  0.50463264  1
  O  O227  1  0.13307378  0.25233925  0.48663666  1
  O  O228  1  0.13213816  0.24711581  1.00011802  1
  O  O229  1  0.13018239  0.75222803  0.49315589  1
  O  O230  1  0.13454947  0.75592174  0.98659952  1
  O  O231  1  0.63720972  0.25155168  0.49429995  1
  O  O232  1  0.63159106  0.24918531  0.99210866  1
  O  O233  1  0.63056830  0.74689694  0.49432217  1
  O  O234  1  0.63638368  0.75040019  0.99082375  1
  O  O235  1  0.49119893  0.24445501  0.12780186  1
  O  O236  1  0.49691556  0.24908377  0.62881795  1
  O  O237  1  0.50112899  0.74971539  0.13808742  1
  O  O238  1  0.49815496  0.74369211  0.63286480  1
  O  O239  1  0.99272260  0.24983591  0.13432902  1
  O  O240  1  1.00711436  0.23483143  0.61698078  1
  O  O241  1  1.00510455  0.74014963  0.13787477  1
  O  O242  1  0.99039220  0.75036408  0.63378473  1
  O  O243  1  0.00665905  0.25245700  0.37085818  1
  O  O244  1  0.01652089  0.20274945  0.86431898  1
  O  O245  1  0.00885120  0.74743800  0.36546249  1
  O  O246  1  0.00760077  0.75695140  0.87088023  1
  O  O247  1  0.49977033  0.25860320  0.37394988  1
  O  O248  1  0.50272024  0.25817442  0.86863321  1
  O  O249  1  0.50801643  0.75362897  0.37330654  1
  O  O250  1  0.50559710  0.75558958  0.87023531  1
  O  O251  1  0.25352037  0.13587898  0.49126688  1
  O  O252  1  0.24777835  0.13560172  0.99413086  1
  O  O253  1  0.24759789  0.63264787  0.49131743  1
  O  O254  1  0.25256012  0.64776116  0.99438530  1
  O  O255  1  0.75223835  0.11672746  0.48217987  1
  O  O256  1  0.75248728  0.14148065  0.99478775  1
  O  O257  1  0.74728540  0.62950237  0.48834179  1
  O  O258  1  0.75146854  0.63382176  0.98829134  1
  O  O259  1  0.25094902  0.37504479  0.00709121  1
  O  O260  1  0.24573364  0.36326230  0.51290287  1
  O  O261  1  0.25305435  0.85886506  -0.00699285  1
  O  O262  1  0.25933691  0.86667775  0.49541377  1
  O  O263  1  0.75736631  0.36581346  0.00965365  1
  O  O264  1  0.74861049  0.38470852  0.52237461  1
  O  O265  1  0.75174457  0.85835613  -0.00944744  1
  O  O266  1  0.75509393  0.86806186  0.50479530  1
  O  O267  1  0.12516867  0.48341124  0.25842264  1
  O  O268  1  0.13350720  0.49139759  0.74449526  1
  O  O269  1  0.12366245  0.99149824  0.23900487  1
  O  O270  1  0.13127155  0.99475784  0.74403543  1
  O  O271  1  0.61930302  0.48774630  0.23737289  1
  O  O272  1  0.63143594  0.50618601  0.74428268  1
  O  O273  1  0.63323600  0.98884140  0.24497230  1
  O  O274  1  0.63782274  1.00116837  0.73724928  1
  O  O275  1  0.36916675  0.00214948  0.25009861  1
  O  O276  1  0.36656941  0.00344042  0.75636932  1
  O  O277  1  0.38208839  0.51261599  0.26249448  1
  O  O278  1  0.37015924  0.50716827  0.75499466  1
  O  O279  1  0.86991813  -0.00126206  0.25642556  1
  O  O280  1  0.86413173  0.00114823  0.74510282  1
  O  O281  1  0.87674449  0.50665316  0.26175650  1
  O  O282  1  0.86680333  0.49609720  0.76868105  1
  O  O283  1  0.11943680  0.36703221  0.36878855  1
  O  O284  1  0.12406489  0.37270948  0.85579812  1
  O  O285  1  0.12563394  0.86429674  0.36521125  1
  O  O286  1  0.11584133  0.87186279  0.86403096  1
  O  O287  1  0.61861736  0.37935882  0.36776226  1
  O  O288  1  0.61577814  0.36590041  0.88100204  1
  O  O289  1  0.62066729  0.86847404  0.36646308  1
  O  O290  1  0.61680737  0.86468644  0.86987485  1
  O  O291  1  0.38379785  0.13389508  0.12970057  1
  O  O292  1  0.38256177  0.13798176  0.62715341  1
  O  O293  1  0.37275236  0.61971713  0.14394145  1
  O  O294  1  0.38532205  0.62692857  0.63257481  1
  O  O295  1  0.87576116  0.13972098  0.12573548  1
  O  O296  1  0.88335433  0.12696522  0.63136286  1
  O  O297  1  0.87563654  0.62719092  0.13606821  1
  O  O298  1  0.87095594  0.63718669  0.62010545  1
  O  O299  1  0.25981054  0.24490964  0.11327181  1
  O  O300  1  0.25683774  0.25190211  0.61872193  1
  O  O301  1  0.24380080  0.74969420  0.11752304  1
  O  O302  1  0.24948397  0.74602725  0.61280266  1
  O  O303  1  0.75643355  0.25637474  0.11946323  1
  O  O304  1  0.74306788  0.26896435  0.63327995  1
  O  O305  1  0.74655332  0.74382211  0.10968163  1
  O  O306  1  0.75350876  0.75196311  0.62207995  1
  O  O307  1  0.24617984  0.24139311  0.38155132  1
  O  O308  1  0.25046653  0.24459959  0.88528221  1
  O  O309  1  0.24265102  0.74205464  0.38664100  1
  O  O310  1  0.23536053  0.75160209  0.86718104  1
  O  O311  1  0.74871135  0.22846995  0.36612420  1
  O  O312  1  0.74066717  0.25545690  0.88035251  1
  O  O313  1  0.74309489  0.74228622  0.37939218  1
  O  O314  1  0.74375418  0.74252228  0.87771819  1
  O  O315  1  0.00669958  0.11169911  0.00554999  1
  O  O316  1  -0.00755182  0.11503241  0.51133467  1
  O  O317  1  -0.00071769  0.62988442  0.01882581  1
  O  O318  1  0.00474775  0.62212243  0.50491773  1
  O  O319  1  0.49884249  0.13324702  0.01421190  1
  O  O320  1  0.49483460  0.11895376  0.51214764  1
  O  O321  1  0.49611233  0.61595113  -0.00440766  1
  O  O322  1  0.49923170  0.61966328  0.51009691  1
  O  O323  1  0.50385863  0.38302892  0.48918445  1
  O  O324  1  0.49211537  0.38110791  0.98939095  1
  O  O325  1  0.49335449  0.88113710  0.49531529  1
  O  O326  1  0.49585711  0.87067340  0.99022199  1
  O  O327  1  0.99925898  0.37567085  0.48685390  1
  O  O328  1  0.98551361  0.37074682  1.00174539  1
  O  O329  1  0.99335128  0.88147770  0.49671346  1
  O  O330  1  1.00545650  0.88502930  0.99342340  1
  O  O331  1  0.49433193  0.49505196  0.38473504  1
  O  O332  1  0.49580394  0.49583130  0.88054335  1
  O  O333  1  0.49352812  0.99458734  0.37810568  1
  O  O334  1  0.49377971  0.99082755  0.86394474  1
  O  O335  1  0.99175136  0.49045483  0.37450374  1
  O  O336  1  0.98984323  0.50363638  0.87072460  1
  O  O337  1  0.99398623  0.99940837  0.38151112  1
  O  O338  1  1.00123735  0.99557926  0.88377925  1
  O  O339  1  0.00906041  0.00060019  0.12020426  1
  O  O340  1  0.00416575  0.00420109  0.61670819  1
  O  O341  1  -0.00555942  0.51059723  0.12794582  1
  O  O342  1  0.00752211  0.50135759  0.62545270  1
  O  O343  1  0.50731269  0.01926370  0.12562392  1
  O  O344  1  0.50852965  0.00934926  0.62298290  1
  O  O345  1  0.51266561  0.49439674  0.11622735  1
  O  O346  1  0.50274652  0.50533838  0.62221930  1
  O  O347  1  0.23729755  0.37058243  0.25660153  1
  O  O348  1  0.24857466  0.38212172  0.73834655  1
  O  O349  1  0.24611185  0.87239878  0.25623043  1
  O  O350  1  0.24228648  0.88839744  0.75233397  1
  O  O351  1  0.74409261  0.37124622  0.23788316  1
  O  O352  1  0.74908406  0.39060610  0.74106653  1
  O  O353  1  0.74110404  0.88179340  0.25568999  1
  O  O354  1  0.74968032  0.88164486  0.74270914  1
  O  O355  1  0.26313082  0.12953753  0.25832662  1
  O  O356  1  0.25113735  0.11783265  0.75754006  1
  O  O357  1  0.26362202  0.63112475  0.26594611  1
  O  O358  1  0.26226132  0.61735531  0.74180498  1
  O  O359  1  0.75176497  0.11347051  0.25745980  1
  O  O360  1  0.76187985  0.11944517  0.74483975  1
  O  O361  1  0.75898740  0.62947626  0.26195821  1
  O  O362  1  0.74992696  0.61480122  0.76268374  1
  O  O363  1  0.37079638  0.11771670  0.36597749  1
  O  O364  1  0.36696192  0.12031218  0.87408979  1
  O  O365  1  0.36883354  0.61482432  0.37428376  1
  O  O366  1  0.38077770  0.61467913  0.86584152  1
  O  O367  1  0.86854401  0.11065962  0.37185957  1
  O  O368  1  0.87006938  0.12174898  0.85767424  1
  O  O369  1  0.86782378  0.61656748  0.36818262  1
  O  O370  1  0.86936003  0.61004886  0.88201186  1
  O  O371  1  0.12927231  0.37354179  0.13821133  1
  O  O372  1  0.13264914  0.38282471  0.63174328  1
  O  O373  1  0.12549444  0.87977234  0.13761320  1
  O  O374  1  0.11767842  0.88621815  0.63849835  1
  O  O375  1  0.63194782  0.37878990  0.13118500  1
  O  O376  1  0.62904477  0.38920308  0.62751897  1
  O  O377  1  0.61654401  0.87388175  0.13821873  1
  O  O378  1  0.63170239  0.88277575  0.62801642  1
  O  O379  1  0.11979336  0.25624570  0.25914317  1
  O  O380  1  0.13310466  0.26421697  0.74672353  1
  O  O381  1  0.12170766  0.75387856  0.25698920  1
  O  O382  1  0.11841164  0.75874212  0.75530676  1
  O  O383  1  0.62229207  0.26345646  0.25566692  1
  O  O384  1  0.61082450  0.25167619  0.75579809  1
  O  O385  1  0.61923571  0.75348379  0.25577351  1
  O  O386  1  0.61570722  0.75037100  0.75688759  1
  O  O387  1  0.37623784  0.24288420  0.24252115  1
  O  O388  1  0.38651465  0.24971203  0.74452916  1
  O  O389  1  0.38540274  0.73536204  0.25962479  1
  O  O390  1  0.37907769  0.74469379  0.74980684  1
  O  O391  1  0.88350352  0.25097078  0.24193788  1
  O  O392  1  0.87051100  0.24232853  0.75225752  1
  O  O393  1  0.88469862  0.73924640  0.25263076  1
  O  O394  1  0.88360169  0.75544866  0.74210829  1
  O  O395  1  0.38688107  0.50305269  0.49535251  1
  O  O396  1  0.38005305  0.49999490  0.99345990  1
  O  O397  1  0.38037345  0.99480982  0.49590640  1
  O  O398  1  0.37207092  0.99708863  0.98542514  1
  O  O399  1  0.87668628  0.49432118  0.48704908  1
  O  O400  1  0.87060445  0.48819036  0.99009928  1
  O  O401  1  0.88418360  0.99283194  0.49330662  1
  O  O402  1  0.88411350  0.99910811  0.99754634  1
  O  O403  1  0.12203320  0.00096680  0.01216345  1
  O  O404  1  0.11303467  -0.00720030  0.50782155  1
  O  O405  1  0.13785914  0.48649992  0.01519361  1
  O  O406  1  0.12295614  0.49941791  0.50975018  1
  O  O407  1  0.63499459  0.00896888  0.00045909  1
  O  O408  1  0.61934536  -0.00661893  0.51088640  1
  O  O409  1  0.61653821  0.49608953  0.01321469  1
  O  O410  1  0.61086004  0.50460618  0.51027935  1
  O  O411  1  0.38125318  0.36587933  0.12362955  1
  O  O412  1  0.36894115  0.36288836  0.62874104  1
  O  O413  1  0.36948098  0.89157342  0.13223568  1
  O  O414  1  0.38037419  0.87659904  0.61326291  1
  O  O415  1  0.86934478  0.36916172  0.11809830  1
  O  O416  1  0.85987688  0.38363075  0.62693114  1
  O  O417  1  0.88150710  0.86285878  0.12071445  1
  O  O418  1  0.86838795  0.86472516  0.61865897  1
  O  O419  1  0.13545257  0.13173224  0.36770342  1
  O  O420  1  0.14478455  0.11344088  0.88646942  1
  O  O421  1  0.13241855  0.63360980  0.37338809  1
  O  O422  1  0.12343681  0.63979428  0.87072731  1
  O  O423  1  0.63589300  0.11952744  0.36946529  1
  O  O424  1  0.62601614  0.14076245  0.87159577  1
  O  O425  1  0.63178089  0.62748765  0.37380019  1
  O  O426  1  0.63192260  0.63681799  0.87184302  1
