# generated using pymatgen
data_V85Zn86O256
_symmetry_space_group_name_H-M   'P 1'
_cell_length_a   16.96902661
_cell_length_b   16.96583976
_cell_length_c   16.97539471
_cell_angle_alpha   89.98580114
_cell_angle_beta   89.96350543
_cell_angle_gamma   89.99906879
_symmetry_Int_Tables_number   1
_chemical_formula_structural   V85Zn86O256
_chemical_formula_sum   'V85 Zn86 O256'
_cell_volume   4887.10951605
_cell_formula_units_Z   1
loop_
 _symmetry_equiv_pos_site_id
 _symmetry_equiv_pos_as_xyz
  1  'x, y, z'
loop_
 _atom_site_type_symbol
 _atom_site_label
 _atom_site_symmetry_multiplicity
 _atom_site_fract_x
 _atom_site_fract_y
 _atom_site_fract_z
 _atom_site_occupancy
  V  V0  1  0.74417066  0.87782252  0.15124574  1
  V  V1  1  0.37898104  0.37513396  0.50505847  1
  V  V2  1  -0.00880908  0.62201496  0.13106298  1
  V  V3  1  0.87799559  0.50782914  0.36944880  1
  V  V4  1  0.74924457  0.49493041  0.75198791  1
  V  V5  1  0.37124486  0.87372823  -0.00155596  1
  V  V6  1  0.26176200  0.37547333  0.11893772  1
  V  V7  1  0.07795164  0.05241810  0.67324821  1
  V  V8  1  0.12170871  0.24928719  0.87358681  1
  V  V9  1  -0.01515595  0.74595453  0.25148749  1
  V  V10  1  0.12280182  0.00129471  0.12370237  1
  V  V11  1  0.11779761  0.12767175  -0.00006764  1
  V  V12  1  0.50485482  0.75456968  0.24993647  1
  V  V13  1  0.00090656  0.36833648  0.37069415  1
  V  V14  1  0.25596263  0.25031929  0.49941208  1
  V  V15  1  0.49498770  0.00786451  0.00325119  1
  V  V16  1  0.50186958  0.62419371  0.12344839  1
  V  V17  1  0.49357503  0.49194033  -0.00040242  1
  V  V18  1  0.62407735  0.62400056  -0.00123640  1
  V  V19  1  0.12348501  0.12445075  0.49852320  1
  V  V20  1  0.88125955  0.75905179  0.62357361  1
  V  V21  1  0.37301613  0.61588072  0.75216770  1
  V  V22  1  0.24870532  0.74907312  0.49819103  1
  V  V23  1  0.37433407  0.75099125  0.12508440  1
  V  V24  1  0.75814068  0.62827971  0.87793609  1
  V  V25  1  0.75403134  0.50332349  0.24565523  1
  V  V26  1  0.63012305  0.25090428  0.37339052  1
  V  V27  1  0.87370363  0.25580257  0.13737283  1
  V  V28  1  0.88576810  0.23840967  0.63193946  1
  V  V29  1  0.49206144  0.36654178  0.87111876  1
  V  V30  1  0.24624785  0.87442066  0.12959162  1
  V  V31  1  0.37516519  -0.00099769  0.87295910  1
  V  V32  1  0.62692660  0.50452697  0.62242846  1
  V  V33  1  0.74933027  0.76247339  0.00446073  1
  V  V34  1  0.49717760  0.74954766  0.75209220  1
  V  V35  1  0.24083172  0.87685012  0.62162550  1
  V  V36  1  0.24864815  -0.00357434  0.25144212  1
  V  V37  1  -0.00202245  0.36861822  0.87366192  1
  V  V38  1  0.88498484  0.62398473  0.73853382  1
  V  V39  1  0.00321202  0.50201646  0.00042240  1
  V  V40  1  0.63033420  0.37374786  0.24402389  1
  V  V41  1  0.50035119  0.00315663  0.50830682  1
  V  V42  1  0.12103336  0.86325047  0.75696901  1
  V  V43  1  0.37537833  0.87611390  0.49866343  1
  V  V44  1  0.12494260  0.62652762  0.50171029  1
  V  V45  1  0.50258747  0.62172308  0.62464667  1
  V  V46  1  0.25722794  0.25408436  -0.00210084  1
  V  V47  1  0.87359151  0.49750001  0.87597251  1
  V  V48  1  0.12048336  0.37023773  0.74756860  1
  V  V49  1  0.23960956  0.74754127  -0.00305965  1
  V  V50  1  0.51157755  0.87715709  0.37456605  1
  V  V51  1  0.00844036  -0.00429260  0.49685700  1
  V  V52  1  0.87580490  0.11607517  0.25163400  1
  V  V53  1  0.24826536  0.12563501  0.87202385  1
  V  V54  1  0.62548495  0.12263812  0.00394011  1
  V  V55  1  0.24275439  0.62478763  0.87817440  1
  V  V56  1  0.00387917  0.87663197  0.36186423  1
  V  V57  1  0.61606104  -0.00269786  0.14058429  1
  V  V58  1  0.12616745  0.50362033  0.12156444  1
  V  V59  1  0.75032019  0.11282418  0.37113618  1
  V  V60  1  0.87498848  0.37490314  0.50193900  1
  V  V61  1  0.00255233  0.13520184  0.13571683  1
  V  V62  1  0.25417374  -0.00089823  0.74427544  1
  V  V63  1  0.62758131  0.24797998  0.86946295  1
  V  V64  1  0.37409120  0.74823362  0.62548376  1
  V  V65  1  0.63932224  0.86906066  0.73445129  1
  V  V66  1  0.74558649  0.62308646  0.38072300  1
  V  V67  1  0.62614862  0.12443093  0.50098493  1
  V  V68  1  0.49706834  0.24468933  0.24391320  1
  V  V69  1  0.00076832  0.50382158  0.49942064  1
  V  V70  1  0.25366487  0.37234606  0.62643486  1
  V  V71  1  0.50588279  0.50740349  0.49923937  1
  V  V72  1  0.62296621  0.74176745  0.38322446  1
  V  V73  1  0.12252956  0.50031786  0.62321165  1
  V  V74  1  0.74787434  0.24655272  0.00678789  1
  V  V75  1  0.86809193  0.37158018  0.00428477  1
  V  V76  1  0.12380537  0.36702627  0.24676528  1
  V  V77  1  0.50166240  0.37628321  0.37516408  1
  V  V78  1  0.62493301  0.75207743  0.87722254  1
  V  V79  1  0.63148252  0.49604321  0.12121023  1
  V  V80  1  0.49746497  0.13988366  0.63297688  1
  V  V81  1  0.25125358  0.49763259  0.25100897  1
  V  V82  1  0.25582546  0.12631731  0.37277848  1
  V  V83  1  0.37590051  0.62309339  0.25004598  1
  V  V84  1  0.12555089  0.75059303  0.36400402  1
  Zn  Zn85  1  0.12382753  0.24818657  0.37041568  1
  Zn  Zn86  1  0.86710091  0.75018638  0.13184037  1
  Zn  Zn87  1  0.06584946  0.68012886  -0.06081581  1
  Zn  Zn88  1  0.75222265  0.37484464  0.62563912  1
  Zn  Zn89  1  0.50078996  0.87637505  0.87311997  1
  Zn  Zn90  1  0.24894389  0.49976203  0.75303215  1
  Zn  Zn91  1  -0.05900880  -0.04208377  -0.03847527  1
  Zn  Zn92  1  0.37301201  0.49698536  0.88110791  1
  Zn  Zn93  1  0.00003883  0.74917521  0.76615830  1
  Zn  Zn94  1  0.67510532  0.02348779  0.65822946  1
  Zn  Zn95  1  0.38555198  0.24617411  0.11018200  1
  Zn  Zn96  1  0.25068848  0.62321318  0.37500766  1
  Zn  Zn97  1  0.37640274  -0.00002173  0.37322443  1
  Zn  Zn98  1  0.87359245  0.88185205  0.50256529  1
  Zn  Zn99  1  0.37603988  0.50002388  0.37658641  1
  Zn  Zn100  1  0.37843557  0.12038819  0.23712967  1
  Zn  Zn101  1  0.75363600  0.25132581  0.50077246  1
  Zn  Zn102  1  0.37745994  0.13669500  0.74692020  1
  Zn  Zn103  1  0.62078745  0.37461038  0.74936320  1
  Zn  Zn104  1  0.80498336  0.08961585  0.80608483  1
  Zn  Zn105  1  0.87955369  0.00009101  0.37167281  1
  Zn  Zn106  1  0.74412091  0.75082010  0.51404185  1
  Zn  Zn107  1  0.19720161  0.18788885  0.18546931  1
  Zn  Zn108  1  0.19602414  0.19372115  0.68957340  1
  Zn  Zn109  1  0.18612520  0.68356854  0.18444905  1
  Zn  Zn110  1  0.18783059  0.68604771  0.68561819  1
  Zn  Zn111  1  0.68845703  0.18142070  0.18580132  1
  Zn  Zn112  1  0.69137232  0.19661294  0.68212149  1
  Zn  Zn113  1  0.68617126  0.68548635  0.19290994  1
  Zn  Zn114  1  0.69365064  0.68516088  0.69037157  1
  Zn  Zn115  1  0.31444327  0.31473236  0.31492747  1
  Zn  Zn116  1  0.30922624  0.31603533  0.81541766  1
  Zn  Zn117  1  0.31494685  0.81233284  0.31353246  1
  Zn  Zn118  1  0.30722206  0.81071930  0.81319281  1
  Zn  Zn119  1  0.81113526  0.31704255  0.31466766  1
  Zn  Zn120  1  0.81792674  0.29521728  0.81896857  1
  Zn  Zn121  1  0.79429142  0.83102132  0.34471057  1
  Zn  Zn122  1  0.81116482  0.92514592  0.82151608  1
  Zn  Zn123  1  0.18817678  0.43581001  0.43504495  1
  Zn  Zn124  1  0.18816504  0.43843414  0.93692069  1
  Zn  Zn125  1  0.18430602  0.93677818  0.43396261  1
  Zn  Zn126  1  0.12919107  0.97313827  0.90575561  1
  Zn  Zn127  1  0.68889931  0.43861255  0.43619016  1
  Zn  Zn128  1  0.68558422  0.43317617  0.93614746  1
  Zn  Zn129  1  0.70534737  0.94629139  0.48123185  1
  Zn  Zn130  1  0.68718898  0.93794731  0.94274999  1
  Zn  Zn131  1  0.30880192  0.06628285  0.06141642  1
  Zn  Zn132  1  0.31634802  0.06432102  0.56275208  1
  Zn  Zn133  1  0.31187487  0.56490243  0.06272691  1
  Zn  Zn134  1  0.31347425  0.55974150  0.56349235  1
  Zn  Zn135  1  0.80211339  0.05724240  0.07484273  1
  Zn  Zn136  1  0.82069615  0.06595607  0.55931248  1
  Zn  Zn137  1  0.81315091  0.56372414  0.05973684  1
  Zn  Zn138  1  0.81154655  0.56219072  0.56084371  1
  Zn  Zn139  1  0.44183643  0.43489546  0.18630745  1
  Zn  Zn140  1  0.43704554  0.31369707  0.69055990  1
  Zn  Zn141  1  0.43491682  0.93743969  0.18888675  1
  Zn  Zn142  1  0.44039085  0.93721842  0.68655018  1
  Zn  Zn143  1  0.93858135  0.43483022  0.18762332  1
  Zn  Zn144  1  0.93888579  0.43640020  0.68754397  1
  Zn  Zn145  1  0.95142170  0.91819694  0.15031720  1
  Zn  Zn146  1  0.93440821  0.93626606  0.69056080  1
  Zn  Zn147  1  0.06737152  0.06433795  0.30922930  1
  Zn  Zn148  1  -0.03723376  0.06567868  0.82202936  1
  Zn  Zn149  1  0.06533218  0.56156434  0.31170806  1
  Zn  Zn150  1  0.06232654  0.55349552  0.81076435  1
  Zn  Zn151  1  0.55888505  0.06453571  0.32041028  1
  Zn  Zn152  1  0.64127416  0.05440164  0.81849695  1
  Zn  Zn153  1  0.56398164  0.56181774  0.31031114  1
  Zn  Zn154  1  0.56268979  0.56029839  0.81303153  1
  Zn  Zn155  1  0.43901587  0.18952092  0.43553474  1
  Zn  Zn156  1  0.43798858  0.18368154  0.93132998  1
  Zn  Zn157  1  0.43551393  0.68684177  0.43563572  1
  Zn  Zn158  1  0.43383298  0.68488444  0.93711645  1
  Zn  Zn159  1  0.93815506  0.18804968  0.44037027  1
  Zn  Zn160  1  0.90822408  0.14898188  0.96298497  1
  Zn  Zn161  1  0.93821068  0.68652909  0.43712564  1
  Zn  Zn162  1  0.92666660  0.79950371  0.94376601  1
  Zn  Zn163  1  0.06121119  0.31361939  0.06192711  1
  Zn  Zn164  1  0.06293724  0.31112628  0.55836460  1
  Zn  Zn165  1  0.06394102  0.81358029  0.06921647  1
  Zn  Zn166  1  0.05514174  0.80832712  0.56388572  1
  Zn  Zn167  1  0.56425128  0.31471536  0.06043064  1
  Zn  Zn168  1  0.57028026  0.31825206  0.55990793  1
  Zn  Zn169  1  0.56151656  0.81872185  0.06363471  1
  Zn  Zn170  1  0.55907571  0.80836225  0.56025063  1
  O  O171  1  0.12162954  0.12420619  0.12262059  1
  O  O172  1  0.13512305  0.12073641  0.61707939  1
  O  O173  1  0.11846664  0.60841389  0.12883948  1
  O  O174  1  0.13183725  0.61525934  0.61154753  1
  O  O175  1  0.62432482  0.10947130  0.11814834  1
  O  O176  1  0.61451618  0.12736081  0.61321311  1
  O  O177  1  0.61875076  0.61669829  0.12070042  1
  O  O178  1  0.62037270  0.61339161  0.63187313  1
  O  O179  1  0.38259402  0.37763748  0.38640342  1
  O  O180  1  0.38827511  0.37805984  0.87594653  1
  O  O181  1  0.38212181  0.87200341  0.38873297  1
  O  O182  1  0.37114141  0.88090587  0.88279011  1
  O  O183  1  0.88265513  0.38332463  0.38242850  1
  O  O184  1  0.88271966  0.37529462  0.88247930  1
  O  O185  1  0.89483139  0.88030421  0.37147404  1
  O  O186  1  0.86812116  0.88512160  0.90658387  1
  O  O187  1  0.25110139  0.00603457  0.36793402  1
  O  O188  1  0.24975080  0.00510705  0.85990071  1
  O  O189  1  0.25319464  0.49968411  0.36220455  1
  O  O190  1  0.25502052  0.50714479  0.87471109  1
  O  O191  1  0.75475570  0.01156174  0.38256936  1
  O  O192  1  0.73451576  0.00458994  0.86727442  1
  O  O193  1  0.75743485  0.50480153  0.36748755  1
  O  O194  1  0.75233543  0.50656195  0.87157889  1
  O  O195  1  0.24540861  0.49451236  0.12984442  1
  O  O196  1  0.23994362  0.48765412  0.62152772  1
  O  O197  1  0.24597752  0.99252901  0.13218852  1
  O  O198  1  0.26162248  0.99077179  0.63482839  1
  O  O199  1  0.73982640  0.50496282  0.12966015  1
  O  O200  1  0.74415095  0.50027586  0.63298604  1
  O  O201  1  0.73191526  0.98678271  0.12982065  1
  O  O202  1  0.74606238  0.98636730  0.58267164  1
  O  O203  1  0.01221932  0.38178636  0.25839152  1
  O  O204  1  0.00940455  0.38267943  0.76079152  1
  O  O205  1  0.00204868  0.86060119  0.25001753  1
  O  O206  1  0.01878417  0.87288761  0.74524266  1
  O  O207  1  0.51166073  0.36991228  0.25569767  1
  O  O208  1  0.50217324  0.37576128  0.76696849  1
  O  O209  1  0.48885976  0.86447016  0.26214027  1
  O  O210  1  0.49898893  0.85799320  0.74973250  1
  O  O211  1  0.49786877  0.14188669  0.25745688  1
  O  O212  1  0.50183480  0.12341792  0.73005075  1
  O  O213  1  0.49238638  0.62871658  0.24333975  1
  O  O214  1  0.49290147  0.63237017  0.74757179  1
  O  O215  1  0.99730851  0.13065030  0.24302460  1
  O  O216  1  1.02889032  0.11023734  0.73466742  1
  O  O217  1  1.00452608  0.63006052  0.24247813  1
  O  O218  1  0.98637536  0.61976746  0.75694891  1
  O  O219  1  0.36126216  0.24793659  -0.00765864  1
  O  O220  1  0.36426943  0.25812836  0.49436551  1
  O  O221  1  0.37119948  0.75545378  0.00761073  1
  O  O222  1  0.36947537  0.75563318  0.50427028  1
  O  O223  1  0.86573873  0.25317303  0.01165356  1
  O  O224  1  0.87525265  0.26017913  0.50546354  1
  O  O225  1  0.85051520  0.74158878  0.01412189  1
  O  O226  1  0.88202562  0.74494601  0.51684463  1
  O  O227  1  0.13760075  0.24367227  0.49654272  1
  O  O228  1  0.13342777  0.24906881  0.99321019  1
  O  O229  1  0.12733505  0.74107462  0.49446395  1
  O  O230  1  0.13583270  0.74773105  1.00732166  1
  O  O231  1  0.62505436  0.24286874  0.48930071  1
  O  O232  1  0.63011348  0.24258068  1.00042628  1
  O  O233  1  0.62521635  0.74733436  0.48789527  1
  O  O234  1  0.62559750  0.74386045  0.99556206  1
  O  O235  1  0.50098342  0.25810862  0.14021362  1
  O  O236  1  0.50502612  0.24548789  0.62333826  1
  O  O237  1  0.49535784  0.74713520  0.13257522  1
  O  O238  1  0.49399851  0.74087565  0.63106613  1
  O  O239  1  0.99017850  0.24592990  0.12547751  1
  O  O240  1  0.98530973  0.25564289  0.61695845  1
  O  O241  1  1.00040147  0.73677607  0.13586077  1
  O  O242  1  0.98663752  0.74756158  0.63496940  1
  O  O243  1  0.00322821  0.26491640  0.37992308  1
  O  O244  1  0.01437479  0.26500607  0.88240390  1
  O  O245  1  0.00653247  0.75312493  0.36781989  1
  O  O246  1  -0.00048837  0.74563223  0.88061500  1
  O  O247  1  0.51194539  0.25627208  0.36718490  1
  O  O248  1  0.50789013  0.26178744  0.88345487  1
  O  O249  1  0.50406884  0.75333957  0.36970344  1
  O  O250  1  0.50572468  0.74787663  0.86786444  1
  O  O251  1  0.24596067  0.13153391  0.49537368  1
  O  O252  1  0.24016911  0.13607003  0.99206149  1
  O  O253  1  0.24484382  0.63017242  0.49729760  1
  O  O254  1  0.25537816  0.63455526  0.99216459  1
  O  O255  1  0.74122268  0.13217992  0.48899185  1
  O  O256  1  0.73481957  0.13288642  1.00778950  1
  O  O257  1  0.75544135  0.62739026  0.48424759  1
  O  O258  1  0.74111039  0.62873260  0.99462252  1
  O  O259  1  0.24670134  0.36841927  0.00821490  1
  O  O260  1  0.25753672  0.36968865  0.50344254  1
  O  O261  1  0.26239120  0.86322153  0.01025599  1
  O  O262  1  0.25629508  0.87170143  0.50368813  1
  O  O263  1  0.76256114  0.37028332  -0.00184601  1
  O  O264  1  0.76205760  0.37497427  0.49751907  1
  O  O265  1  0.73520627  0.86306934  0.01424289  1
  O  O266  1  0.76671174  0.85358354  0.46262129  1
  O  O267  1  0.13570525  0.49193534  0.24398081  1
  O  O268  1  0.12773707  0.49091682  0.73884332  1
  O  O269  1  0.14139591  1.00578048  0.24037105  1
  O  O270  1  0.13559564  0.98734993  0.73405070  1
  O  O271  1  0.62932484  0.49237866  0.24022487  1
  O  O272  1  0.63335731  0.49904532  0.74413772  1
  O  O273  1  0.61092242  1.00425823  0.23869752  1
  O  O274  1  0.60994199  0.97191902  0.74224631  1
  O  O275  1  0.36448143  0.00230238  0.25330327  1
  O  O276  1  0.37044646  -0.00192141  0.75806250  1
  O  O277  1  0.36968269  0.50524441  0.24838498  1
  O  O278  1  0.37242444  0.51435784  0.75038626  1
  O  O279  1  0.88262221  0.01590433  0.25025210  1
  O  O280  1  0.88043340  0.00028383  0.76369396  1
  O  O281  1  0.86499478  0.49056088  0.25718310  1
  O  O282  1  0.87027791  0.50463125  0.75737894  1
  O  O283  1  0.11825369  0.37549676  0.36541160  1
  O  O284  1  0.11986028  0.37284076  0.86562673  1
  O  O285  1  0.11524678  0.86264936  0.37728799  1
  O  O286  1  0.13961105  0.87171916  0.85450203  1
  O  O287  1  0.62133809  0.36866548  0.36805134  1
  O  O288  1  0.61492376  0.36555442  0.87573884  1
  O  O289  1  0.61154997  0.86405873  0.37917496  1
  O  O290  1  0.62072797  0.86030195  0.87172430  1
  O  O291  1  0.36621071  0.13564436  0.12608672  1
  O  O292  1  0.39283097  0.12629299  0.62245947  1
  O  O293  1  0.38068281  0.62958821  0.13430514  1
  O  O294  1  0.37909093  0.62948427  0.63242555  1
  O  O295  1  0.88346519  0.13639518  0.13752883  1
  O  O296  1  0.87584766  0.13804729  0.62557424  1
  O  O297  1  0.88806507  0.62165648  0.12489270  1
  O  O298  1  0.88028793  0.61323634  0.63781850  1
  O  O299  1  0.24951115  0.26144719  0.11378099  1
  O  O300  1  0.24666756  0.26462925  0.61475148  1
  O  O301  1  0.25379278  0.75549828  0.12208011  1
  O  O302  1  0.25633615  0.75688654  0.61773781  1
  O  O303  1  0.75605568  0.24851972  0.11641556  1
  O  O304  1  0.76263055  0.25774578  0.61930732  1
  O  O305  1  0.73854977  0.76066410  0.12348924  1
  O  O306  1  0.77269336  0.73482944  0.62479707  1
  O  O307  1  0.24900459  0.24394613  0.38082057  1
  O  O308  1  0.23828673  0.25042118  0.88096608  1
  O  O309  1  0.24255702  0.74918463  0.38051262  1
  O  O310  1  0.25353766  0.74007351  0.88683740  1
  O  O311  1  0.73839436  0.24754753  0.37401994  1
  O  O312  1  0.74012773  0.25344319  0.89278554  1
  O  O313  1  0.73461659  0.73398826  0.36039959  1
  O  O314  1  0.73967996  0.74210455  0.89188363  1
  O  O315  1  0.01553676  0.13909570  0.01710897  1
  O  O316  1  0.01814635  0.12031792  0.49139596  1
  O  O317  1  0.00442009  0.60767928  0.00985551  1
  O  O318  1  0.00930419  0.61136053  0.49350461  1
  O  O319  1  0.49978512  0.11255080  0.00095518  1
  O  O320  1  0.50560632  0.12114525  0.50235833  1
  O  O321  1  0.50599607  0.61820209  0.00478526  1
  O  O322  1  0.49313464  0.61304018  0.50340958  1
  O  O323  1  0.49467305  0.38305830  0.49621061  1
  O  O324  1  0.50417543  0.38300285  0.98963154  1
  O  O325  1  0.49414323  0.88230077  0.49635725  1
  O  O326  1  0.48542700  0.88163258  0.99928135  1
  O  O327  1  0.99848209  0.38685246  0.48971229  1
  O  O328  1  0.99077052  0.38228507  0.99486987  1
  O  O329  1  1.00197589  0.88235828  0.49052168  1
  O  O330  1  0.97684242  0.87429973  1.03702036  1
  O  O331  1  0.50114494  0.49406957  0.38145027  1
  O  O332  1  0.50023597  0.48988234  0.88359487  1
  O  O333  1  0.49591513  0.99199012  0.38391310  1
  O  O334  1  0.48196388  0.99466036  0.88570269  1
  O  O335  1  0.99455603  0.49362698  0.37840089  1
  O  O336  1  0.99531619  0.49054802  0.88431702  1
  O  O337  1  1.00901409  0.99130429  0.37738794  1
  O  O338  1  1.02188824  1.00476964  0.89397708  1
  O  O339  1  0.01827307  0.01170153  0.13455078  1
  O  O340  1  0.00788631  -0.00219127  0.61775060  1
  O  O341  1  0.00710120  0.50219333  0.12089730  1
  O  O342  1  0.01482100  0.49321103  0.61442571  1
  O  O343  1  0.50713185  -0.00721055  0.11752362  1
  O  O344  1  0.49807656  0.00545459  0.61173961  1
  O  O345  1  0.51049919  0.50191612  0.11785616  1
  O  O346  1  0.51037297  0.50785656  0.61510173  1
  O  O347  1  0.24731905  0.38214816  0.24279126  1
  O  O348  1  0.24205377  0.37925665  0.74080726  1
  O  O349  1  0.25662814  0.88188959  0.24142313  1
  O  O350  1  0.24620083  0.87911491  0.73926733  1
  O  O351  1  0.73674663  0.38623301  0.25591615  1
  O  O352  1  0.75262374  0.38904100  0.75519722  1
  O  O353  1  0.73914350  0.87076561  0.24911343  1
  O  O354  1  0.73707911  0.86829718  0.75015792  1
  O  O355  1  0.25389970  0.11909760  0.25891116  1
  O  O356  1  0.25224470  0.11544495  0.75260076  1
  O  O357  1  0.25791416  0.61452412  0.24814410  1
  O  O358  1  0.25637764  0.62518000  0.75772838  1
  O  O359  1  0.76046030  0.12933401  0.25943838  1
  O  O360  1  0.71650551  0.10225746  0.73774442  1
  O  O361  1  0.74466983  0.60825744  0.25744962  1
  O  O362  1  0.75887926  0.61444472  0.75912404  1
  O  O363  1  0.36418042  0.12415466  0.37511613  1
  O  O364  1  0.36703975  0.11446211  0.87101713  1
  O  O365  1  0.37300235  0.62251734  0.36125093  1
  O  O366  1  0.36539399  0.62255215  0.86782849  1
  O  O367  1  0.86822729  0.12867568  0.36813535  1
  O  O368  1  0.88608459  0.14898846  0.85328127  1
  O  O369  1  0.87052668  0.61216359  0.37462930  1
  O  O370  1  0.86166737  0.61639408  0.86870303  1
  O  O371  1  0.13142572  0.38389241  0.13141822  1
  O  O372  1  0.13084972  0.37881881  0.62948439  1
  O  O373  1  0.13941592  0.88576246  0.12142255  1
  O  O374  1  0.13873052  0.86774576  0.62554623  1
  O  O375  1  0.62367471  0.38423955  0.13217128  1
  O  O376  1  0.62986938  0.38774286  0.62972585  1
  O  O377  1  0.62703314  0.88783468  0.12855342  1
  O  O378  1  0.62958138  0.85742965  0.63452632  1
  O  O379  1  0.13415330  0.26396504  0.24985528  1
  O  O380  1  0.13015196  0.26196684  0.75770572  1
  O  O381  1  0.12296643  0.74085687  0.26240748  1
  O  O382  1  0.12453620  0.75943431  0.74591116  1
  O  O383  1  0.61889204  0.25568705  0.25259144  1
  O  O384  1  0.63418749  0.25452860  0.76616558  1
  O  O385  1  0.60797711  0.74214614  0.25893625  1
  O  O386  1  0.61843993  0.75287560  0.75777472  1
  O  O387  1  0.39281037  0.25506141  0.25380287  1
  O  O388  1  0.36829375  0.24949658  0.74980064  1
  O  O389  1  0.38159579  0.74109316  0.24549351  1
  O  O390  1  0.38040781  0.74225782  0.74609586  1
  O  O391  1  0.86924157  0.25123829  0.24042596  1
  O  O392  1  0.87681950  0.26431820  0.72923820  1
  O  O393  1  0.88443434  0.74687772  0.25200234  1
  O  O394  1  0.87785218  0.72990012  0.73902800  1
  O  O395  1  0.38368910  0.49211081  0.49853406  1
  O  O396  1  0.39043601  0.50526224  1.00309688  1
  O  O397  1  0.38129818  0.99191376  0.49697618  1
  O  O398  1  0.37402194  0.99286045  0.99445682  1
  O  O399  1  0.88405496  0.49653019  0.49112506  1
  O  O400  1  0.87955179  0.49067719  0.99482168  1
  O  O401  1  0.89755158  1.00417705  0.49282319  1
  O  O402  1  0.88395338  1.04536289  1.00452180  1
  O  O403  1  0.13918863  0.01721775  0.01346877  1
  O  O404  1  0.11940534  0.00812584  0.49894340  1
  O  O405  1  0.11522321  0.48962946  0.01009017  1
  O  O406  1  0.12085231  0.50477365  0.50282776  1
  O  O407  1  0.61182036  0.00616260  0.00476482  1
  O  O408  1  0.61321525  0.01631130  0.48834642  1
  O  O409  1  0.61962461  0.50359729  0.00605359  1
  O  O410  1  0.61711076  0.49585675  0.50765594  1
  O  O411  1  0.36473063  0.37100977  0.12738581  1
  O  O412  1  0.36894877  0.37526496  0.61314669  1
  O  O413  1  0.36629335  0.87033641  0.11933320  1
  O  O414  1  0.37044925  0.86870269  0.61394997  1
  O  O415  1  0.88000509  0.36793865  0.11592322  1
  O  O416  1  0.87576461  0.38330255  0.60866465  1
  O  O417  1  0.84751461  0.87167826  0.13805766  1
  O  O418  1  0.87722091  0.86275586  0.62215403  1
  O  O419  1  0.13869107  0.12760077  0.38123357  1
  O  O420  1  0.13101554  0.13779427  0.88409464  1
  O  O421  1  0.12877258  0.62945767  0.38559058  1
  O  O422  1  0.13735664  0.61617855  0.87359090  1
  O  O423  1  0.63217527  0.13332051  0.37760336  1
  O  O424  1  0.61314858  0.13705455  0.89206228  1
  O  O425  1  0.63195479  0.62848461  0.37342496  1
  O  O426  1  0.63235071  0.63346028  0.87719777  1
