# generated using pymatgen
data_V85Zn86O256
_symmetry_space_group_name_H-M   'P 1'
_cell_length_a   16.93342333
_cell_length_b   16.93091034
_cell_length_c   16.92857990
_cell_angle_alpha   89.89578374
_cell_angle_beta   89.97002602
_cell_angle_gamma   90.09140147
_symmetry_Int_Tables_number   1
_chemical_formula_structural   V85Zn86O256
_chemical_formula_sum   'V85 Zn86 O256'
_cell_volume   4853.37973212
_cell_formula_units_Z   1
loop_
 _symmetry_equiv_pos_site_id
 _symmetry_equiv_pos_as_xyz
  1  'x, y, z'
loop_
 _atom_site_type_symbol
 _atom_site_label
 _atom_site_symmetry_multiplicity
 _atom_site_fract_x
 _atom_site_fract_y
 _atom_site_fract_z
 _atom_site_occupancy
  V  V0  1  0.00418429  0.12087180  0.11926074  1
  V  V1  1  0.45169890  0.19407199  0.18952032  1
  V  V2  1  0.61848065  0.12160669  0.00326967  1
  V  V3  1  0.26051067  -0.00145479  0.74039116  1
  V  V4  1  0.25083079  0.24410377  0.00048997  1
  V  V5  1  0.14004649  -0.00063403  0.12377993  1
  V  V6  1  0.00725250  0.37565532  0.87260549  1
  V  V7  1  0.37327500  0.37580141  0.00332804  1
  V  V8  1  0.12819137  0.62359863  0.50364954  1
  V  V9  1  0.37422642  0.49587491  0.37472601  1
  V  V10  1  0.87796202  0.12239516  0.75439475  1
  V  V11  1  0.87128051  0.12443771  0.25247876  1
  V  V12  1  -0.00534786  0.49767703  0.50132173  1
  V  V13  1  0.75119763  0.49889863  0.74895576  1
  V  V14  1  0.62735273  0.62691305  -0.00037059  1
  V  V15  1  0.12570276  0.75061274  0.37704421  1
  V  V16  1  0.74176870  0.74725676  0.50057678  1
  V  V17  1  0.75132700  -0.00115204  0.75003006  1
  V  V18  1  0.87538719  0.75862771  0.12063495  1
  V  V19  1  0.50158297  0.50048631  -0.00096941  1
  V  V20  1  0.74880138  0.11784439  0.87631208  1
  V  V21  1  0.00429760  0.12214474  0.62483015  1
  V  V22  1  0.62124567  0.24418959  0.37774307  1
  V  V23  1  0.62531324  0.37373353  0.74699503  1
  V  V24  1  0.25138155  0.62403509  0.37597235  1
  V  V25  1  0.61976114  0.36973370  0.25109416  1
  V  V26  1  0.49847120  0.37064332  0.37498926  1
  V  V27  1  0.12747747  0.24770803  0.87941995  1
  V  V28  1  0.75233274  0.49783336  0.25194856  1
  V  V29  1  -0.00201466  0.87302573  0.38114256  1
  V  V30  1  0.74904548  0.24887239  -0.00217362  1
  V  V31  1  0.61832229  0.86219219  0.25137530  1
  V  V32  1  0.62732061  0.49978115  0.12552200  1
  V  V33  1  0.62081122  0.00048028  0.12902549  1
  V  V34  1  0.87742866  0.75424930  0.61894854  1
  V  V35  1  0.00009573  0.49933968  0.00041005  1
  V  V36  1  0.49791973  0.13280084  0.61492979  1
  V  V37  1  0.75175273  0.87675746  0.61708428  1
  V  V38  1  0.25616897  0.86188825  0.11827578  1
  V  V39  1  0.00675491  0.24989019  0.25345648  1
  V  V40  1  0.48170993  0.62889712  0.62767661  1
  V  V41  1  0.50226202  0.63282699  0.13247681  1
  V  V42  1  0.00075933  0.75120917  0.25253324  1
  V  V43  1  0.25230349  0.49920272  0.74721809  1
  V  V44  1  0.87730076  0.49928675  0.87458401  1
  V  V45  1  0.37535666  0.36817567  0.50478101  1
  V  V46  1  0.87724291  0.25311269  0.62082366  1
  V  V47  1  0.37792432  0.13479798  0.75269368  1
  V  V48  1  0.24423540  0.24631103  0.48693460  1
  V  V49  1  0.25158352  0.37661201  0.12549876  1
  V  V50  1  0.12823059  0.50000659  0.12638784  1
  V  V51  1  0.49903291  0.37256622  0.87239542  1
  V  V52  1  0.61969790  0.75093686  0.86995526  1
  V  V53  1  0.37220933  0.76826354  0.63385346  1
  V  V54  1  0.25631555  0.76606222  0.50310991  1
  V  V55  1  0.75296890  0.37396025  0.62155648  1
  V  V56  1  0.62211357  0.00476757  0.61447929  1
  V  V57  1  0.00086141  0.62623716  0.12582859  1
  V  V58  1  0.87743300  0.62610208  0.74828369  1
  V  V59  1  0.48526062  -0.00088533  0.00282955  1
  V  V60  1  0.61827012  0.87413293  0.74776768  1
  V  V61  1  0.74925250  0.62510758  0.87398370  1
  V  V62  1  0.87179182  -0.00832216  0.37965434  1
  V  V63  1  0.62570106  0.51053187  0.61678248  1
  V  V64  1  -0.00078565  0.36760567  0.38297693  1
  V  V65  1  0.37544438  0.50614544  0.86777795  1
  V  V66  1  0.75170037  0.37337882  0.12621966  1
  V  V67  1  0.36721132  0.01326108  0.37132395  1
  V  V68  1  0.49001112  0.87896693  0.87899872  1
  V  V69  1  0.75071405  0.24940266  0.50059511  1
  V  V70  1  0.74209885  0.62340540  0.38010368  1
  V  V71  1  0.25036484  0.36310120  0.63033340  1
  V  V72  1  0.87346513  0.24926694  0.12689771  1
  V  V73  1  0.12653947  0.63565165  -0.00140110  1
  V  V74  1  0.00808992  0.25296815  0.74954127  1
  V  V75  1  -0.00198378  -0.00351321  0.50235826  1
  V  V76  1  0.25388499  0.11491197  0.87993235  1
  V  V77  1  0.48666605  0.86640746  0.37994945  1
  V  V78  1  0.13029972  0.87977719  0.74615867  1
  V  V79  1  0.25031144  0.63176045  0.87230610  1
  V  V80  1  0.38074951  0.63524366  0.25323769  1
  V  V81  1  0.87509569  0.62465756  0.25339778  1
  V  V82  1  0.74483282  0.12231144  0.38125563  1
  V  V83  1  0.00385010  0.75313270  0.75311982  1
  V  V84  1  0.12547614  0.49385655  0.63121568  1
  Zn  Zn85  1  0.62323276  0.24737192  0.87166365  1
  Zn  Zn86  1  0.87348034  0.49553425  0.38148263  1
  Zn  Zn87  1  -0.00327139  0.00362717  -0.00821341  1
  Zn  Zn88  1  0.75362534  0.75795241  -0.00335037  1
  Zn  Zn89  1  0.25148995  0.50058828  0.24890004  1
  Zn  Zn90  1  0.13001181  0.88313541  0.25192561  1
  Zn  Zn91  1  0.12786915  0.37434255  0.25668744  1
  Zn  Zn92  1  0.13034515  0.75934407  0.87871622  1
  Zn  Zn93  1  0.50368423  0.50425271  0.49817747  1
  Zn  Zn94  1  0.74527293  -0.00401079  0.25320788  1
  Zn  Zn95  1  0.23735394  0.12363570  0.34903679  1
  Zn  Zn96  1  0.74925442  0.87577816  0.12449073  1
  Zn  Zn97  1  0.49255559  -0.00393624  0.49905813  1
  Zn  Zn98  1  0.12299668  0.12751816  0.48999339  1
  Zn  Zn99  1  0.87526293  0.37382495  -0.00094370  1
  Zn  Zn100  1  0.13466163  -0.00286739  0.61903408  1
  Zn  Zn101  1  0.49633374  0.25221345  0.74435502  1
  Zn  Zn102  1  0.61420281  0.74291166  0.37789849  1
  Zn  Zn103  1  0.37923387  0.75679302  0.11139217  1
  Zn  Zn104  1  0.86504276  0.90459592  -0.02683343  1
  Zn  Zn105  1  0.00239674  0.62520859  0.62520995  1
  Zn  Zn106  1  -0.00424415  0.89006895  0.87248925  1
  Zn  Zn107  1  0.18486086  0.19175163  0.18089832  1
  Zn  Zn108  1  0.18766023  0.18369737  0.68980457  1
  Zn  Zn109  1  0.18973648  0.68945965  0.19029001  1
  Zn  Zn110  1  0.19235545  0.68802568  0.68728913  1
  Zn  Zn111  1  0.67890216  0.18491543  0.18948418  1
  Zn  Zn112  1  0.68417946  0.18604508  0.68637740  1
  Zn  Zn113  1  0.69161527  0.68839874  0.18788572  1
  Zn  Zn114  1  0.68657784  0.68981409  0.68907861  1
  Zn  Zn115  1  0.31471732  0.30513477  0.30431196  1
  Zn  Zn116  1  0.31223458  0.31514689  0.81273140  1
  Zn  Zn117  1  0.30880882  0.81543912  0.30505644  1
  Zn  Zn118  1  0.31287984  0.81427979  0.81097363  1
  Zn  Zn119  1  0.81605610  0.31271208  0.31611205  1
  Zn  Zn120  1  0.81634444  0.31015176  0.81209909  1
  Zn  Zn121  1  0.80784437  0.81155036  0.31135334  1
  Zn  Zn122  1  0.80826338  0.81162606  0.80692723  1
  Zn  Zn123  1  0.18514903  0.43444226  0.43997162  1
  Zn  Zn124  1  0.18735230  0.44112333  0.93785471  1
  Zn  Zn125  1  0.18515326  0.94438027  0.43314278  1
  Zn  Zn126  1  0.18088202  0.94033625  0.94261290  1
  Zn  Zn127  1  0.69068306  0.43217381  0.43802970  1
  Zn  Zn128  1  0.68813968  0.43650448  0.93609913  1
  Zn  Zn129  1  0.68190383  0.93174791  0.43561989  1
  Zn  Zn130  1  0.68505136  0.93686558  0.93942779  1
  Zn  Zn131  1  0.32196123  0.06602730  0.18641690  1
  Zn  Zn132  1  0.32176108  0.06419836  0.55723378  1
  Zn  Zn133  1  0.32718957  0.59195975  0.04786785  1
  Zn  Zn134  1  0.31139077  0.55805273  0.55974786  1
  Zn  Zn135  1  0.80801268  0.06031057  0.06745901  1
  Zn  Zn136  1  0.81567499  0.06379907  0.56295144  1
  Zn  Zn137  1  0.81478152  0.56550941  0.06360537  1
  Zn  Zn138  1  0.81209282  0.56574715  0.56397715  1
  Zn  Zn139  1  0.43757948  0.44001395  0.18743947  1
  Zn  Zn140  1  0.43757545  0.43954880  0.68441312  1
  Zn  Zn141  1  0.43862896  0.93204387  0.18979411  1
  Zn  Zn142  1  0.43889223  0.94489892  0.69199031  1
  Zn  Zn143  1  0.93940625  0.43574717  0.19072537  1
  Zn  Zn144  1  0.93925434  0.43549500  0.68744225  1
  Zn  Zn145  1  0.93924351  0.93919600  0.19294533  1
  Zn  Zn146  1  0.93660789  0.93591763  0.69195016  1
  Zn  Zn147  1  0.06285464  0.06259360  0.30944053  1
  Zn  Zn148  1  0.07196479  0.06195990  0.81351107  1
  Zn  Zn149  1  0.06255627  0.55974354  0.31572630  1
  Zn  Zn150  1  0.06571681  0.56503427  0.81050466  1
  Zn  Zn151  1  0.55503312  0.05583550  0.31300200  1
  Zn  Zn152  1  0.56133241  0.05973811  0.81213299  1
  Zn  Zn153  1  0.56246337  0.55763469  0.31307929  1
  Zn  Zn154  1  0.56040443  0.56271183  0.80610817  1
  Zn  Zn155  1  0.43378062  0.18875475  0.43592001  1
  Zn  Zn156  1  0.43278763  0.18614464  0.94432351  1
  Zn  Zn157  1  0.43725580  0.68598231  0.44637527  1
  Zn  Zn158  1  0.43928613  0.69060966  0.93412643  1
  Zn  Zn159  1  0.93631783  0.18423865  0.43841957  1
  Zn  Zn160  1  0.93484696  0.18205384  0.93690596  1
  Zn  Zn161  1  0.93462924  0.68473937  0.44059182  1
  Zn  Zn162  1  0.93975850  0.69275492  0.93585776  1
  Zn  Zn163  1  0.06357110  0.31193539  0.06295366  1
  Zn  Zn164  1  0.06641798  0.31318278  0.56234716  1
  Zn  Zn165  1  0.05788021  0.82400965  0.05915774  1
  Zn  Zn166  1  0.06654092  0.81438514  0.56519351  1
  Zn  Zn167  1  0.56568316  0.31472054  0.05803317  1
  Zn  Zn168  1  0.56524016  0.31280418  0.55868984  1
  Zn  Zn169  1  0.56426725  0.81408641  0.05915686  1
  Zn  Zn170  1  0.55731540  0.81023035  0.56241473  1
  O  O171  1  0.10980270  0.11774340  0.12925097  1
  O  O172  1  0.11194335  0.12287869  0.62434360  1
  O  O173  1  0.12075300  0.62013308  0.11849049  1
  O  O174  1  0.12577212  0.61737620  0.61753218  1
  O  O175  1  0.62807017  0.11478878  0.11442098  1
  O  O176  1  0.61071396  0.11611890  0.63203298  1
  O  O177  1  0.62280342  0.62067495  0.11918979  1
  O  O178  1  0.63089999  0.61136226  0.62512504  1
  O  O179  1  0.37977430  0.37896824  0.37974884  1
  O  O180  1  0.38240478  0.38554711  0.87942416  1
  O  O181  1  0.38499158  0.87472727  0.36859753  1
  O  O182  1  0.39166710  0.86877575  0.87338495  1
  O  O183  1  0.89177051  0.37924101  0.37280293  1
  O  O184  1  0.88562955  0.38079333  0.87622930  1
  O  O185  1  0.87854032  0.88497060  0.37197223  1
  O  O186  1  0.88208147  0.86202279  0.86956887  1
  O  O187  1  0.26199724  0.00183338  0.37164205  1
  O  O188  1  0.24309573  0.01286325  0.87093735  1
  O  O189  1  0.25638176  0.50509606  0.37580557  1
  O  O190  1  0.25666524  0.50211332  0.86550591  1
  O  O191  1  0.75492881  0.00525636  0.37877764  1
  O  O192  1  0.74347334  0.01010631  0.86542434  1
  O  O193  1  0.75335459  0.50513484  0.37241548  1
  O  O194  1  0.75579787  0.50434374  0.86809141  1
  O  O195  1  0.24056623  0.49249880  0.12289803  1
  O  O196  1  0.24376935  0.49251812  0.62980677  1
  O  O197  1  0.24100680  1.00067198  0.12770042  1
  O  O198  1  0.25408812  1.00845803  0.63706879  1
  O  O199  1  0.74679260  0.49420471  0.13008870  1
  O  O200  1  0.74269560  0.49545554  0.62852280  1
  O  O201  1  0.73490623  0.99755152  0.13119461  1
  O  O202  1  0.74421382  0.99501014  0.62830464  1
  O  O203  1  0.00093951  0.36651008  0.26023227  1
  O  O204  1  -0.00458252  0.36463874  0.75983195  1
  O  O205  1  0.00019488  0.86748767  0.26387166  1
  O  O206  1  0.00969356  0.86857472  0.74991250  1
  O  O207  1  0.51544632  0.38343064  0.25513125  1
  O  O208  1  0.50685241  0.37452972  0.75413855  1
  O  O209  1  0.51114411  0.87300676  0.26135795  1
  O  O210  1  0.51135140  0.88591942  0.76292262  1
  O  O211  1  0.51064839  0.13822833  0.25253914  1
  O  O212  1  0.49315317  0.12750669  0.74676782  1
  O  O213  1  0.49612325  0.62105831  0.24393987  1
  O  O214  1  0.50942419  0.62464133  0.72575001  1
  O  O215  1  0.98736876  0.13218924  0.24555123  1
  O  O216  1  0.99362417  0.13132388  0.74410349  1
  O  O217  1  0.99238497  0.62942647  0.24850815  1
  O  O218  1  0.99481362  0.63183635  0.74599657  1
  O  O219  1  0.36767117  0.26812820  -0.00634985  1
  O  O220  1  0.36390615  0.26134626  0.49740351  1
  O  O221  1  0.36722217  0.69883678  0.01582447  1
  O  O222  1  0.36026942  0.74912603  0.50823353  1
  O  O223  1  0.86201938  0.24768133  0.00521080  1
  O  O224  1  0.87114002  0.24456313  0.51460103  1
  O  O225  1  0.87243745  0.73898397  0.01457603  1
  O  O226  1  0.86685675  0.74478902  0.51382450  1
  O  O227  1  0.14027005  0.24957146  0.50166120  1
  O  O228  1  0.13454343  0.25666636  0.98953391  1
  O  O229  1  0.13411333  0.74222389  0.49897735  1
  O  O230  1  0.11754641  0.73877541  0.99922734  1
  O  O231  1  0.63543083  0.25179918  0.48736225  1
  O  O232  1  0.63521357  0.24273316  0.99607549  1
  O  O233  1  0.63790691  0.75153545  0.50122280  1
  O  O234  1  0.62909396  0.74193627  0.99158795  1
  O  O235  1  0.51424796  0.24673594  0.12787892  1
  O  O236  1  0.50748048  0.23681453  0.62515075  1
  O  O237  1  0.50122843  0.73591315  0.11936521  1
  O  O238  1  0.48189886  0.74072399  0.61816500  1
  O  O239  1  0.99365922  0.24315011  0.13300068  1
  O  O240  1  0.99572868  0.24561203  0.63050174  1
  O  O241  1  0.99444195  0.74478150  0.13229724  1
  O  O242  1  0.99352956  0.75021543  0.63249366  1
  O  O243  1  -0.00587595  0.25931506  0.37080861  1
  O  O244  1  0.00585385  0.25416923  0.87002267  1
  O  O245  1  0.00196757  0.75579597  0.37526967  1
  O  O246  1  0.00632161  0.74540545  0.85881538  1
  O  O247  1  0.51064255  0.25676612  0.38276102  1
  O  O248  1  0.50053624  0.26415949  0.87493193  1
  O  O249  1  0.49756440  0.75964104  0.38042557  1
  O  O250  1  0.51096672  0.76104286  0.87972298  1
  O  O251  1  0.25148309  0.14290727  0.50676692  1
  O  O252  1  0.25711082  0.14262359  0.99180296  1
  O  O253  1  0.24044003  0.62687398  0.49538049  1
  O  O254  1  0.23327170  0.60829279  0.98414180  1
  O  O255  1  0.75521113  0.13609285  0.49405717  1
  O  O256  1  0.74012689  0.12961441  0.99239582  1
  O  O257  1  0.75417707  0.63245959  0.49106241  1
  O  O258  1  0.73899948  0.62225134  0.99361854  1
  O  O259  1  0.25829076  0.37446694  0.00314130  1
  O  O260  1  0.25462914  0.36472702  0.50612047  1
  O  O261  1  0.24241173  0.88032690  0.01888168  1
  O  O262  1  0.24269323  0.86347368  0.49791594  1
  O  O263  1  0.75056162  0.36567471  0.00456696  1
  O  O264  1  0.75166708  0.35970374  0.50498369  1
  O  O265  1  0.75487384  0.87498166  0.00435874  1
  O  O266  1  0.74689362  0.86847419  0.51121592  1
  O  O267  1  0.12539431  0.50225532  0.23697302  1
  O  O268  1  0.12966546  0.50072124  0.73740053  1
  O  O269  1  0.11116603  0.99784354  0.22871321  1
  O  O270  1  0.14092827  0.99781963  0.74403649  1
  O  O271  1  0.63437768  0.49143438  0.24588843  1
  O  O272  1  0.63037218  0.49058599  0.74001393  1
  O  O273  1  0.62217006  0.98977236  0.24325900  1
  O  O274  1  0.63496294  0.99445476  0.74133778  1
  O  O275  1  0.38035881  -0.00197961  0.26316243  1
  O  O276  1  0.36509023  0.01100334  0.75296131  1
  O  O277  1  0.37468023  0.50225523  0.26490211  1
  O  O278  1  0.36675578  0.49601843  0.75650218  1
  O  O279  1  0.87117671  0.00809387  0.26082452  1
  O  O280  1  0.85985291  0.00833705  0.74220368  1
  O  O281  1  0.86970675  0.50846180  0.25087031  1
  O  O282  1  0.87158619  0.50632073  0.75402503  1
  O  O283  1  0.10663496  0.38195842  0.37276809  1
  O  O284  1  0.11380900  0.36872503  0.87733015  1
  O  O285  1  0.11589889  0.86927434  0.37302469  1
  O  O286  1  0.12402480  0.87562042  0.86236585  1
  O  O287  1  0.62017591  0.36741157  0.36955563  1
  O  O288  1  0.61643872  0.37678850  0.86542027  1
  O  O289  1  0.61580900  0.87014261  0.36471311  1
  O  O290  1  0.62123816  0.86744939  0.86741785  1
  O  O291  1  0.39600601  0.13217021  0.12966110  1
  O  O292  1  0.39185132  0.12131692  0.63388937  1
  O  O293  1  0.39074753  0.60650086  0.14361015  1
  O  O294  1  0.37959641  0.62282576  0.62716857  1
  O  O295  1  0.87770508  0.13179962  0.13636000  1
  O  O296  1  0.88394568  0.13115406  0.63509255  1
  O  O297  1  0.88074271  0.63038541  0.13713820  1
  O  O298  1  0.87711732  0.63251257  0.63356224  1
  O  O299  1  0.24063496  0.26882268  0.11218204  1
  O  O300  1  0.24556199  0.26073211  0.62434408  1
  O  O301  1  0.24917078  0.75801590  0.12044090  1
  O  O302  1  0.26002408  0.74834614  0.61326936  1
  O  O303  1  0.75221134  0.25317754  0.11828841  1
  O  O304  1  0.75628089  0.25117675  0.61986211  1
  O  O305  1  0.76129719  0.75088330  0.12238133  1
  O  O306  1  0.75545838  0.75672134  0.62023888  1
  O  O307  1  0.25124074  0.25081138  0.38493319  1
  O  O308  1  0.24226472  0.25131637  0.88017940  1
  O  O309  1  0.24734853  0.74512601  0.38616015  1
  O  O310  1  0.24996803  0.73571271  0.86826850  1
  O  O311  1  0.74849835  0.24237642  0.38333425  1
  O  O312  1  0.74932803  0.24058240  0.88131490  1
  O  O313  1  0.75020185  0.74136760  0.38511175  1
  O  O314  1  0.73743438  0.74133459  0.87350871  1
  O  O315  1  -0.00129973  0.13454063  0.01823216  1
  O  O316  1  -0.00032157  0.11748343  0.50892043  1
  O  O317  1  0.00711540  0.61788848  0.00416247  1
  O  O318  1  0.01202193  0.61798086  0.50121148  1
  O  O319  1  0.51083030  0.11280748  -0.01103903  1
  O  O320  1  0.49563590  0.12345710  0.51226895  1
  O  O321  1  0.51519255  0.61769486  0.00436985  1
  O  O322  1  0.49939519  0.62069144  0.51873368  1
  O  O323  1  0.49095383  0.37682750  0.49604418  1
  O  O324  1  0.49596880  0.38146753  0.99176279  1
  O  O325  1  0.50505838  0.87639508  0.48365031  1
  O  O326  1  0.50378488  0.88472498  0.98881740  1
  O  O327  1  1.00228716  0.38022826  0.49157220  1
  O  O328  1  0.99717325  0.38112343  0.99288723  1
  O  O329  1  1.00203109  0.87965398  0.49020461  1
  O  O330  1  0.98841572  0.88082116  0.99371579  1
  O  O331  1  0.49376927  0.49115524  0.37946018  1
  O  O332  1  0.49477814  0.49281859  0.87526904  1
  O  O333  1  0.48987174  0.98785003  0.37784604  1
  O  O334  1  0.50589130  0.98701332  0.88641078  1
  O  O335  1  0.99726230  0.49273136  0.38535197  1
  O  O336  1  0.99878440  0.49287125  0.87816266  1
  O  O337  1  0.99136041  0.99172018  0.38145640  1
  O  O338  1  1.00155632  1.00668358  0.87562707  1
  O  O339  1  -0.00715071  0.01691210  0.12614010  1
  O  O340  1  -0.00337697  0.00661505  0.61847717  1
  O  O341  1  0.00468946  0.50631740  0.12064577  1
  O  O342  1  0.00834359  0.49848423  0.61945619  1
  O  O343  1  0.50940081  -0.01038679  0.11173210  1
  O  O344  1  0.50668398  0.00831515  0.62166836  1
  O  O345  1  0.51136113  0.50522211  0.11927599  1
  O  O346  1  0.51142589  0.50743305  0.62279590  1
  O  O347  1  0.24715109  0.37765769  0.24062146  1
  O  O348  1  0.25275292  0.38580395  0.74225681  1
  O  O349  1  0.24287506  0.86992379  0.23164407  1
  O  O350  1  0.24839790  0.89252267  0.75591113  1
  O  O351  1  0.74460869  0.37957632  0.24768060  1
  O  O352  1  0.74403848  0.37965303  0.74594114  1
  O  O353  1  0.73404923  0.87629856  0.25109908  1
  O  O354  1  0.73964648  0.88174966  0.73930127  1
  O  O355  1  0.26139327  0.14308009  0.24161921  1
  O  O356  1  0.25782168  0.11776823  0.75655149  1
  O  O357  1  0.25928276  0.62229917  0.25854740  1
  O  O358  1  0.24258740  0.60957671  0.75803540  1
  O  O359  1  0.75903748  0.12476817  0.25909185  1
  O  O360  1  0.75453099  0.11906215  0.75525583  1
  O  O361  1  0.75756817  0.61900004  0.25675145  1
  O  O362  1  0.75603750  0.61901270  0.75458235  1
  O  O363  1  0.37070637  0.11587687  0.37362865  1
  O  O364  1  0.36472920  0.13159936  0.86752915  1
  O  O365  1  0.37307233  0.61694823  0.37175607  1
  O  O366  1  0.36834578  0.61247955  0.87304638  1
  O  O367  1  0.86595580  0.11630363  0.37108616  1
  O  O368  1  0.86541784  0.13174065  0.86043646  1
  O  O369  1  0.86734442  0.62269997  0.36573300  1
  O  O370  1  0.87107272  0.62046547  0.86735503  1
  O  O371  1  0.12951879  0.38535133  0.12652309  1
  O  O372  1  0.13578431  0.38369557  0.62108398  1
  O  O373  1  0.12954468  0.88614848  0.12758647  1
  O  O374  1  0.12432055  0.87960728  0.63956462  1
  O  O375  1  0.63292760  0.37901593  0.13250165  1
  O  O376  1  0.63116465  0.38181754  0.63103007  1
  O  O377  1  0.62307570  0.87776085  0.13680994  1
  O  O378  1  0.62724448  0.88055817  0.63135258  1
  O  O379  1  0.10912244  0.25319921  0.24513274  1
  O  O380  1  0.11289814  0.24798812  0.75515105  1
  O  O381  1  0.11522512  0.74613239  0.26064420  1
  O  O382  1  0.12022871  0.75827487  0.74766853  1
  O  O383  1  0.63656947  0.25986014  0.26565330  1
  O  O384  1  0.62481127  0.26338615  0.75115845  1
  O  O385  1  0.62636247  0.75900220  0.25270208  1
  O  O386  1  0.62676246  0.76122771  0.75630245  1
  O  O387  1  0.39533406  0.26221290  0.24193671  1
  O  O388  1  0.37511609  0.24007315  0.75040968  1
  O  O389  1  0.37284377  0.73637029  0.24269907  1
  O  O390  1  0.36640118  0.74985503  0.73214039  1
  O  O391  1  0.88110154  0.24291489  0.24702972  1
  O  O392  1  0.88355508  0.24211337  0.74112482  1
  O  O393  1  0.88007771  0.74147167  0.24645738  1
  O  O394  1  0.88146174  0.74334913  0.73885759  1
  O  O395  1  0.37393339  0.48910418  0.48907706  1
  O  O396  1  0.38318348  0.49509936  0.98992454  1
  O  O397  1  0.37561697  0.99916133  0.48092326  1
  O  O398  1  0.39078884  1.00610797  1.00376826  1
  O  O399  1  0.89089561  0.50630552  0.50413835  1
  O  O400  1  0.88250750  0.50092367  0.99284008  1
  O  O401  1  0.88645914  1.00343503  0.49264824  1
  O  O402  1  0.87895632  1.01443690  0.99786074  1
  O  O403  1  0.11680682  0.00242518  0.01993265  1
  O  O404  1  0.11185401  0.00147901  0.50315636  1
  O  O405  1  0.11614081  0.50431771  0.00977770  1
  O  O406  1  0.11834782  0.50587420  0.50945358  1
  O  O407  1  0.62129275  0.00714915  0.00786845  1
  O  O408  1  0.62483342  -0.00226748  0.51224853  1
  O  O409  1  0.62217984  0.50539646  0.00423514  1
  O  O410  1  0.62648567  0.49227882  0.51428509  1
  O  O411  1  0.36610401  0.38712710  0.11368470  1
  O  O412  1  0.36502532  0.38165939  0.61492342  1
  O  O413  1  0.36305071  0.87150376  0.12563977  1
  O  O414  1  0.38129183  0.86740348  0.62835052  1
  O  O415  1  0.86942842  0.36758561  0.12397394  1
  O  O416  1  0.86656727  0.36430832  0.63232779  1
  O  O417  1  0.87413922  0.86280556  0.13512489  1
  O  O418  1  0.86349335  0.86653158  0.63151852  1
  O  O419  1  0.12774635  0.11943230  0.37719638  1
  O  O420  1  0.13848615  0.14058491  0.86918707  1
  O  O421  1  0.13017669  0.62946542  0.38364648  1
  O  O422  1  0.13176907  0.62705419  0.88188509  1
  O  O423  1  0.63770996  0.12892018  0.37127923  1
  O  O424  1  0.63269187  0.12655683  0.88023780  1
  O  O425  1  0.63748729  0.62509245  0.36995140  1
  O  O426  1  0.62571140  0.63023434  0.87929731  1
