# generated using pymatgen
data_V85Zn86O256
_symmetry_space_group_name_H-M   'P 1'
_cell_length_a   16.93961539
_cell_length_b   16.95308467
_cell_length_c   16.94180783
_cell_angle_alpha   90.02594356
_cell_angle_beta   90.02649477
_cell_angle_gamma   89.96504265
_symmetry_Int_Tables_number   1
_chemical_formula_structural   V85Zn86O256
_chemical_formula_sum   'V85 Zn86 O256'
_cell_volume   4865.32499899
_cell_formula_units_Z   1
loop_
 _symmetry_equiv_pos_site_id
 _symmetry_equiv_pos_as_xyz
  1  'x, y, z'
loop_
 _atom_site_type_symbol
 _atom_site_label
 _atom_site_symmetry_multiplicity
 _atom_site_fract_x
 _atom_site_fract_y
 _atom_site_fract_z
 _atom_site_occupancy
  V  V0  1  0.63226201  0.87278864  0.24764894  1
  V  V1  1  0.63375497  0.74470112  0.37370646  1
  V  V2  1  0.63926209  0.49625581  0.62964206  1
  V  V3  1  0.49862571  0.74480132  0.25337001  1
  V  V4  1  -0.00081689  0.87717662  0.37663416  1
  V  V5  1  0.12173784  0.74651245  0.87503815  1
  V  V6  1  0.37873319  0.49976966  0.37502802  1
  V  V7  1  0.13083439  0.87547155  0.74429213  1
  V  V8  1  0.49622336  0.61673329  0.12447611  1
  V  V9  1  0.24939030  0.87514707  0.12800577  1
  V  V10  1  0.12751134  0.75170386  0.37580496  1
  V  V11  1  0.00063474  0.87912953  0.87566941  1
  V  V12  1  0.64056975  0.37338847  0.74962775  1
  V  V13  1  0.50140608  0.01367111  0.50400045  1
  V  V14  1  0.38000991  0.50102758  0.87659867  1
  V  V15  1  0.64432300  0.12395601  0.49730901  1
  V  V16  1  0.25016852  0.25141197  -0.00370757  1
  V  V17  1  0.86843742  0.87624329  0.50748339  1
  V  V18  1  0.24618044  0.50038134  0.75246694  1
  V  V19  1  0.50396760  0.37097228  0.37790529  1
  V  V20  1  0.63370330  -0.00527817  0.12388562  1
  V  V21  1  0.11848350  0.13493107  0.50117502  1
  V  V22  1  0.37643568  0.25094294  0.12465828  1
  V  V23  1  0.25708036  0.12972193  0.87310501  1
  V  V24  1  -0.00685884  0.37981990  0.87943256  1
  V  V25  1  -0.00510565  0.62802517  0.13010444  1
  V  V26  1  -0.01140658  0.50372350  0.00176779  1
  V  V27  1  0.62390272  0.12741607  -0.00637422  1
  V  V28  1  0.86533904  0.75695485  0.12935852  1
  V  V29  1  0.74208985  0.75670517  0.00253092  1
  V  V30  1  0.25294582  0.50573742  0.25019365  1
  V  V31  1  0.12856793  0.62583608  0.49748457  1
  V  V32  1  0.25978533  0.62890255  0.37383543  1
  V  V33  1  0.38137004  0.37921613  -0.00037756  1
  V  V34  1  -0.00173113  0.62926577  0.62470295  1
  V  V35  1  0.12779957  0.12291801  0.00153076  1
  V  V36  1  0.00013602  0.12513884  0.12513990  1
  V  V37  1  0.50074807  0.12276671  0.12455490  1
  V  V38  1  0.37983532  0.12959119  0.74042308  1
  V  V39  1  0.74564780  0.24985352  -0.00335291  1
  V  V40  1  0.43087119  0.79779930  0.68254887  1
  V  V41  1  0.50645626  0.25145379  0.73986663  1
  V  V42  1  0.85638979  0.61109256  0.26594479  1
  V  V43  1  0.24791103  0.74921701  0.00237085  1
  V  V44  1  0.75709604  0.26534719  0.50239236  1
  V  V45  1  0.49963288  -0.00207576  0.00036366  1
  V  V46  1  -0.00459909  0.74834238  0.25357699  1
  V  V47  1  0.75569459  0.61305653  0.87450396  1
  V  V48  1  0.24255039  0.13330826  0.37331017  1
  V  V49  1  0.12273448  0.62543972  0.00044062  1
  V  V50  1  0.37741529  0.87160910  -0.00041023  1
  V  V51  1  0.13230513  0.00135692  0.62085320  1
  V  V52  1  0.50412106  0.37054291  0.87209038  1
  V  V53  1  0.24888174  0.25493219  0.49868425  1
  V  V54  1  0.87511797  0.25166910  0.11933957  1
  V  V55  1  0.86471444  0.00431391  0.37666637  1
  V  V56  1  0.62710515  0.61921913  0.49688940  1
  V  V57  1  0.12545485  0.37150728  0.25272121  1
  V  V58  1  -0.00100498  0.00561317  0.50326532  1
  V  V59  1  0.75498412  0.12632701  0.86403464  1
  V  V60  1  0.37430521  0.87179112  0.50129229  1
  V  V61  1  0.12477606  0.49915738  0.12389223  1
  V  V62  1  0.61868372  0.61777551  -0.00208540  1
  V  V63  1  0.37602791  0.00074389  0.37592854  1
  V  V64  1  -0.00715950  -0.00020309  0.00140409  1
  V  V65  1  0.24883072  0.00004699  0.25182790  1
  V  V66  1  0.62931858  0.37963135  0.25279471  1
  V  V67  1  0.09314913  0.22863594  0.85751422  1
  V  V68  1  0.25531430  0.75261835  0.51508245  1
  V  V69  1  0.86298942  0.12783422  0.25232440  1
  V  V70  1  0.74689927  0.75117347  0.51036473  1
  V  V71  1  0.74950892  0.38450044  0.12657063  1
  V  V72  1  0.11903511  0.37019184  0.75324080  1
  V  V73  1  0.00188381  0.24855140  0.25540827  1
  V  V74  1  0.37554275  0.12535867  0.24979130  1
  V  V75  1  -0.00749911  0.37906776  0.37294773  1
  V  V76  1  0.37581481  -0.00047857  0.87487340  1
  V  V77  1  0.63702366  -0.00609698  0.63493038  1
  V  V78  1  0.37449613  0.74261939  0.13144327  1
  V  V79  1  0.38230906  0.62115334  0.74407730  1
  V  V80  1  0.12406521  0.49664838  0.62201560  1
  V  V81  1  0.82166986  -0.04759530  0.81610041  1
  V  V82  1  0.61770453  0.75100207  0.86129720  1
  V  V83  1  -0.00629288  0.50184932  0.49437941  1
  V  V84  1  0.89672642  0.24173043  0.64069856  1
  Zn  Zn85  1  0.86679486  0.87890828  0.00358523  1
  Zn  Zn86  1  0.86254252  0.61219532  0.74254428  1
  Zn  Zn87  1  0.24983823  0.62444616  0.87535879  1
  Zn  Zn88  1  0.74925926  -0.00151337  0.24922762  1
  Zn  Zn89  1  0.87135754  0.75199447  0.62947755  1
  Zn  Zn90  1  0.25116260  0.37222674  0.62658246  1
  Zn  Zn91  1  0.37787150  0.37476808  0.50269661  1
  Zn  Zn92  1  0.25086889  0.37637161  0.12396631  1
  Zn  Zn93  1  0.86790173  0.38261075  -0.00462896  1
  Zn  Zn94  1  -0.00369222  0.75184050  0.74808108  1
  Zn  Zn95  1  0.50161471  0.87424392  0.37531991  1
  Zn  Zn96  1  0.50266012  0.49798667  0.50365158  1
  Zn  Zn97  1  0.12341010  0.87632890  0.25128013  1
  Zn  Zn98  1  0.12405872  -0.00114119  0.12694864  1
  Zn  Zn99  1  0.50385806  0.24861350  0.25173056  1
  Zn  Zn100  1  0.87272298  0.37967037  0.50698456  1
  Zn  Zn101  1  0.50056436  0.87012335  0.86111887  1
  Zn  Zn102  1  0.63495519  0.24334369  0.37114691  1
  Zn  Zn103  1  0.25285978  -0.00000250  0.74348413  1
  Zn  Zn104  1  0.37807937  0.25303881  0.62121474  1
  Zn  Zn105  1  0.62218738  0.49961122  0.12550946  1
  Zn  Zn106  1  0.50005742  0.62163581  0.62520722  1
  Zn  Zn107  1  0.18802843  0.18930178  0.18552639  1
  Zn  Zn108  1  0.18715792  0.18523181  0.68299089  1
  Zn  Zn109  1  0.18370365  0.68726264  0.19060669  1
  Zn  Zn110  1  0.18299664  0.68293333  0.69059532  1
  Zn  Zn111  1  0.68496904  0.19249953  0.18261763  1
  Zn  Zn112  1  0.68621936  0.18717754  0.67715778  1
  Zn  Zn113  1  0.68494133  0.68371319  0.18630343  1
  Zn  Zn114  1  0.68624117  0.68028442  0.68780304  1
  Zn  Zn115  1  0.31378168  0.31557656  0.31246689  1
  Zn  Zn116  1  0.31410585  0.31439681  0.80930194  1
  Zn  Zn117  1  0.31479461  0.81287617  0.31444975  1
  Zn  Zn118  1  0.30531100  0.81381902  0.81699001  1
  Zn  Zn119  1  0.80882138  0.31609584  0.31600407  1
  Zn  Zn120  1  0.81703667  0.30521152  0.81317786  1
  Zn  Zn121  1  0.81207565  0.81124326  0.31669095  1
  Zn  Zn122  1  0.80926255  0.78702030  0.81225185  1
  Zn  Zn123  1  0.18310375  0.43710137  0.43220602  1
  Zn  Zn124  1  0.18509513  0.43304110  0.93475830  1
  Zn  Zn125  1  0.18951411  0.93812776  0.43991643  1
  Zn  Zn126  1  0.18659103  0.93870684  0.93744690  1
  Zn  Zn127  1  0.69487678  0.44553610  0.42986051  1
  Zn  Zn128  1  0.68302007  0.43683113  0.93807864  1
  Zn  Zn129  1  0.68521069  0.93439227  0.43840019  1
  Zn  Zn130  1  0.67970405  0.93410958  0.93379306  1
  Zn  Zn131  1  0.31257951  0.06126960  0.06272629  1
  Zn  Zn132  1  0.30980160  0.06618404  0.55867493  1
  Zn  Zn133  1  0.31182624  0.56190874  0.06062642  1
  Zn  Zn134  1  0.31259511  0.56024477  0.56248432  1
  Zn  Zn135  1  0.81171341  0.06595081  0.06084467  1
  Zn  Zn136  1  0.81497581  0.06662897  0.57379283  1
  Zn  Zn137  1  0.80886707  0.57279956  0.06573175  1
  Zn  Zn138  1  0.81090213  0.56594405  0.55419352  1
  Zn  Zn139  1  0.43725287  0.43508478  0.19415980  1
  Zn  Zn140  1  0.44138928  0.43709176  0.68277351  1
  Zn  Zn141  1  0.44153569  0.93335119  0.18882866  1
  Zn  Zn142  1  0.44395581  0.95988101  0.68440434  1
  Zn  Zn143  1  0.93567238  0.43701311  0.18584045  1
  Zn  Zn144  1  0.92069283  0.43012880  0.69070965  1
  Zn  Zn145  1  0.93533660  0.93871642  0.18938094  1
  Zn  Zn146  1  0.94652142  0.93775909  0.68326525  1
  Zn  Zn147  1  0.06050932  0.06266652  0.31373005  1
  Zn  Zn148  1  0.06001808  0.05835997  0.80986738  1
  Zn  Zn149  1  0.06294092  0.56437018  0.31196383  1
  Zn  Zn150  1  0.02612175  0.54331542  0.79400574  1
  Zn  Zn151  1  0.56393880  0.06280533  0.31431306  1
  Zn  Zn152  1  0.56279273  0.06457337  0.81154705  1
  Zn  Zn153  1  0.56537370  0.56154910  0.31154575  1
  Zn  Zn154  1  0.56468376  0.55736657  0.81142532  1
  Zn  Zn155  1  0.43475948  0.19108452  0.43444795  1
  Zn  Zn156  1  0.44126636  0.19170250  0.93392555  1
  Zn  Zn157  1  0.44177122  0.68664541  0.44029095  1
  Zn  Zn158  1  0.43822574  0.68516624  0.93654413  1
  Zn  Zn159  1  0.93235858  0.18948102  0.43647934  1
  Zn  Zn160  1  0.93836995  0.17851318  0.92210996  1
  Zn  Zn161  1  0.93437510  0.68873586  0.43972237  1
  Zn  Zn162  1  0.93342301  0.69230518  0.94130333  1
  Zn  Zn163  1  0.06188397  0.31170350  0.05738416  1
  Zn  Zn164  1  0.05765824  0.31364427  0.56358113  1
  Zn  Zn165  1  0.05865923  0.81359567  0.06408670  1
  Zn  Zn166  1  0.06392236  0.81457679  0.56050138  1
  Zn  Zn167  1  0.56251147  0.31325054  0.06267158  1
  Zn  Zn168  1  0.57031887  0.31278368  0.56257685  1
  Zn  Zn169  1  0.56175232  0.80824960  0.06315388  1
  Zn  Zn170  1  0.56551200  0.81909362  0.55632654  1
  O  O171  1  0.11908154  0.12437970  0.11819584  1
  O  O172  1  0.12569572  0.11641233  0.61275037  1
  O  O173  1  0.11702276  0.61860333  0.12205301  1
  O  O174  1  0.12406283  0.61694553  0.61338123  1
  O  O175  1  0.61895541  0.11696475  0.11631487  1
  O  O176  1  0.62699184  0.11426278  0.60441744  1
  O  O177  1  0.61411109  0.62184561  0.11810577  1
  O  O178  1  0.62268724  0.61227710  0.62003466  1
  O  O179  1  0.38439552  0.38224557  0.37675416  1
  O  O180  1  0.38034397  0.38138613  0.88120291  1
  O  O181  1  0.37652624  0.88504818  0.38289612  1
  O  O182  1  0.37646915  0.88047573  0.88268312  1
  O  O183  1  0.88994656  0.37381521  0.37542387  1
  O  O184  1  0.88828516  0.37323191  0.87758243  1
  O  O185  1  0.88194979  0.88249944  0.38307784  1
  O  O186  1  0.88006210  0.88053543  0.87503057  1
  O  O187  1  0.26021433  0.00794354  0.37355904  1
  O  O188  1  0.26313314  0.00703779  0.87710597  1
  O  O189  1  0.25457238  0.50767964  0.36861998  1
  O  O190  1  0.25653275  0.49990278  0.86822121  1
  O  O191  1  0.76203191  -0.00478707  0.37261126  1
  O  O192  1  0.74963669  0.00651100  0.87419725  1
  O  O193  1  0.76640173  0.49778870  0.36523559  1
  O  O194  1  0.74901917  0.51461720  0.88528082  1
  O  O195  1  0.24400998  0.50002198  0.13321787  1
  O  O196  1  0.23805862  0.49842600  0.63140415  1
  O  O197  1  0.25109842  0.99057225  0.13134742  1
  O  O198  1  0.23765211  1.00230076  0.62250897  1
  O  O199  1  0.74928580  0.48710009  0.11707516  1
  O  O200  1  0.73897559  0.50485716  0.62333416  1
  O  O201  1  0.73693797  1.00240818  0.12503095  1
  O  O202  1  0.73779703  1.00251650  0.62504396  1
  O  O203  1  0.00520858  0.36949090  0.25222170  1
  O  O204  1  0.01286937  0.37559413  0.76400319  1
  O  O205  1  -0.00159634  0.87015980  0.26295600  1
  O  O206  1  0.01126287  0.87332021  0.75880684  1
  O  O207  1  0.50694971  0.37177840  0.26087811  1
  O  O208  1  0.50622890  0.36814900  0.75569147  1
  O  O209  1  0.50863833  0.86202419  0.25127105  1
  O  O210  1  0.48255433  0.86356221  0.74224231  1
  O  O211  1  0.49313635  0.12545619  0.24347836  1
  O  O212  1  0.49173421  0.13899983  0.75923767  1
  O  O213  1  0.50588140  0.63757816  0.24187012  1
  O  O214  1  0.48563091  0.62044291  0.75145758  1
  O  O215  1  0.99491586  0.13265179  0.24408886  1
  O  O216  1  1.01602164  0.16045794  0.82168555  1
  O  O217  1  0.99674603  0.63336213  0.24645264  1
  O  O218  1  1.02320090  0.63626342  0.72770958  1
  O  O219  1  0.37106785  0.25634899  0.00585036  1
  O  O220  1  0.36374317  0.25159888  0.50103441  1
  O  O221  1  0.36885399  0.75576952  0.00656810  1
  O  O222  1  0.36910338  0.75957149  0.49530457  1
  O  O223  1  0.86760809  0.24646749  0.01113099  1
  O  O224  1  0.86681366  0.25610326  0.50057063  1
  O  O225  1  0.86295754  0.75337753  0.01081979  1
  O  O226  1  0.86363730  0.75873547  0.49947874  1
  O  O227  1  0.12911797  0.24045921  0.50199473  1
  O  O228  1  0.13430166  0.24086799  0.99363053  1
  O  O229  1  0.13482264  0.74737954  0.49307020  1
  O  O230  1  0.12805422  0.74696795  0.99567146  1
  O  O231  1  0.63795250  0.23837403  0.50099898  1
  O  O232  1  0.63265065  0.23935557  1.00597814  1
  O  O233  1  0.62919850  0.74488143  0.49281680  1
  O  O234  1  0.62810881  0.73980571  0.99763022  1
  O  O235  1  0.48903429  0.24342611  0.12446383  1
  O  O236  1  0.49920766  0.25471298  0.63523741  1
  O  O237  1  0.49091148  0.74258881  0.13248095  1
  O  O238  1  0.49911465  0.74763215  0.62531639  1
  O  O239  1  0.99171313  0.24713503  0.12971890  1
  O  O240  1  0.99792812  0.24504721  0.62969366  1
  O  O241  1  0.99210658  0.74679876  0.13363822  1
  O  O242  1  0.99784563  0.74207610  0.61906015  1
  O  O243  1  -0.00251623  0.25669680  0.36008266  1
  O  O244  1  0.00627650  0.27152009  0.91046110  1
  O  O245  1  0.00487491  0.75849377  0.37408883  1
  O  O246  1  0.00479252  0.76201740  0.87788072  1
  O  O247  1  0.50291431  0.25851936  0.37233757  1
  O  O248  1  0.49655531  0.26416509  0.86387867  1
  O  O249  1  0.50813736  0.75045254  0.36753619  1
  O  O250  1  0.51250824  0.74939474  0.87714354  1
  O  O251  1  0.24256902  0.13553196  0.49159469  1
  O  O252  1  0.25000692  0.13100312  0.99419166  1
  O  O253  1  0.24828670  0.63272397  0.49211683  1
  O  O254  1  0.24033265  0.63129936  0.99927303  1
  O  O255  1  0.74427379  0.12096111  0.49353519  1
  O  O256  1  0.74135196  0.13079716  0.99567727  1
  O  O257  1  0.73680938  0.63490740  0.49985274  1
  O  O258  1  0.73864390  0.63379535  0.99429543  1
  O  O259  1  0.25973553  0.36763132  0.00053987  1
  O  O260  1  0.24446043  0.36195945  0.49447872  1
  O  O261  1  0.25928280  0.87165794  0.00718632  1
  O  O262  1  0.26454376  0.86918511  0.49761018  1
  O  O263  1  0.74895134  0.36652692  0.00405221  1
  O  O264  1  0.74967310  0.36772896  0.50259549  1
  O  O265  1  0.74756992  0.86164032  -0.00508279  1
  O  O266  1  0.75822941  0.86669105  0.49572273  1
  O  O267  1  0.13001294  0.49556347  0.23954430  1
  O  O268  1  0.12764896  0.49255346  0.74294991  1
  O  O269  1  0.13340767  0.99745326  0.24890897  1
  O  O270  1  0.12393166  0.99634450  0.73940941  1
  O  O271  1  0.62044980  0.48501875  0.24537844  1
  O  O272  1  0.62517464  0.48869565  0.73911688  1
  O  O273  1  0.62436834  0.99201259  0.24271210  1
  O  O274  1  0.61541748  1.00227772  0.73379372  1
  O  O275  1  0.37086440  0.00291634  0.25773710  1
  O  O276  1  0.37414229  0.00970585  0.75833548  1
  O  O277  1  0.36444674  0.49582807  0.26245999  1
  O  O278  1  0.36527688  0.50399812  0.75618259  1
  O  O279  1  0.87249586  0.00912471  0.25708139  1
  O  O280  1  0.88290594  0.00172380  0.75401728  1
  O  O281  1  0.87934916  0.51505272  0.24462390  1
  O  O282  1  0.91783621  0.51512548  0.75781992  1
  O  O283  1  0.11594909  0.37816876  0.35774934  1
  O  O284  1  0.11866003  0.36144501  0.86905686  1
  O  O285  1  0.11732470  0.87096787  0.37639464  1
  O  O286  1  0.11893210  0.86688356  0.87192166  1
  O  O287  1  0.62044419  0.37265296  0.36904093  1
  O  O288  1  0.61556572  0.38308747  0.86153366  1
  O  O289  1  0.62067032  0.86654737  0.36693302  1
  O  O290  1  0.61793224  0.85752811  0.87563106  1
  O  O291  1  0.37913222  0.13123208  0.12942102  1
  O  O292  1  0.37209585  0.12420620  0.63764506  1
  O  O293  1  0.37821362  0.63633979  0.12012299  1
  O  O294  1  0.37753537  0.61912172  0.63560062  1
  O  O295  1  0.88063633  0.13202321  0.13184404  1
  O  O296  1  0.88324130  0.14186077  0.61714015  1
  O  O297  1  0.87842629  0.63726936  0.13429035  1
  O  O298  1  0.88606303  0.62601466  0.62145755  1
  O  O299  1  0.26161879  0.25111398  0.11693248  1
  O  O300  1  0.25156134  0.25143396  0.61319238  1
  O  O301  1  0.25581629  0.75462993  0.12412141  1
  O  O302  1  0.24524752  0.74511944  0.61360620  1
  O  O303  1  0.75651819  0.25683709  0.11453736  1
  O  O304  1  0.75705220  0.24113592  0.60509917  1
  O  O305  1  0.75402389  0.74507565  0.11636479  1
  O  O306  1  0.74837375  0.74697910  0.61465006  1
  O  O307  1  0.25385824  0.24025097  0.37837857  1
  O  O308  1  0.25757885  0.24103014  0.88153815  1
  O  O309  1  0.24754468  0.74307145  0.37837751  1
  O  O310  1  0.24015726  0.74812423  0.88508026  1
  O  O311  1  0.75150870  0.25164421  0.39286649  1
  O  O312  1  0.75352863  0.23987457  0.88783831  1
  O  O313  1  0.73737487  0.75320069  0.38380252  1
  O  O314  1  0.73396495  0.73986201  0.88457224  1
  O  O315  1  0.00486635  0.11673340  0.00386689  1
  O  O316  1  0.00946151  0.11750552  0.48691187  1
  O  O317  1  0.00403769  0.62249153  0.00806886  1
  O  O318  1  0.00765951  0.62014097  0.50346041  1
  O  O319  1  0.50554399  0.12016747  0.00250974  1
  O  O320  1  0.49620651  0.11420048  0.49623647  1
  O  O321  1  0.50618213  0.63062871  0.01152131  1
  O  O322  1  0.51347749  0.62219823  0.50249923  1
  O  O323  1  0.50340772  0.37550521  0.48863573  1
  O  O324  1  0.48931111  0.36953619  0.99119600  1
  O  O325  1  0.48834399  0.88634571  0.49643473  1
  O  O326  1  0.48640943  0.87694143  1.00329741  1
  O  O327  1  1.00563741  0.38480758  0.48839965  1
  O  O328  1  0.99633244  0.39004662  1.00108980  1
  O  O329  1  0.99482917  0.88257766  0.48976044  1
  O  O330  1  0.99623994  0.88192587  0.99428623  1
  O  O331  1  0.49261829  0.49387721  0.37541672  1
  O  O332  1  0.48635024  0.48934140  0.86865241  1
  O  O333  1  0.48843320  0.99972151  0.38152594  1
  O  O334  1  0.49024563  0.99436957  0.87958629  1
  O  O335  1  1.00912278  0.49322542  0.38354051  1
  O  O336  1  1.01834450  0.49007266  0.89430396  1
  O  O337  1  0.99298475  0.99307367  0.38180835  1
  O  O338  1  1.00687107  0.98643610  0.88532193  1
  O  O339  1  0.00291471  0.00483101  0.12002525  1
  O  O340  1  0.01026282  -0.00133400  0.60814518  1
  O  O341  1  0.00753614  0.50651404  0.11990005  1
  O  O342  1  0.01346826  0.50738221  0.61300389  1
  O  O343  1  0.50432574  0.00489194  0.11885992  1
  O  O344  1  0.50969167  0.00554808  0.60763425  1
  O  O345  1  0.49264438  0.51405794  0.13131244  1
  O  O346  1  0.51416919  0.50069412  0.62151819  1
  O  O347  1  0.24230506  0.38525131  0.24866771  1
  O  O348  1  0.23939450  0.38585652  0.75229491  1
  O  O349  1  0.25029461  0.88039698  0.24350156  1
  O  O350  1  0.23568964  0.88249545  0.75700656  1
  O  O351  1  0.74280907  0.36855089  0.23833179  1
  O  O352  1  0.73877648  0.37215812  0.76044579  1
  O  O353  1  0.73633937  0.87436205  0.25225620  1
  O  O354  1  0.76885361  0.88597026  0.76453616  1
  O  O355  1  0.25402723  0.12085029  0.25574979  1
  O  O356  1  0.25898172  0.12377993  0.75841457  1
  O  O357  1  0.24524817  0.61393446  0.25782118  1
  O  O358  1  0.25280821  0.61243833  0.75306196  1
  O  O359  1  0.76026547  0.12571722  0.24384160  1
  O  O360  1  0.73830333  0.13329248  0.76638483  1
  O  O361  1  0.75758126  0.62468328  0.25054059  1
  O  O362  1  0.74781236  0.62318287  0.76816003  1
  O  O363  1  0.36638565  0.11880622  0.36863081  1
  O  O364  1  0.37135140  0.11848793  0.87115298  1
  O  O365  1  0.36572214  0.61936553  0.37762962  1
  O  O366  1  0.37174652  0.61646970  0.86988713  1
  O  O367  1  0.88113946  0.11609430  0.36344809  1
  O  O368  1  0.85408081  0.11743713  0.87800963  1
  O  O369  1  0.87698736  0.62734020  0.36350250  1
  O  O370  1  0.85748391  0.63120872  0.88087883  1
  O  O371  1  0.12600090  0.38317992  0.13160713  1
  O  O372  1  0.12558056  0.38137251  0.63369113  1
  O  O373  1  0.13905766  0.87322654  0.12603285  1
  O  O374  1  0.11994601  0.88471145  0.63336319  1
  O  O375  1  0.63145903  0.37680394  0.13050461  1
  O  O376  1  0.62766875  0.38523999  0.63644365  1
  O  O377  1  0.61676171  0.88386733  0.13285117  1
  O  O378  1  0.62406238  0.89497923  0.61497080  1
  O  O379  1  0.11526489  0.25985016  0.24046292  1
  O  O380  1  0.13355474  0.25560604  0.75890470  1
  O  O381  1  0.11571897  0.75339748  0.25804643  1
  O  O382  1  0.12619276  0.75886077  0.75923168  1
  O  O383  1  0.62344279  0.26065407  0.25103631  1
  O  O384  1  0.62112444  0.26406067  0.74172988  1
  O  O385  1  0.62014923  0.75413955  0.25545233  1
  O  O386  1  0.62557355  0.74491387  0.76276146  1
  O  O387  1  0.37480889  0.24554419  0.23995214  1
  O  O388  1  0.38232194  0.24460547  0.74662323  1
  O  O389  1  0.38333630  0.75422115  0.24160515  1
  O  O390  1  0.36829140  0.74266962  0.74635958  1
  O  O391  1  0.88016762  0.24516800  0.24060849  1
  O  O392  1  0.87839423  0.24622518  0.74027934  1
  O  O393  1  0.87736458  0.74382290  0.24742632  1
  O  O394  1  0.88060889  0.73361621  0.74560132  1
  O  O395  1  0.37438150  0.49734029  0.48653734  1
  O  O396  1  0.36909590  0.48981963  0.99094489  1
  O  O397  1  0.38180955  0.99728511  0.49577337  1
  O  O398  1  0.37928966  0.99196795  0.99470864  1
  O  O399  1  0.88992749  0.49825524  0.50425791  1
  O  O400  1  0.88578512  0.50517628  1.00647822  1
  O  O401  1  0.88105457  0.99662368  0.49496716  1
  O  O402  1  0.88735565  0.99729529  1.00782330  1
  O  O403  1  0.11717648  0.00563365  0.00344411  1
  O  O404  1  0.11935329  0.00746904  0.50329087  1
  O  O405  1  0.12456666  0.50411971  0.01216887  1
  O  O406  1  0.12251066  0.50519001  0.50536737  1
  O  O407  1  0.61764308  0.00296173  0.00646762  1
  O  O408  1  0.61526534  0.00899164  0.49545675  1
  O  O409  1  0.62250542  0.51332849  0.00273571  1
  O  O410  1  0.62811750  0.50427790  0.50772413  1
  O  O411  1  0.37595961  0.36843477  0.11792898  1
  O  O412  1  0.36875770  0.37473799  0.62045292  1
  O  O413  1  0.36628684  0.86626345  0.12044387  1
  O  O414  1  0.38230210  0.86858218  0.62331043  1
  O  O415  1  0.86746886  0.36742872  0.12138471  1
  O  O416  1  0.88444995  0.35529518  0.62053442  1
  O  O417  1  0.87677804  0.86114008  0.12774563  1
  O  O418  1  0.88380021  0.87359466  0.61027761  1
  O  O419  1  0.13615274  0.11876540  0.38282596  1
  O  O420  1  0.14459965  0.12517927  0.88199262  1
  O  O421  1  0.13694487  0.63030621  0.37926161  1
  O  O422  1  0.12151900  0.63965420  0.88055439  1
  O  O423  1  0.61872322  0.12669384  0.39183493  1
  O  O424  1  0.63184479  0.11698004  0.88920804  1
  O  O425  1  0.62091442  0.63261512  0.38246494  1
  O  O426  1  0.62656710  0.62975041  0.88126399  1
