# generated using pymatgen
data_V85Zn86O256
_symmetry_space_group_name_H-M   'P 1'
_cell_length_a   16.90733137
_cell_length_b   16.90906615
_cell_length_c   16.90595733
_cell_angle_alpha   89.94618508
_cell_angle_beta   89.96866193
_cell_angle_gamma   89.99598433
_symmetry_Int_Tables_number   1
_chemical_formula_structural   V85Zn86O256
_chemical_formula_sum   'V85 Zn86 O256'
_cell_volume   4833.19367807
_cell_formula_units_Z   1
loop_
 _symmetry_equiv_pos_site_id
 _symmetry_equiv_pos_as_xyz
  1  'x, y, z'
loop_
 _atom_site_type_symbol
 _atom_site_label
 _atom_site_symmetry_multiplicity
 _atom_site_fract_x
 _atom_site_fract_y
 _atom_site_fract_z
 _atom_site_occupancy
  V  V0  1  0.37905262  0.25060991  0.13354121  1
  V  V1  1  0.49706816  0.75091855  0.74938232  1
  V  V2  1  -0.00598488  0.24595773  0.75299322  1
  V  V3  1  0.00117313  0.62867909  0.63523180  1
  V  V4  1  0.12563713  0.62216938  0.50249291  1
  V  V5  1  0.24128815  0.12473197  0.37440156  1
  V  V6  1  0.88476968  0.62141211  0.24576123  1
  V  V7  1  0.49814397  -0.00241529  0.00071146  1
  V  V8  1  0.75572384  0.24870435  0.00167459  1
  V  V9  1  0.74435065  0.62444005  0.87786287  1
  V  V10  1  0.75113996  0.49968223  0.24897319  1
  V  V11  1  0.24898394  0.37546097  0.12718186  1
  V  V12  1  0.74653351  0.87342842  0.13091713  1
  V  V13  1  0.24960772  0.01467343  0.74799347  1
  V  V14  1  0.12533991  0.00047046  0.12984452  1
  V  V15  1  -0.00192092  -0.00265219  -0.00203555  1
  V  V16  1  0.49694308  0.87990499  0.87560025  1
  V  V17  1  0.12098822  0.12968469  0.50265718  1
  V  V18  1  0.00064505  0.86911075  0.86853522  1
  V  V19  1  0.49397907  0.01065420  0.49213642  1
  V  V20  1  0.49745427  0.37645338  0.87258030  1
  V  V21  1  0.62536705  0.12434200  0.00696368  1
  V  V22  1  0.62879463  0.50990750  0.12073056  1
  V  V23  1  0.61652816  0.37317450  0.24886347  1
  V  V24  1  -0.01282581  0.12722232  0.12849773  1
  V  V25  1  0.26217654  0.62011726  0.37483358  1
  V  V26  1  0.00485898  0.36688412  0.38040192  1
  V  V27  1  0.62781836  0.75855397  0.36848050  1
  V  V28  1  0.12488978  0.88289343  0.74604348  1
  V  V29  1  0.37246812  0.38170648  0.49672814  1
  V  V30  1  0.25988365  0.50056720  0.25589133  1
  V  V31  1  0.00186459  0.49776385  0.50435131  1
  V  V32  1  0.25171659  0.24545545  -0.00015509  1
  V  V33  1  -0.01442453  0.24477527  0.25075776  1
  V  V34  1  -0.00490627  0.87150393  0.37829825  1
  V  V35  1  0.88156416  0.37554243  0.00293071  1
  V  V36  1  0.00425836  0.37408959  0.87309704  1
  V  V37  1  0.75188480  0.87689416  0.61569210  1
  V  V38  1  0.13793026  0.74813088  0.86946654  1
  V  V39  1  0.61882097  0.00920113  0.62000993  1
  V  V40  1  0.13055250  0.24971978  0.86846398  1
  V  V41  1  0.75170571  0.62497998  0.37406279  1
  V  V42  1  0.75458571  0.13018028  0.37014849  1
  V  V43  1  0.12663659  0.12569268  -0.00167930  1
  V  V44  1  0.37477120  0.87936116  0.48444885  1
  V  V45  1  0.87588549  0.49935562  0.87747070  1
  V  V46  1  0.62619544  0.62563272  0.49823083  1
  V  V47  1  0.39726512  0.13049482  0.75155661  1
  V  V48  1  0.10965417  0.50251529  0.12453025  1
  V  V49  1  0.61477150  0.25222434  0.37345783  1
  V  V50  1  0.12516567  0.74662827  0.37409912  1
  V  V51  1  0.12576087  0.36505626  0.25489041  1
  V  V52  1  0.87644134  0.00361007  0.36848288  1
  V  V53  1  0.00549869  0.74696638  0.24271475  1
  V  V54  1  0.62006892  0.25234769  0.87754374  1
  V  V55  1  0.49826027  0.62300295  0.62360838  1
  V  V56  1  -0.00081428  -0.00478100  0.50277926  1
  V  V57  1  0.50352632  0.50734916  -0.00188949  1
  V  V58  1  0.49993947  0.12843070  0.13271489  1
  V  V59  1  0.87136520  0.24204951  0.62929983  1
  V  V60  1  0.36584481  0.62595406  0.75401737  1
  V  V61  1  0.87825112  0.49861662  0.37745936  1
  V  V62  1  0.24643722  0.37022006  0.63726585  1
  V  V63  1  0.37242252  0.00572943  0.87642827  1
  V  V64  1  0.62582615  0.87487108  0.74414529  1
  V  V65  1  0.12183734  0.49478926  0.64336015  1
  V  V66  1  0.75056836  0.37601658  0.62525422  1
  V  V67  1  0.87453225  0.63243222  0.75208162  1
  V  V68  1  0.62275563  0.74782811  0.87535115  1
  V  V69  1  0.87792546  0.75396188  0.61833097  1
  V  V70  1  -0.00105837  0.11662271  0.63113674  1
  V  V71  1  0.74495142  0.74839493  -0.00173770  1
  V  V72  1  0.37356260  0.75255386  0.12281340  1
  V  V73  1  0.50099857  0.75401790  0.24815579  1
  V  V74  1  0.37288690  0.75356506  0.62294731  1
  V  V75  1  0.24792283  0.88697898  0.62168372  1
  V  V76  1  0.36561272  0.50406424  0.87877211  1
  V  V77  1  0.25334525  0.87609007  0.11715062  1
  V  V78  1  0.24919496  0.75185376  0.49809002  1
  V  V79  1  0.75236026  0.36991164  0.12544446  1
  V  V80  1  0.37790457  0.11885718  0.25984176  1
  V  V81  1  0.62015301  0.37364373  0.74802382  1
  V  V82  1  0.49189465  0.62505214  0.12858038  1
  V  V83  1  0.38826398  0.24771411  0.62601460  1
  V  V84  1  0.88232340  0.74562777  0.11843801  1
  Zn  Zn85  1  0.87647941  0.00722352  0.86259359  1
  Zn  Zn86  1  0.25774688  0.74304667  -0.00597317  1
  Zn  Zn87  1  0.87433218  0.37355419  0.50394627  1
  Zn  Zn88  1  0.87448915  0.87302817  -0.00703672  1
  Zn  Zn89  1  0.61868963  -0.01059857  0.13380947  1
  Zn  Zn90  1  0.24503423  0.25097917  0.50047863  1
  Zn  Zn91  1  0.62313168  0.12983314  0.49922928  1
  Zn  Zn92  1  0.62351311  0.50017435  0.62380372  1
  Zn  Zn93  1  0.75629585  0.12242088  0.87079311  1
  Zn  Zn94  1  0.74713824  0.50119349  0.74949453  1
  Zn  Zn95  1  0.75481819  0.75338548  0.49557443  1
  Zn  Zn96  1  0.12720526  0.87380588  0.24930723  1
  Zn  Zn97  1  0.50357733  0.88267056  0.36614534  1
  Zn  Zn98  1  0.24119804  0.50013877  0.75989088  1
  Zn  Zn99  1  0.49265031  0.50568466  0.48703345  1
  Zn  Zn100  1  0.75659821  0.00825918  0.74668447  1
  Zn  Zn101  1  0.74818710  0.24863003  0.50078422  1
  Zn  Zn102  1  0.74903598  0.00224482  0.24918960  1
  Zn  Zn103  1  0.25606223  -0.00712057  0.25748461  1
  Zn  Zn104  1  0.12281597  0.62144448  0.00396752  1
  Zn  Zn105  1  0.37694315  0.37434324  0.00180664  1
  Zn  Zn106  1  0.48959545  0.38071934  0.36700378  1
  Zn  Zn107  1  0.18581377  0.18559606  0.18898949  1
  Zn  Zn108  1  0.18504356  0.18623442  0.68440226  1
  Zn  Zn109  1  0.19121470  0.68025381  0.18253020  1
  Zn  Zn110  1  0.18496779  0.69295321  0.68933711  1
  Zn  Zn111  1  0.68975544  0.18782484  0.19156913  1
  Zn  Zn112  1  0.68182454  0.19031723  0.68983307  1
  Zn  Zn113  1  0.68949906  0.68802611  0.18804823  1
  Zn  Zn114  1  0.68931968  0.69006117  0.68625817  1
  Zn  Zn115  1  0.30841173  0.30431480  0.31523625  1
  Zn  Zn116  1  0.31537600  0.30957556  0.81342916  1
  Zn  Zn117  1  0.31225925  0.80682723  0.30285938  1
  Zn  Zn118  1  0.31367915  0.82243078  0.80823368  1
  Zn  Zn119  1  0.81089592  0.31388524  0.31544964  1
  Zn  Zn120  1  0.80968958  0.30920959  0.81221521  1
  Zn  Zn121  1  0.81925716  0.81036626  0.31147105  1
  Zn  Zn122  1  0.81274431  0.81704450  0.80752110  1
  Zn  Zn123  1  0.18734840  0.43564537  0.44296319  1
  Zn  Zn124  1  0.18587761  0.43289221  0.94325873  1
  Zn  Zn125  1  0.18141352  0.94213514  0.43551815  1
  Zn  Zn126  1  0.18915833  0.93781184  0.93627652  1
  Zn  Zn127  1  0.68409878  0.43865564  0.43826424  1
  Zn  Zn128  1  0.68843189  0.43791545  0.93885007  1
  Zn  Zn129  1  0.68813287  0.94261891  0.43672809  1
  Zn  Zn130  1  0.68806814  0.93755032  0.93853624  1
  Zn  Zn131  1  0.31409308  0.06281448  0.06535362  1
  Zn  Zn132  1  0.31542303  0.06760900  0.56146113  1
  Zn  Zn133  1  0.30718556  0.56424512  0.06089647  1
  Zn  Zn134  1  0.30696473  0.56126298  0.56911324  1
  Zn  Zn135  1  0.81358697  0.05916792  0.05690413  1
  Zn  Zn136  1  0.81371867  0.06048165  0.55651113  1
  Zn  Zn137  1  0.81635838  0.56230756  0.05958839  1
  Zn  Zn138  1  0.81221216  0.56183786  0.56357923  1
  Zn  Zn139  1  0.43691212  0.44031337  0.18580328  1
  Zn  Zn140  1  0.43365713  0.43909051  0.68835090  1
  Zn  Zn141  1  0.43652602  0.93622478  0.18690935  1
  Zn  Zn142  1  0.43697418  0.94167530  0.68251193  1
  Zn  Zn143  1  0.93650766  0.42950310  0.19125726  1
  Zn  Zn144  1  0.93529581  0.43574820  0.69472541  1
  Zn  Zn145  1  0.93665531  0.93214452  0.18639932  1
  Zn  Zn146  1  0.93483824  0.93716587  0.68869743  1
  Zn  Zn147  1  0.06236081  0.06376175  0.31423953  1
  Zn  Zn148  1  0.06257478  0.06282657  0.81440944  1
  Zn  Zn149  1  0.06888763  0.55708798  0.31233154  1
  Zn  Zn150  1  0.05026042  0.57676719  0.83942039  1
  Zn  Zn151  1  0.56988907  0.06228156  0.31052585  1
  Zn  Zn152  1  0.58821848  0.07124633  0.80565839  1
  Zn  Zn153  1  0.55953049  0.56342112  0.31120039  1
  Zn  Zn154  1  0.55993557  0.56169252  0.80987053  1
  Zn  Zn155  1  0.43388668  0.19351658  0.43645649  1
  Zn  Zn156  1  0.43828825  0.18624246  0.94113974  1
  Zn  Zn157  1  0.44014273  0.69232254  0.43569363  1
  Zn  Zn158  1  0.43772523  0.68630806  0.93961936  1
  Zn  Zn159  1  0.93474362  0.18690419  0.44154757  1
  Zn  Zn160  1  0.93791826  0.18641727  0.94012245  1
  Zn  Zn161  1  0.94047984  0.68430342  0.43927428  1
  Zn  Zn162  1  0.94536568  0.68770058  0.93749870  1
  Zn  Zn163  1  0.06220411  0.31064734  0.06562044  1
  Zn  Zn164  1  0.06220546  0.31013763  0.56930748  1
  Zn  Zn165  1  0.06789663  0.81258073  0.05677243  1
  Zn  Zn166  1  0.06397864  0.81302439  0.56514156  1
  Zn  Zn167  1  0.56257295  0.31651803  0.06261540  1
  Zn  Zn168  1  0.56078630  0.31568794  0.55776528  1
  Zn  Zn169  1  0.56282831  0.81051441  0.05920301  1
  Zn  Zn170  1  0.56051137  0.81408305  0.55640951  1
  O  O171  1  0.11934296  0.11822855  0.11712937  1
  O  O172  1  0.10964631  0.12595665  0.61910971  1
  O  O173  1  0.11955221  0.60697769  0.12953434  1
  O  O174  1  0.11741532  0.61995329  0.62482977  1
  O  O175  1  0.61731400  0.12950237  0.11933549  1
  O  O176  1  0.62493299  0.11245778  0.62003689  1
  O  O177  1  0.62144375  0.61392854  0.12677116  1
  O  O178  1  0.61697221  0.62770595  0.61768402  1
  O  O179  1  0.37000526  0.36542662  0.39328516  1
  O  O180  1  0.38277255  0.38167265  0.87784875  1
  O  O181  1  0.37256626  0.87053866  0.38228079  1
  O  O182  1  0.38976182  0.88813734  0.86738875  1
  O  O183  1  0.88647362  0.38106860  0.37793917  1
  O  O184  1  0.87724595  0.38017745  0.88097905  1
  O  O185  1  0.88894380  0.87704653  0.37487927  1
  O  O186  1  0.88712723  0.87511577  0.87257793  1
  O  O187  1  0.24750696  0.01551443  0.37446358  1
  O  O188  1  0.26614539  -0.00466904  0.86695588  1
  O  O189  1  0.24245598  0.50428465  0.36461921  1
  O  O190  1  0.26102190  0.49247297  0.87775644  1
  O  O191  1  0.76021989  0.00680927  0.37514426  1
  O  O192  1  0.75202206  0.00003693  0.87172080  1
  O  O193  1  0.75744950  0.50428374  0.36993335  1
  O  O194  1  0.75557960  0.50795859  0.87398045  1
  O  O195  1  0.24784042  0.48813438  0.13783153  1
  O  O196  1  0.23786096  0.49197086  0.63193815  1
  O  O197  1  0.24268989  0.99433056  0.12606060  1
  O  O198  1  0.25630846  0.99662517  0.63203840  1
  O  O199  1  0.74483808  0.49391639  0.12588078  1
  O  O200  1  0.74686263  0.49159844  0.62890279  1
  O  O201  1  0.75598432  0.98127561  0.12260744  1
  O  O202  1  0.73985592  0.99306164  0.62231690  1
  O  O203  1  0.00562111  0.36337669  0.25839477  1
  O  O204  1  -0.00397312  0.35730561  0.75856522  1
  O  O205  1  0.00360387  0.86236781  0.25605824  1
  O  O206  1  0.01453113  0.88393709  0.75447668  1
  O  O207  1  0.51284199  0.37748970  0.24501535  1
  O  O208  1  0.50388348  0.38163208  0.76379696  1
  O  O209  1  0.49843099  0.86156307  0.24938751  1
  O  O210  1  0.50260008  0.86901242  0.75359936  1
  O  O211  1  0.49357045  0.12319785  0.24044168  1
  O  O212  1  0.49550642  0.12400835  0.75043800  1
  O  O213  1  0.50669146  0.63637028  0.23764643  1
  O  O214  1  0.49123999  0.63187305  0.74232567  1
  O  O215  1  1.00387827  0.13785754  0.24562141  1
  O  O216  1  1.00466005  0.13433284  0.74396777  1
  O  O217  1  0.99084751  0.62797237  0.25630535  1
  O  O218  1  0.99106378  0.62093585  0.74197243  1
  O  O219  1  0.36706763  0.24903907  0.01091839  1
  O  O220  1  0.37207634  0.25725174  0.51434627  1
  O  O221  1  0.37723956  0.74670026  0.01528089  1
  O  O222  1  0.36895954  0.76020050  0.50302785  1
  O  O223  1  0.86201941  0.25916868  -0.00223022  1
  O  O224  1  0.87308587  0.25387960  0.51550006  1
  O  O225  1  0.87108838  0.74690624  0.00394327  1
  O  O226  1  0.87399057  0.74201659  0.51345435  1
  O  O227  1  0.12255454  0.23560385  0.50480137  1
  O  O228  1  0.13123453  0.24335912  0.99630439  1
  O  O229  1  0.13114959  0.74298653  0.49562222  1
  O  O230  1  0.12643518  0.74925937  0.97962842  1
  O  O231  1  0.62628502  0.25111437  0.48994788  1
  O  O232  1  0.63489004  0.24880452  0.99808868  1
  O  O233  1  0.62557125  0.73924344  0.49055613  1
  O  O234  1  0.63655143  0.74989001  0.99216349  1
  O  O235  1  0.49041192  0.24264412  0.11878862  1
  O  O236  1  0.48688007  0.25566504  0.62636345  1
  O  O237  1  0.49772604  0.74362767  0.12764531  1
  O  O238  1  0.49324243  0.74287908  0.62747999  1
  O  O239  1  1.00323959  0.24176714  0.13931973  1
  O  O240  1  0.99168974  0.24311749  0.63546223  1
  O  O241  1  0.99595380  0.75207198  0.12982098  1
  O  O242  1  0.99362832  0.74015905  0.62333610  1
  O  O243  1  -0.00477509  0.25539325  0.36531087  1
  O  O244  1  0.00563665  0.25474230  0.87100816  1
  O  O245  1  0.00464159  0.75296890  0.36866066  1
  O  O246  1  0.01344667  0.76515660  0.87069214  1
  O  O247  1  0.51036361  0.25883485  0.37662947  1
  O  O248  1  0.51055381  0.26229612  0.88789980  1
  O  O249  1  0.50958525  0.75066061  0.36465143  1
  O  O250  1  0.50241107  0.75879003  0.87169308  1
  O  O251  1  0.24042313  0.12370398  0.49354047  1
  O  O252  1  0.24248206  0.13688536  1.00854929  1
  O  O253  1  0.24407297  0.62855590  0.49558311  1
  O  O254  1  0.23736647  0.63046646  1.00684299  1
  O  O255  1  0.74610726  0.12626134  0.48707301  1
  O  O256  1  0.74097968  0.13333014  1.00561954  1
  O  O257  1  0.74301690  0.62674261  0.49359510  1
  O  O258  1  0.75495415  0.63230941  0.98632417  1
  O  O259  1  0.25246318  0.36397141  0.01217393  1
  O  O260  1  0.25728232  0.37301561  0.51210571  1
  O  O261  1  0.24522973  0.87149094  0.01323609  1
  O  O262  1  0.25407068  0.87563171  0.50315833  1
  O  O263  1  0.75758900  0.36938976  0.00591065  1
  O  O264  1  0.74931247  0.37512472  0.51437940  1
  O  O265  1  0.75434127  0.86326118  0.00574277  1
  O  O266  1  0.74650231  0.87310966  0.51124727  1
  O  O267  1  0.13060940  0.48603867  0.24156050  1
  O  O268  1  0.12085043  0.50626432  0.74482369  1
  O  O269  1  0.12481306  1.00088671  0.23793520  1
  O  O270  1  0.13791508  0.99537833  0.75656848  1
  O  O271  1  0.63400553  0.49450641  0.24112340  1
  O  O272  1  0.62535540  0.48786732  0.74854210  1
  O  O273  1  0.63399155  0.99999897  0.24466296  1
  O  O274  1  0.61273802  0.98243093  0.73571712  1
  O  O275  1  0.37332125  0.01441792  0.24451378  1
  O  O276  1  0.37434669  0.01528568  0.75272645  1
  O  O277  1  0.35885743  0.49297780  0.25152741  1
  O  O278  1  0.37326092  0.50938827  0.76013778  1
  O  O279  1  0.87371747  -0.00794834  0.26325156  1
  O  O280  1  0.87003313  0.00423835  0.74697511  1
  O  O281  1  0.87269195  0.50508287  0.25453798  1
  O  O282  1  0.87029072  0.50947747  0.76058207  1
  O  O283  1  0.11320641  0.37803310  0.37108872  1
  O  O284  1  0.11473301  0.36376361  0.88324508  1
  O  O285  1  0.11614347  0.86536415  0.37153061  1
  O  O286  1  0.12158660  0.87373636  0.86537055  1
  O  O287  1  0.62792929  0.36937923  0.36446376  1
  O  O288  1  0.61866240  0.37176341  0.87078339  1
  O  O289  1  0.62673569  0.86140503  0.38030017  1
  O  O290  1  0.61509935  0.87065469  0.86546699  1
  O  O291  1  0.38139370  0.13215191  0.13324147  1
  O  O292  1  0.37524361  0.13916461  0.63481762  1
  O  O293  1  0.38711819  0.62715595  0.12424608  1
  O  O294  1  0.38107263  0.63226821  0.62901952  1
  O  O295  1  0.88790413  0.12045776  0.12177709  1
  O  O296  1  0.88529438  0.13121358  0.61983764  1
  O  O297  1  0.87342293  0.63443232  0.13117796  1
  O  O298  1  0.88132491  0.62900707  0.63291979  1
  O  O299  1  0.25448590  0.25844726  0.12279886  1
  O  O300  1  0.25513088  0.25692714  0.62439808  1
  O  O301  1  0.25797635  0.75653069  0.12756432  1
  O  O302  1  0.25449199  0.75910627  0.61620269  1
  O  O303  1  0.74549024  0.26280115  0.11864570  1
  O  O304  1  0.75481884  0.25435347  0.62673190  1
  O  O305  1  0.75729557  0.75295178  0.11582771  1
  O  O306  1  0.75851132  0.75697351  0.62142094  1
  O  O307  1  0.24971839  0.23269764  0.38234706  1
  O  O308  1  0.24254339  0.25639199  0.88648208  1
  O  O309  1  0.24401886  0.74156335  0.37741565  1
  O  O310  1  0.24221290  0.76576219  0.87666007  1
  O  O311  1  0.74467700  0.24588568  0.37854605  1
  O  O312  1  0.73682555  0.25016017  0.88440153  1
  O  O313  1  0.74645198  0.74359516  0.37365230  1
  O  O314  1  0.74550346  0.74584896  0.87974296  1
  O  O315  1  0.00809860  0.11952381  0.01016167  1
  O  O316  1  0.00434732  0.11908645  0.50764217  1
  O  O317  1  0.02328558  0.61051536  -0.05000358  1
  O  O318  1  0.00544718  0.61708666  0.51243687  1
  O  O319  1  0.50443133  0.11803481  0.01260220  1
  O  O320  1  0.49728187  0.11403341  0.49599952  1
  O  O321  1  0.50107446  0.61406167  0.00793768  1
  O  O322  1  0.50547291  0.62618148  0.50689829  1
  O  O323  1  0.48273596  0.38108205  0.50251577  1
  O  O324  1  0.49911715  0.38772448  0.99192276  1
  O  O325  1  0.48914216  0.88147596  0.49249720  1
  O  O326  1  0.50616356  0.88846452  0.99191850  1
  O  O327  1  1.00049046  0.37839280  0.49534241  1
  O  O328  1  0.98761101  0.36490916  0.99286562  1
  O  O329  1  1.00753419  0.88220939  0.49161689  1
  O  O330  1  1.00177395  0.88207026  0.98962013  1
  O  O331  1  0.50100315  0.49404526  0.37384604  1
  O  O332  1  0.49249165  0.49709361  0.88229270  1
  O  O333  1  0.50423792  0.99909666  0.38721119  1
  O  O334  1  0.49714006  0.99669372  0.88076874  1
  O  O335  1  0.99770161  0.49204102  0.38292894  1
  O  O336  1  0.98964790  0.48015772  0.86274483  1
  O  O337  1  0.99604370  0.99078167  0.37739109  1
  O  O338  1  1.00273774  0.99110629  0.88349524  1
  O  O339  1  0.00645726  0.00365811  0.12028673  1
  O  O340  1  -0.00394293  0.00650577  0.61605338  1
  O  O341  1  0.01074086  0.49181422  0.13008668  1
  O  O342  1  0.00385568  0.50375322  0.62405687  1
  O  O343  1  0.49902976  0.00668549  0.11681108  1
  O  O344  1  0.50789508  -0.00748847  0.60735958  1
  O  O345  1  0.50666496  0.50697890  0.11960466  1
  O  O346  1  0.49899923  0.51471194  0.62472968  1
  O  O347  1  0.24376784  0.37886434  0.24922777  1
  O  O348  1  0.25469560  0.37785603  0.74107457  1
  O  O349  1  0.24583780  0.87654489  0.23873196  1
  O  O350  1  0.24908011  0.89076376  0.73890476  1
  O  O351  1  0.74698058  0.38151918  0.24136160  1
  O  O352  1  0.74101548  0.37492076  0.74096126  1
  O  O353  1  0.75647529  0.86733146  0.23278671  1
  O  O354  1  0.73836851  0.87461207  0.73755792  1
  O  O355  1  0.25417865  0.12340295  0.26075026  1
  O  O356  1  0.25555475  0.11706243  0.74707924  1
  O  O357  1  0.24555403  0.60822025  0.25823827  1
  O  O358  1  0.26388565  0.62336113  0.73969641  1
  O  O359  1  0.75187159  0.12512800  0.26366880  1
  O  O360  1  0.70101106  0.11148914  0.76721990  1
  O  O361  1  0.76317988  0.61977252  0.25326634  1
  O  O362  1  0.75543574  0.62523927  0.76012446  1
  O  O363  1  0.36590924  0.13129109  0.36671937  1
  O  O364  1  0.38198393  0.12176204  0.86082633  1
  O  O365  1  0.36150723  0.62764592  0.38238106  1
  O  O366  1  0.37951356  0.61722031  0.86637301  1
  O  O367  1  0.86921707  0.11646058  0.37734611  1
  O  O368  1  0.86879744  0.12149602  0.88527535  1
  O  O369  1  0.87182040  0.61905484  0.36776026  1
  O  O370  1  0.86872625  0.61927921  0.86833749  1
  O  O371  1  0.13213885  0.37771904  0.13410335  1
  O  O372  1  0.13223655  0.38274480  0.62584849  1
  O  O373  1  0.12980771  0.88443829  0.12564009  1
  O  O374  1  0.13888475  0.87529336  0.62938414  1
  O  O375  1  0.63253176  0.38421927  0.13050932  1
  O  O376  1  0.62873462  0.37516249  0.63254280  1
  O  O377  1  0.64253909  0.87038827  0.11926425  1
  O  O378  1  0.63063245  0.87655601  0.62775812  1
  O  O379  1  0.11950259  0.26121022  0.24864149  1
  O  O380  1  0.11971341  0.24310746  0.76451268  1
  O  O381  1  0.11553264  0.74340265  0.25197051  1
  O  O382  1  0.13563504  0.77315112  0.75526245  1
  O  O383  1  0.63100685  0.26273643  0.25825873  1
  O  O384  1  0.62273482  0.26462229  0.76250181  1
  O  O385  1  0.61945068  0.74566729  0.25853526  1
  O  O386  1  0.61773983  0.75881100  0.75254385  1
  O  O387  1  0.37053814  0.24043453  0.23955687  1
  O  O388  1  0.37511845  0.23813384  0.74299351  1
  O  O389  1  0.38583017  0.74636786  0.23630277  1
  O  O390  1  0.37821264  0.74577780  0.74490808  1
  O  O391  1  0.88714808  0.25621556  0.24827337  1
  O  O392  1  0.87942018  0.24778970  0.74113834  1
  O  O393  1  0.88762774  0.74100544  0.24181027  1
  O  O394  1  0.87034717  0.73799729  0.74056686  1
  O  O395  1  0.37091972  0.48516848  0.50875397  1
  O  O396  1  0.38242867  0.49888815  0.99496713  1
  O  O397  1  0.38643427  0.99453275  0.50324523  1
  O  O398  1  0.38442713  1.01121922  0.98818852  1
  O  O399  1  0.88514726  0.49816159  0.49699617  1
  O  O400  1  0.87272911  0.49207032  0.98631328  1
  O  O401  1  0.89039989  1.00161810  0.48747015  1
  O  O402  1  0.89068835  0.99398374  1.00064606  1
  O  O403  1  0.11849193  0.00660783  0.00674073  1
  O  O404  1  0.10856943  0.01208318  0.49385233  1
  O  O405  1  0.12849785  0.49203138  0.02235619  1
  O  O406  1  0.11819367  0.50423891  0.51161607  1
  O  O407  1  0.61802493  0.00902183  0.00713664  1
  O  O408  1  0.61222074  0.00142318  0.50396002  1
  O  O409  1  0.61744805  0.49562695  0.00895307  1
  O  O410  1  0.62199404  0.51436351  0.50194268  1
  O  O411  1  0.36786911  0.36769113  0.12560552  1
  O  O412  1  0.36786478  0.36530321  0.62297943  1
  O  O413  1  0.36615580  0.86673236  0.12673067  1
  O  O414  1  0.36490908  0.87177948  0.61706244  1
  O  O415  1  0.86531130  0.38225705  0.11480580  1
  O  O416  1  0.86559750  0.36758917  0.62849328  1
  O  O417  1  0.86914065  0.85934441  0.12034777  1
  O  O418  1  0.86657587  0.86390825  0.62881959  1
  O  O419  1  0.13333448  0.12520859  0.38211684  1
  O  O420  1  0.12043157  0.13278505  0.89084071  1
  O  O421  1  0.13015746  0.62891033  0.38251805  1
  O  O422  1  0.13988996  0.65093842  0.84381039  1
  O  O423  1  0.63120268  0.13817699  0.37524255  1
  O  O424  1  0.61445199  0.13742537  0.89717522  1
  O  O425  1  0.63301347  0.63184695  0.38004681  1
  O  O426  1  0.63287400  0.63312622  0.86684911  1
