# generated using pymatgen
data_V85Zn86O256
_symmetry_space_group_name_H-M   'P 1'
_cell_length_a   16.94755849
_cell_length_b   16.92953904
_cell_length_c   16.94179654
_cell_angle_alpha   90.07657096
_cell_angle_beta   89.98023268
_cell_angle_gamma   89.92637414
_symmetry_Int_Tables_number   1
_chemical_formula_structural   V85Zn86O256
_chemical_formula_sum   'V85 Zn86 O256'
_cell_volume   4860.83594914
_cell_formula_units_Z   1
loop_
 _symmetry_equiv_pos_site_id
 _symmetry_equiv_pos_as_xyz
  1  'x, y, z'
loop_
 _atom_site_type_symbol
 _atom_site_label
 _atom_site_symmetry_multiplicity
 _atom_site_fract_x
 _atom_site_fract_y
 _atom_site_fract_z
 _atom_site_occupancy
  V  V0  1  0.87488204  0.62611623  0.25016620  1
  V  V1  1  0.12850725  0.25034808  0.37472253  1
  V  V2  1  0.37279589  0.87274018  0.49971391  1
  V  V3  1  0.62525056  0.49921874  0.12526063  1
  V  V4  1  -0.00703884  0.88377261  0.88536231  1
  V  V5  1  0.74502823  0.37583685  0.62192055  1
  V  V6  1  0.62519029  0.74818977  0.37605991  1
  V  V7  1  -0.00027080  0.87270146  0.36898629  1
  V  V8  1  0.37111374  -0.00205624  0.88291546  1
  V  V9  1  0.89534632  0.24443746  0.62733758  1
  V  V10  1  0.49877984  0.36965050  0.37718586  1
  V  V11  1  0.11822498  0.00946498  0.12721692  1
  V  V12  1  0.49877024  0.24714219  0.23868921  1
  V  V13  1  0.75294939  0.23577547  0.49738227  1
  V  V14  1  0.11068200  0.25802045  0.87593677  1
  V  V15  1  0.25186374  0.00243246  0.25000739  1
  V  V16  1  0.49093490  0.86707278  0.86613803  1
  V  V17  1  0.37526666  0.49553981  0.88190978  1
  V  V18  1  0.25127821  -0.00140375  0.75192054  1
  V  V19  1  0.63003444  -0.00617041  0.62941231  1
  V  V20  1  0.74757403  0.75070138  -0.00793936  1
  V  V21  1  0.49935556  0.75024238  0.25118813  1
  V  V22  1  0.12534917  0.87286153  0.75207382  1
  V  V23  1  0.13062701  0.49677566  0.12112621  1
  V  V24  1  0.13084916  0.50063761  0.62078857  1
  V  V25  1  0.50143038  0.87685867  0.38312447  1
  V  V26  1  -0.00636339  0.48633629  -0.00661725  1
  V  V27  1  0.88184602  0.12771488  0.25161351  1
  V  V28  1  0.61901366  0.00551027  0.12687710  1
  V  V29  1  0.63098299  0.86468750  0.74528287  1
  V  V30  1  0.50378996  0.24748317  0.74922152  1
  V  V31  1  0.18513388  0.69151101  0.43607902  1
  V  V32  1  0.49606407  -0.00503229  0.00279031  1
  V  V33  1  0.00237912  0.37726763  0.37331667  1
  V  V34  1  0.37130897  0.50252693  0.37641727  1
  V  V35  1  0.50368045  0.49789885  0.50487662  1
  V  V36  1  0.25108047  0.13851496  0.87870634  1
  V  V37  1  0.13114736  0.37446255  0.24619129  1
  V  V38  1  0.37448797  0.74736911  0.62336651  1
  V  V39  1  0.87257493  0.87214757  0.50762505  1
  V  V40  1  0.37854735  0.00313760  0.38133927  1
  V  V41  1  0.49912693  0.62414866  0.12627784  1
  V  V42  1  0.00312411  0.50710775  0.49933939  1
  V  V43  1  0.37522761  0.12336423  0.74984538  1
  V  V44  1  0.00302036  0.00223701  0.49827177  1
  V  V45  1  0.12170856  0.00826897  0.62948171  1
  V  V46  1  0.37235360  0.75702845  0.11821478  1
  V  V47  1  0.62833869  0.62155947  0.50377965  1
  V  V48  1  0.12300850  0.75037903  0.87482609  1
  V  V49  1  0.36957769  0.62709620  0.25403565  1
  V  V50  1  0.62517563  0.37201842  0.25241455  1
  V  V51  1  0.49932019  0.11579128  0.62056197  1
  V  V52  1  0.24815586  0.62326879  0.87194731  1
  V  V53  1  0.50561163  0.62354888  0.63041256  1
  V  V54  1  0.25089006  0.48936265  0.74715369  1
  V  V55  1  0.00124973  0.75210879  0.24667486  1
  V  V56  1  0.37049828  0.25619387  0.62353421  1
  V  V57  1  0.62119334  0.12387582  -0.00357114  1
  V  V58  1  0.00160944  0.62877868  0.62593909  1
  V  V59  1  0.25027023  0.50127251  0.24983634  1
  V  V60  1  0.37585563  0.62839034  0.74957984  1
  V  V61  1  0.62454214  0.62314446  -0.00116362  1
  V  V62  1  0.87211730  0.47970123  0.87076537  1
  V  V63  1  0.62699839  0.11575155  0.49536129  1
  V  V64  1  0.12703195  0.87346108  0.24928784  1
  V  V65  1  0.24633497  0.87054278  0.61901277  1
  V  V66  1  0.74738124  0.00886059  0.25306975  1
  V  V67  1  0.11095647  0.37201955  0.74653540  1
  V  V68  1  0.50033504  0.37130174  0.88092920  1
  V  V69  1  0.62491892  0.38127520  0.74509009  1
  V  V70  1  0.12380247  0.62623358  -0.00156356  1
  V  V71  1  0.12325261  0.13337204  0.00554025  1
  V  V72  1  0.31628181  0.31573624  0.06027422  1
  V  V73  1  0.37930582  0.12893936  0.23841869  1
  V  V74  1  0.86902690  0.00515244  0.37776543  1
  V  V75  1  0.74711594  0.87624957  0.12506773  1
  V  V76  1  0.12602443  0.12735890  0.50333291  1
  V  V77  1  0.87260248  0.75359992  0.11794971  1
  V  V78  1  0.88487091  0.24997842  0.12039605  1
  V  V79  1  -0.00067770  0.62478497  0.12126993  1
  V  V80  1  0.87386403  0.37515950  0.49823661  1
  V  V81  1  -0.01110242  0.75461465  0.75031247  1
  V  V82  1  0.75157001  0.49917383  0.25181499  1
  V  V83  1  0.75449964  0.37372535  0.12151673  1
  V  V84  1  0.75081806  0.24880951  -0.00160911  1
  Zn  Zn85  1  0.76116855  0.10427316  0.86897382  1
  Zn  Zn86  1  0.62976096  0.24299156  0.86969721  1
  Zn  Zn87  1  0.00474198  0.24739305  0.24681497  1
  Zn  Zn88  1  0.74450313  0.75999199  0.50339020  1
  Zn  Zn89  1  0.24771538  0.25836020  0.50553056  1
  Zn  Zn90  1  0.75165719  0.62665095  0.37679903  1
  Zn  Zn91  1  0.87645714  0.50267544  0.37579943  1
  Zn  Zn92  1  0.62413180  0.87715817  0.25321622  1
  Zn  Zn93  1  0.36888681  0.38022161  0.50519518  1
  Zn  Zn94  1  0.74850888  0.50174256  0.74495628  1
  Zn  Zn95  1  0.87135364  0.62271409  0.75374470  1
  Zn  Zn96  1  0.25355755  0.88273755  0.11678148  1
  Zn  Zn97  1  0.49586165  0.49249335  0.00512335  1
  Zn  Zn98  1  0.62979039  0.24176452  0.37413960  1
  Zn  Zn99  1  0.89021817  0.12021595  0.75314983  1
  Zn  Zn100  1  0.86572148  0.75120389  0.62770569  1
  Zn  Zn101  1  0.75220862  0.62097129  0.87203505  1
  Zn  Zn102  1  0.25273605  0.75959618  -0.00595420  1
  Zn  Zn103  1  0.25477691  0.12908512  0.37753088  1
  Zn  Zn104  1  0.61723488  0.74335462  0.86784874  1
  Zn  Zn105  1  0.83583004  0.93347527  -0.04239063  1
  Zn  Zn106  1  -0.00850620  0.01647575  0.00313528  1
  Zn  Zn107  1  0.19754106  0.19192769  0.18633783  1
  Zn  Zn108  1  0.18525777  0.18910642  0.69208465  1
  Zn  Zn109  1  0.18895495  0.68782137  0.18951600  1
  Zn  Zn110  1  0.18698505  0.68571158  0.68337450  1
  Zn  Zn111  1  0.68747919  0.18639266  0.18608715  1
  Zn  Zn112  1  0.69189982  0.18391162  0.68178690  1
  Zn  Zn113  1  0.68728591  0.68758245  0.18746321  1
  Zn  Zn114  1  0.69260963  0.69049699  0.68777418  1
  Zn  Zn115  1  0.31263438  0.31358254  0.31124997  1
  Zn  Zn116  1  0.31554749  0.31382661  0.81140833  1
  Zn  Zn117  1  0.31000286  0.81269427  0.31213686  1
  Zn  Zn118  1  0.31179935  0.81019568  0.81159125  1
  Zn  Zn119  1  0.81258371  0.31008211  0.31497750  1
  Zn  Zn120  1  0.80035986  0.27699072  0.79367100  1
  Zn  Zn121  1  0.81098070  0.81616639  0.31236868  1
  Zn  Zn122  1  0.80425857  0.94696617  0.78534866  1
  Zn  Zn123  1  0.19192568  0.43724972  0.43934887  1
  Zn  Zn124  1  0.18849835  0.43332064  0.93660354  1
  Zn  Zn125  1  0.18808582  0.93492281  0.43436458  1
  Zn  Zn126  1  0.18459901  0.94107137  0.94191584  1
  Zn  Zn127  1  0.68735916  0.43619671  0.43662910  1
  Zn  Zn128  1  0.68672289  0.43272557  0.93476713  1
  Zn  Zn129  1  0.68673389  0.94249907  0.44198727  1
  Zn  Zn130  1  0.67185289  0.93227180  0.93463841  1
  Zn  Zn131  1  0.30776853  0.06787355  0.06135401  1
  Zn  Zn132  1  0.30912773  0.06245802  0.56233972  1
  Zn  Zn133  1  0.31018526  0.56516306  0.06266580  1
  Zn  Zn134  1  0.30911965  0.56599755  0.55783616  1
  Zn  Zn135  1  0.80962974  0.07077346  0.06748577  1
  Zn  Zn136  1  0.82362301  0.04699169  0.59234466  1
  Zn  Zn137  1  0.81370996  0.56178727  0.05901949  1
  Zn  Zn138  1  0.81451879  0.56346659  0.56641726  1
  Zn  Zn139  1  0.43654962  0.43488713  0.18861909  1
  Zn  Zn140  1  0.44009507  0.43959814  0.69180960  1
  Zn  Zn141  1  0.43954929  0.93780750  0.19257158  1
  Zn  Zn142  1  0.43677893  0.93698813  0.68813143  1
  Zn  Zn143  1  0.94087166  0.43627056  0.18487753  1
  Zn  Zn144  1  0.93446057  0.43611624  0.68305939  1
  Zn  Zn145  1  0.93091328  0.94368600  0.17603211  1
  Zn  Zn146  1  0.95938814  0.97089862  0.70488135  1
  Zn  Zn147  1  0.06271161  0.06337433  0.31559838  1
  Zn  Zn148  1  0.06310540  0.06802632  0.81943544  1
  Zn  Zn149  1  0.06500708  0.56522439  0.31265622  1
  Zn  Zn150  1  0.05721448  0.56005424  0.81139388  1
  Zn  Zn151  1  0.55839973  0.06238239  0.31464301  1
  Zn  Zn152  1  0.56410541  0.05834508  0.81309670  1
  Zn  Zn153  1  0.56016893  0.56107698  0.31493018  1
  Zn  Zn154  1  0.56193362  0.55979860  0.81366485  1
  Zn  Zn155  1  0.44118696  0.18620329  0.43946036  1
  Zn  Zn156  1  0.43823963  0.18675201  0.94113996  1
  Zn  Zn157  1  0.43589153  0.68748333  0.44104809  1
  Zn  Zn158  1  0.43774747  0.68224566  0.93872834  1
  Zn  Zn159  1  0.94126156  0.18726758  0.43825059  1
  Zn  Zn160  1  0.93411201  0.18704104  0.93431320  1
  Zn  Zn161  1  0.94378158  0.68947676  0.43474466  1
  Zn  Zn162  1  0.93451103  0.68485647  0.93232911  1
  Zn  Zn163  1  0.06968339  0.31145930  0.06110065  1
  Zn  Zn164  1  0.06855252  0.32123994  0.55890644  1
  Zn  Zn165  1  0.06744463  0.81529007  0.06437516  1
  Zn  Zn166  1  0.05989452  0.81404205  0.56060279  1
  Zn  Zn167  1  0.56470851  0.31123972  0.06321077  1
  Zn  Zn168  1  0.56276985  0.30581126  0.56144266  1
  Zn  Zn169  1  0.56039485  0.81505575  0.06076250  1
  Zn  Zn170  1  0.55841095  0.80797106  0.56407933  1
  O  O171  1  0.13429259  0.12351408  0.11771909  1
  O  O172  1  0.13149079  0.12041855  0.61640440  1
  O  O173  1  0.12015287  0.61906153  0.11715119  1
  O  O174  1  0.11191124  0.61442626  0.63171949  1
  O  O175  1  0.62837681  0.11174614  0.11690680  1
  O  O176  1  0.61920312  0.11183799  0.62356323  1
  O  O177  1  0.61898064  0.61924399  0.12095003  1
  O  O178  1  0.61237341  0.62884225  0.61836195  1
  O  O179  1  0.38419777  0.38257486  0.37498453  1
  O  O180  1  0.38623555  0.38473597  0.86609123  1
  O  O181  1  0.37949839  0.87911838  0.38226888  1
  O  O182  1  0.38192008  0.88224613  0.87097870  1
  O  O183  1  0.88270522  0.37622573  0.38341241  1
  O  O184  1  0.87204834  0.38306105  0.87155332  1
  O  O185  1  0.88239132  0.88797166  0.37424428  1
  O  O186  1  0.89097535  0.88469991  0.86706087  1
  O  O187  1  0.26101803  -0.00103794  0.36467224  1
  O  O188  1  0.25601435  0.00618195  0.87083820  1
  O  O189  1  0.26505091  0.49794424  0.36893179  1
  O  O190  1  0.25615338  0.50393015  0.86693108  1
  O  O191  1  0.75718036  -0.00430709  0.36531228  1
  O  O192  1  0.75863443  -0.01424299  0.88368371  1
  O  O193  1  0.75290280  0.50036610  0.36186402  1
  O  O194  1  0.76272875  0.49629923  0.87597401  1
  O  O195  1  0.23665792  0.50660255  0.12978841  1
  O  O196  1  0.23895856  0.50861862  0.63265719  1
  O  O197  1  0.24536902  1.00257030  0.13768776  1
  O  O198  1  0.24385275  0.99194857  0.63262451  1
  O  O199  1  0.74894481  0.49320786  0.13416955  1
  O  O200  1  0.75847714  0.48099313  0.62593326  1
  O  O201  1  0.74028144  0.99323687  0.13227057  1
  O  O202  1  0.72761727  0.98937355  0.61932453  1
  O  O203  1  0.01145431  0.37665796  0.25778923  1
  O  O204  1  0.01350386  0.38142967  0.74891075  1
  O  O205  1  0.00472549  0.87458729  0.25120576  1
  O  O206  1  0.00929811  0.87428883  0.75834834  1
  O  O207  1  0.50465866  0.36742030  0.25822967  1
  O  O208  1  0.50673599  0.36694069  0.75528975  1
  O  O209  1  0.50043453  0.86786028  0.26467434  1
  O  O210  1  0.49937920  0.87556535  0.76307006  1
  O  O211  1  0.48814305  0.13195763  0.25481768  1
  O  O212  1  0.49512783  0.13044833  0.74627205  1
  O  O213  1  0.49211239  0.62977965  0.24494362  1
  O  O214  1  0.49041678  0.61579870  0.74054373  1
  O  O215  1  0.98642191  0.12696100  0.25556898  1
  O  O216  1  0.99989994  0.07864094  0.73133276  1
  O  O217  1  0.99259927  0.62895310  0.24112845  1
  O  O218  1  1.00021925  0.63684390  0.74425293  1
  O  O219  1  0.36851751  0.24891871  0.00166965  1
  O  O220  1  0.37656679  0.24805709  0.51562441  1
  O  O221  1  0.37346678  0.74143420  0.01542776  1
  O  O222  1  0.37518284  0.76235485  0.50695485  1
  O  O223  1  0.86860447  0.24608777  0.01433557  1
  O  O224  1  0.87075011  0.25674651  0.50043749  1
  O  O225  1  0.86458235  0.74227666  0.00994657  1
  O  O226  1  0.87728672  0.76470293  0.49373854  1
  O  O227  1  0.12632407  0.24476273  0.49287026  1
  O  O228  1  0.12810251  0.25022958  0.98459466  1
  O  O229  1  0.12862725  0.75265543  0.49622519  1
  O  O230  1  0.12492314  0.74017808  0.99555669  1
  O  O231  1  0.63502463  0.23661461  0.50091318  1
  O  O232  1  0.63064984  0.23842513  1.00102546  1
  O  O233  1  0.62287957  0.74070499  0.49279197  1
  O  O234  1  0.62968433  0.74094079  1.00228914  1
  O  O235  1  0.50419227  0.25221853  0.13930438  1
  O  O236  1  0.49281342  0.23828544  0.63156848  1
  O  O237  1  0.49091769  0.74636065  0.12968709  1
  O  O238  1  0.48430391  0.73823774  0.62131057  1
  O  O239  1  0.98779269  0.25778730  0.12646701  1
  O  O240  1  0.99286019  0.25386012  0.61016302  1
  O  O241  1  0.99011725  0.74602439  0.12589840  1
  O  O242  1  0.99989276  0.74391070  0.63197662  1
  O  O243  1  0.01242601  0.25852067  0.37354203  1
  O  O244  1  0.01273984  0.25356150  0.87531758  1
  O  O245  1  -0.00604062  0.76505931  0.36272039  1
  O  O246  1  0.00438395  0.75951732  0.86814012  1
  O  O247  1  0.50226224  0.26029011  0.37174866  1
  O  O248  1  0.50079685  0.25383625  0.86562384  1
  O  O249  1  0.50833571  0.75512403  0.37287250  1
  O  O250  1  0.49650106  0.76418297  0.88273767  1
  O  O251  1  0.23913688  0.12912159  0.49689732  1
  O  O252  1  0.23842251  0.12162373  0.98768801  1
  O  O253  1  0.24319477  0.62960510  0.49385540  1
  O  O254  1  0.23642620  0.62459362  0.99214402  1
  O  O255  1  0.74157452  0.12871853  0.51239709  1
  O  O256  1  0.74051346  0.13258403  0.99851390  1
  O  O257  1  0.73600850  0.61618406  0.49747810  1
  O  O258  1  0.73771092  0.63120550  1.00393556  1
  O  O259  1  0.25842089  0.37712412  0.00216075  1
  O  O260  1  0.25610805  0.37229974  0.50255946  1
  O  O261  1  0.24520182  0.87230299  0.00459351  1
  O  O262  1  0.25427838  0.87916812  0.51253590  1
  O  O263  1  0.74194719  0.37033919  0.01733669  1
  O  O264  1  0.75780977  0.37013783  0.50236845  1
  O  O265  1  0.74612324  0.86848971  0.01082878  1
  O  O266  1  0.76877454  0.87811545  0.49191609  1
  O  O267  1  0.12893043  0.49598815  0.24125883  1
  O  O268  1  0.13055376  0.49033074  0.74647731  1
  O  O269  1  0.13517096  1.00046907  0.24691066  1
  O  O270  1  0.13474858  0.98691091  0.75098502  1
  O  O271  1  0.63311546  0.49569954  0.24582607  1
  O  O272  1  0.62623463  0.48478199  0.75167041  1
  O  O273  1  0.62922377  1.00180064  0.24451340  1
  O  O274  1  0.61927930  0.98858361  0.73811584  1
  O  O275  1  0.37139141  0.00933950  0.25692404  1
  O  O276  1  0.36960641  0.00404630  0.75998835  1
  O  O277  1  0.37195082  0.50700102  0.25594669  1
  O  O278  1  0.36731204  0.50782223  0.75523840  1
  O  O279  1  0.86720757  0.00849880  0.25459412  1
  O  O280  1  0.85309497  0.01039071  0.70811615  1
  O  O281  1  0.86950685  0.50782312  0.24851201  1
  O  O282  1  0.87506671  0.49638904  0.76137175  1
  O  O283  1  0.12048940  0.37091801  0.36833453  1
  O  O284  1  0.12926099  0.36516256  0.86335748  1
  O  O285  1  0.11572369  0.88465822  0.35801443  1
  O  O286  1  0.11999608  0.86865817  0.86818984  1
  O  O287  1  0.61628787  0.37303474  0.36881383  1
  O  O288  1  0.61746883  0.36844939  0.86394243  1
  O  O289  1  0.61701255  0.86929389  0.37794996  1
  O  O290  1  0.60910895  0.87165076  0.86043306  1
  O  O291  1  0.37511486  0.12048433  0.14002488  1
  O  O292  1  0.38184416  0.12867630  0.63015942  1
  O  O293  1  0.38081728  0.63152087  0.13303569  1
  O  O294  1  0.37900350  0.63018167  0.62947371  1
  O  O295  1  0.87137825  0.14287101  0.13630083  1
  O  O296  1  0.87769305  0.14403934  0.61797751  1
  O  O297  1  0.87721451  0.63190880  0.13264338  1
  O  O298  1  0.88898712  0.62519854  0.63026390  1
  O  O299  1  0.25673838  0.26455769  0.12596684  1
  O  O300  1  0.26817994  0.24353484  0.62968838  1
  O  O301  1  0.26505412  0.74948861  0.12585970  1
  O  O302  1  0.26124504  0.75797923  0.63078250  1
  O  O303  1  0.75627142  0.25633761  0.11892365  1
  O  O304  1  0.75923819  0.25988868  0.61109518  1
  O  O305  1  0.75303107  0.75780539  0.12012454  1
  O  O306  1  0.75429497  0.74486658  0.61373736  1
  O  O307  1  0.23840012  0.25086471  0.37536760  1
  O  O308  1  0.24644096  0.24058167  0.86557349  1
  O  O309  1  0.24518768  0.74946187  0.37660263  1
  O  O310  1  0.24220446  0.74123300  0.87394626  1
  O  O311  1  0.74847106  0.25246345  0.39145208  1
  O  O312  1  0.74813733  0.26654639  0.89650016  1
  O  O313  1  0.73689892  0.74952162  0.37715720  1
  O  O314  1  0.74273953  0.74926096  0.89102447  1
  O  O315  1  0.01748065  0.13165235  -0.00309168  1
  O  O316  1  0.01440800  0.11498862  0.49208171  1
  O  O317  1  0.00943843  0.61859904  0.00254891  1
  O  O318  1  -0.00498987  0.61447245  0.50627930  1
  O  O319  1  0.51214684  0.11207638  -0.00774604  1
  O  O320  1  0.51223196  0.13001089  0.51149523  1
  O  O321  1  0.51051291  0.62190839  0.00714587  1
  O  O322  1  0.50824401  0.61729737  0.50622261  1
  O  O323  1  0.49744744  0.38031826  0.49460396  1
  O  O324  1  0.50898832  0.37403586  0.98503162  1
  O  O325  1  0.49077811  0.87076489  0.48980852  1
  O  O326  1  0.50474340  0.88791907  0.98653959  1
  O  O327  1  0.99432743  0.38617009  0.49286963  1
  O  O328  1  1.00448451  0.38885887  1.00229390  1
  O  O329  1  0.99358969  0.87956647  0.48540859  1
  O  O330  1  1.00151023  0.86986810  0.98643475  1
  O  O331  1  0.49192427  0.48951491  0.37979557  1
  O  O332  1  0.49196143  0.49007218  0.87612210  1
  O  O333  1  0.48708547  0.99046868  0.37193151  1
  O  O334  1  0.48974266  0.99128790  0.87981876  1
  O  O335  1  1.00045999  0.49571305  0.38207698  1
  O  O336  1  0.99025772  0.49956309  0.88598794  1
  O  O337  1  0.99395126  0.99214937  0.38087073  1
  O  O338  1  1.01239099  0.98644500  0.88757921  1
  O  O339  1  0.01623037  0.00540196  0.13190135  1
  O  O340  1  0.01277253  -0.01696000  0.60194327  1
  O  O341  1  0.00603285  0.50575678  0.11359600  1
  O  O342  1  0.00718523  0.50585219  0.61820424  1
  O  O343  1  0.50628776  -0.00757159  0.11661585  1
  O  O344  1  0.50186404  0.01138030  0.62877975  1
  O  O345  1  0.50649959  0.50598465  0.12528093  1
  O  O346  1  0.49304875  0.50878876  0.61499673  1
  O  O347  1  0.23805352  0.38372918  0.25496474  1
  O  O348  1  0.24579499  0.38687563  0.75094145  1
  O  O349  1  0.24340448  0.88422816  0.24608404  1
  O  O350  1  0.24485048  0.87726533  0.74137112  1
  O  O351  1  0.74563839  0.38023897  0.24445525  1
  O  O352  1  0.73964061  0.36669627  0.73917632  1
  O  O353  1  0.74610357  0.88491921  0.24077106  1
  O  O354  1  0.72944305  0.86694525  0.74998554  1
  O  O355  1  0.26310552  0.12027861  0.25508248  1
  O  O356  1  0.25485583  0.11792026  0.75772319  1
  O  O357  1  0.26282199  0.61952907  0.24677287  1
  O  O358  1  0.25534211  0.61580671  0.75437958  1
  O  O359  1  0.75796555  0.11462380  0.24665145  1
  O  O360  1  0.76148042  0.16395683  0.76626751  1
  O  O361  1  0.75751926  0.61707707  0.24993212  1
  O  O362  1  0.75085062  0.61850381  0.75327699  1
  O  O363  1  0.37544557  0.11611522  0.37386254  1
  O  O364  1  0.36846462  0.11808721  0.86992510  1
  O  O365  1  0.38547523  0.61610491  0.36501491  1
  O  O366  1  0.37150579  0.61896308  0.86618582  1
  O  O367  1  0.87818829  0.11257445  0.37125470  1
  O  O368  1  0.87620621  0.12034564  0.86898787  1
  O  O369  1  0.87439215  0.62539095  0.36221638  1
  O  O370  1  0.87175644  0.61289970  0.87275022  1
  O  O371  1  0.11950552  0.38552258  0.13407527  1
  O  O372  1  0.12518142  0.38363941  0.63817300  1
  O  O373  1  0.12616007  0.88776630  0.13554451  1
  O  O374  1  0.13147406  0.87901558  0.63248134  1
  O  O375  1  0.63172874  0.38005824  0.13386913  1
  O  O376  1  0.63261464  0.36789052  0.63039668  1
  O  O377  1  0.63015327  0.88429840  0.12822246  1
  O  O378  1  0.60738425  0.88283714  0.63609889  1
  O  O379  1  0.12520176  0.25779512  0.25503569  1
  O  O380  1  0.12618813  0.26362236  0.75720773  1
  O  O381  1  0.11553870  0.76220460  0.23755271  1
  O  O382  1  0.11936828  0.76035309  0.75220375  1
  O  O383  1  0.61892382  0.25182502  0.25401240  1
  O  O384  1  0.61224774  0.25372644  0.74634789  1
  O  O385  1  0.61809010  0.75074723  0.25818991  1
  O  O386  1  0.61745333  0.76063080  0.74825591  1
  O  O387  1  0.38200585  0.23628782  0.25695774  1
  O  O388  1  0.38481229  0.24474909  0.74161478  1
  O  O389  1  0.37950556  0.74297252  0.24441808  1
  O  O390  1  0.37124826  0.73508207  0.74379876  1
  O  O391  1  0.87679038  0.24383778  0.24478847  1
  O  O392  1  0.89315474  0.25483650  0.73012879  1
  O  O393  1  0.87753425  0.74270776  0.24242534  1
  O  O394  1  0.88800852  0.75301388  0.74828640  1
  O  O395  1  0.38538523  0.50253074  0.49255673  1
  O  O396  1  0.37677633  0.51073922  0.98527653  1
  O  O397  1  0.36878850  0.98737730  0.49309834  1
  O  O398  1  0.38024624  1.00723238  0.99046950  1
  O  O399  1  0.88260918  0.49234858  0.49791565  1
  O  O400  1  0.88668437  0.49972258  0.99332850  1
  O  O401  1  0.88296985  0.99404135  0.49569199  1
  O  O402  1  0.88547685  0.99348454  1.03687654  1
  O  O403  1  0.12258561  0.01328387  0.01214555  1
  O  O404  1  0.12184653  0.00774687  0.50105702  1
  O  O405  1  0.11694507  0.50434581  0.00305602  1
  O  O406  1  0.11642274  0.49349963  0.51092060  1
  O  O407  1  0.61643551  0.00443307  0.00740659  1
  O  O408  1  0.61983774  0.00440223  0.51263147  1
  O  O409  1  0.62478929  0.50634072  0.00713229  1
  O  O410  1  0.61167897  0.50568305  0.49311238  1
  O  O411  1  0.38101177  0.37556113  0.11297597  1
  O  O412  1  0.38457319  0.35865232  0.62790955  1
  O  O413  1  0.37630852  0.85973187  0.13226943  1
  O  O414  1  0.36963708  0.86855220  0.61980295  1
  O  O415  1  0.86666149  0.36184562  0.13367835  1
  O  O416  1  0.87249000  0.36653112  0.61132541  1
  O  O417  1  0.86319742  0.86083870  0.13367467  1
  O  O418  1  0.88493160  0.87339921  0.60606542  1
  O  O419  1  0.12852587  0.13468529  0.38022500  1
  O  O420  1  0.13155844  0.13996417  0.87781430  1
  O  O421  1  0.12309559  0.63585733  0.37587270  1
  O  O422  1  0.12581375  0.62916890  0.87997909  1
  O  O423  1  0.62159400  0.12041057  0.39072999  1
  O  O424  1  0.63326831  0.12231063  0.88235814  1
  O  O425  1  0.62392563  0.63227258  0.38267835  1
  O  O426  1  0.62570528  0.62522905  0.88428104  1
