# generated using pymatgen
data_V85Zn86O256
_symmetry_space_group_name_H-M   'P 1'
_cell_length_a   16.93863423
_cell_length_b   16.96703138
_cell_length_c   16.94379398
_cell_angle_alpha   90.00925772
_cell_angle_beta   90.00409085
_cell_angle_gamma   89.97228353
_symmetry_Int_Tables_number   1
_chemical_formula_structural   V85Zn86O256
_chemical_formula_sum   'V85 Zn86 O256'
_cell_volume   4869.61759357
_cell_formula_units_Z   1
loop_
 _symmetry_equiv_pos_site_id
 _symmetry_equiv_pos_as_xyz
  1  'x, y, z'
loop_
 _atom_site_type_symbol
 _atom_site_label
 _atom_site_symmetry_multiplicity
 _atom_site_fract_x
 _atom_site_fract_y
 _atom_site_fract_z
 _atom_site_occupancy
  V  V0  1  0.25050317  0.00098572  0.74470222  1
  V  V1  1  0.75216691  0.00412536  0.74534843  1
  V  V2  1  0.36452529  0.49781466  0.37436371  1
  V  V3  1  0.75482576  0.25210365  0.00108579  1
  V  V4  1  0.88105069  0.00377428  0.87502145  1
  V  V5  1  0.12216900  0.37687003  0.74745302  1
  V  V6  1  0.36820019  0.24759341  0.63237559  1
  V  V7  1  0.25246458  0.25050026  0.00162717  1
  V  V8  1  0.12380491  0.24996795  0.87357716  1
  V  V9  1  -0.00148256  0.74448440  0.75229684  1
  V  V10  1  0.60831909  0.37154651  0.25082205  1
  V  V11  1  0.49758312  0.37688829  0.87443631  1
  V  V12  1  0.75706378  0.63680226  0.37604001  1
  V  V13  1  0.25696092  0.12792564  0.86553492  1
  V  V14  1  0.93819401  0.07877990  0.68631891  1
  V  V15  1  0.62365099  0.75640467  0.87643422  1
  V  V16  1  0.75729943  0.87240632  0.10456344  1
  V  V17  1  0.62652490  0.12499049  0.00088862  1
  V  V18  1  0.36975827  0.86195908  0.49637785  1
  V  V19  1  0.25717477  0.74147056  -0.00844691  1
  V  V20  1  0.75675481  0.12607824  0.86957222  1
  V  V21  1  0.74640276  0.62889642  0.87732548  1
  V  V22  1  0.24463140  0.37043200  0.61711658  1
  V  V23  1  0.87585081  0.24932260  0.62328587  1
  V  V24  1  0.50980454  0.87287492  0.37450457  1
  V  V25  1  -0.00018739  0.37273735  0.37716671  1
  V  V26  1  0.51433854  0.74965943  0.25381353  1
  V  V27  1  0.87666183  0.12541938  0.25124537  1
  V  V28  1  0.87807267  0.25329908  0.12427042  1
  V  V29  1  0.62353720  0.87686846  0.75031589  1
  V  V30  1  0.00047194  -0.00309503  0.00175063  1
  V  V31  1  -0.00660820  0.73800572  0.24073289  1
  V  V32  1  0.50115920  -0.00076934  0.00085206  1
  V  V33  1  0.86705716  0.74501065  0.62048257  1
  V  V34  1  0.62581189  0.63989212  0.49283210  1
  V  V35  1  0.75121428  0.37567796  0.12458111  1
  V  V36  1  0.49975793  0.49434810  0.49280796  1
  V  V37  1  0.37893499  0.13260921  0.25335513  1
  V  V38  1  0.62930959  0.63301428  0.00383195  1
  V  V39  1  0.87096500  0.62484646  0.75144370  1
  V  V40  1  0.75152519  -0.00437794  0.24838363  1
  V  V41  1  0.37190790  -0.00182263  0.37789413  1
  V  V42  1  0.62854838  0.50053563  0.12840881  1
  V  V43  1  0.49334758  0.12560875  0.63211272  1
  V  V44  1  0.12548086  0.86793502  0.25253113  1
  V  V45  1  0.37219057  0.36792150  0.49593907  1
  V  V46  1  0.12793718  0.63507375  0.49549423  1
  V  V47  1  0.12867363  0.12552855  0.00239673  1
  V  V48  1  0.76006035  0.49523369  0.26520935  1
  V  V49  1  0.49236494  0.62425341  0.62246876  1
  V  V50  1  -0.00047938  0.86675723  0.88437629  1
  V  V51  1  0.00545775  0.49533140  0.01994436  1
  V  V52  1  0.37006863  0.62269083  0.25008088  1
  V  V53  1  0.49583676  0.75254087  0.74659790  1
  V  V54  1  0.74484239  0.86962365  0.61867759  1
  V  V55  1  0.62128769  0.12717875  0.49787779  1
  V  V56  1  0.25306896  0.88003831  0.12141974  1
  V  V57  1  0.37904007  0.88019861  -0.00648618  1
  V  V58  1  0.23864425  0.13684263  0.38667580  1
  V  V59  1  0.00430690  0.86706658  0.37622375  1
  V  V60  1  -0.00621301  0.25000900  0.74990452  1
  V  V61  1  0.25573862  0.50841380  0.74974672  1
  V  V62  1  0.50667468  0.62844448  0.12987360  1
  V  V63  1  0.24429532  0.37894358  0.12811049  1
  V  V64  1  0.38154841  0.00469119  0.86840841  1
  V  V65  1  0.87795504  0.87512076  0.49977080  1
  V  V66  1  0.88132510  0.00087032  0.37929973  1
  V  V67  1  0.87248158  0.38249948  0.49350765  1
  V  V68  1  0.24452146  0.63957684  0.37459555  1
  V  V69  1  0.00309538  0.12557022  0.12646354  1
  V  V70  1  0.13195502  0.73980447  0.87341980  1
  V  V71  1  0.60941338  0.25157965  0.36960135  1
  V  V72  1  0.74674738  0.37457274  0.62461436  1
  V  V73  1  0.38192469  0.75480171  0.12535585  1
  V  V74  1  0.10273027  0.12593602  0.50724842  1
  V  V75  1  0.87633689  0.49216705  0.88235693  1
  V  V76  1  -0.00121851  0.62124087  0.62128502  1
  V  V77  1  0.24679606  0.86990874  0.61919328  1
  V  V78  1  0.37342666  0.37992864  -0.00026736  1
  V  V79  1  0.74055192  0.49836667  0.75259216  1
  V  V80  1  0.49837505  0.50353845  0.00050730  1
  V  V81  1  0.62627053  0.25131606  0.87268398  1
  V  V82  1  0.13020832  0.37213033  0.25991835  1
  V  V83  1  0.62249545  0.00167697  0.62223116  1
  V  V84  1  0.24713795  0.00217260  0.25249262  1
  Zn  Zn85  1  0.38316951  0.25600048  0.13348984  1
  Zn  Zn86  1  0.50282512  0.12907193  0.13052565  1
  Zn  Zn87  1  0.62619335  0.00165028  0.12749706  1
  Zn  Zn88  1  0.12254798  0.49975177  0.62124444  1
  Zn  Zn89  1  0.12255996  0.61879705  0.00698625  1
  Zn  Zn90  1  0.62290428  0.50087348  0.62121099  1
  Zn  Zn91  1  0.63210609  0.87212976  0.24715822  1
  Zn  Zn92  1  0.61982621  0.37479312  0.74791641  1
  Zn  Zn93  1  0.74717212  0.25142423  0.49444125  1
  Zn  Zn94  1  0.88361702  0.74843327  0.10322559  1
  Zn  Zn95  1  0.12682867  0.87281780  0.74870620  1
  Zn  Zn96  1  0.49298752  0.24839033  0.75325947  1
  Zn  Zn97  1  0.18056896  0.53986726  0.18612582  1
  Zn  Zn98  1  -0.00424342  0.37311119  0.88258063  1
  Zn  Zn99  1  0.34791626  0.53536104  0.88924984  1
  Zn  Zn100  1  0.74709650  0.12645115  0.37236613  1
  Zn  Zn101  1  0.11239023  -0.00201849  0.61924915  1
  Zn  Zn102  1  0.01007068  0.24451091  0.25818124  1
  Zn  Zn103  1  0.49736861  -0.00181759  0.50023020  1
  Zn  Zn104  1  0.36852530  0.74420945  0.62488063  1
  Zn  Zn105  1  -0.00322151  0.50291733  0.49194237  1
  Zn  Zn106  1  0.12500391  -0.00000035  0.12564548  1
  Zn  Zn107  1  0.19157864  0.19110521  0.18998337  1
  Zn  Zn108  1  0.18026795  0.18656849  0.67983451  1
  Zn  Zn109  1  0.19408692  0.70185602  0.18361805  1
  Zn  Zn110  1  0.18505163  0.68656769  0.68387504  1
  Zn  Zn111  1  0.68789693  0.18756414  0.19052636  1
  Zn  Zn112  1  0.68638039  0.18776647  0.68659271  1
  Zn  Zn113  1  0.73444570  0.66925861  0.17192926  1
  Zn  Zn114  1  0.68025678  0.68537019  0.68613574  1
  Zn  Zn115  1  0.30819006  0.31288690  0.31637648  1
  Zn  Zn116  1  0.31027329  0.32008504  0.81121589  1
  Zn  Zn117  1  0.31640195  0.81252910  0.31003203  1
  Zn  Zn118  1  0.31483493  0.81955104  0.81054678  1
  Zn  Zn119  1  0.80632540  0.30945129  0.31437294  1
  Zn  Zn120  1  0.81166405  0.31262162  0.80950889  1
  Zn  Zn121  1  0.81697099  0.81054621  0.30964630  1
  Zn  Zn122  1  0.81557040  0.81197635  0.92311107  1
  Zn  Zn123  1  0.18343168  0.44549503  0.43786722  1
  Zn  Zn124  1  0.18256282  0.43642799  0.93503748  1
  Zn  Zn125  1  0.18277981  0.94126794  0.44034923  1
  Zn  Zn126  1  0.18766981  0.93575023  0.93331826  1
  Zn  Zn127  1  0.68058711  0.43179870  0.43732170  1
  Zn  Zn128  1  0.68507375  0.43854070  0.94137613  1
  Zn  Zn129  1  0.69131408  0.93989908  0.43677227  1
  Zn  Zn130  1  0.68624871  0.94381891  0.93148045  1
  Zn  Zn131  1  0.31447519  0.06521367  0.06451642  1
  Zn  Zn132  1  0.31034640  0.05983313  0.56159769  1
  Zn  Zn133  1  0.30382422  0.57222840  0.06782301  1
  Zn  Zn134  1  0.30767022  0.55862997  0.56069865  1
  Zn  Zn135  1  0.81566485  0.06190890  0.06216296  1
  Zn  Zn136  1  0.80615929  0.05982747  0.55316585  1
  Zn  Zn137  1  0.81983254  0.56153150  0.06235156  1
  Zn  Zn138  1  0.80624402  0.56192172  0.55893128  1
  Zn  Zn139  1  0.43320664  0.44264516  0.18435897  1
  Zn  Zn140  1  0.43486321  0.43684757  0.68424695  1
  Zn  Zn141  1  0.44027972  0.94220002  0.18848752  1
  Zn  Zn142  1  0.43496688  0.93578707  0.68439914  1
  Zn  Zn143  1  0.93905670  0.43244589  0.19672993  1
  Zn  Zn144  1  0.93173911  0.43750987  0.68995585  1
  Zn  Zn145  1  0.93656242  0.93331646  0.18681802  1
  Zn  Zn146  1  0.92896886  0.91456641  0.69979635  1
  Zn  Zn147  1  0.06313957  0.05833439  0.31762879  1
  Zn  Zn148  1  0.07253955  0.06000664  0.81614224  1
  Zn  Zn149  1  0.05551537  0.55808933  0.31916794  1
  Zn  Zn150  1  0.06432864  0.56040450  0.81418300  1
  Zn  Zn151  1  0.56187645  0.05829876  0.31458309  1
  Zn  Zn152  1  0.56361501  0.06439818  0.81193106  1
  Zn  Zn153  1  0.56351030  0.55965089  0.31552350  1
  Zn  Zn154  1  0.53019117  0.57974613  0.82637744  1
  Zn  Zn155  1  0.43306650  0.18557781  0.44181946  1
  Zn  Zn156  1  0.43854449  0.18913507  0.94240801  1
  Zn  Zn157  1  0.43932615  0.68488705  0.43388761  1
  Zn  Zn158  1  0.44354904  0.69480023  0.93671754  1
  Zn  Zn159  1  0.93618172  0.19299895  0.43797937  1
  Zn  Zn160  1  0.93862947  0.18636749  0.93969308  1
  Zn  Zn161  1  0.93652607  0.69028658  0.43583833  1
  Zn  Zn162  1  0.94166414  0.67444979  0.94231337  1
  Zn  Zn163  1  0.06276230  0.31766726  0.06567248  1
  Zn  Zn164  1  0.06023794  0.30605247  0.55814964  1
  Zn  Zn165  1  0.06964227  0.80940389  0.06297811  1
  Zn  Zn166  1  0.05990628  0.81173900  0.56416504  1
  Zn  Zn167  1  0.56165096  0.31076477  0.06484974  1
  Zn  Zn168  1  0.55744492  0.31094381  0.56105002  1
  Zn  Zn169  1  0.56962540  0.81764396  0.06504021  1
  Zn  Zn170  1  0.55747830  0.81291488  0.56013509  1
  O  O171  1  0.12228389  0.12406327  0.12089020  1
  O  O172  1  0.11924990  0.11652891  0.61461646  1
  O  O173  1  0.18078218  0.61872903  0.10683423  1
  O  O174  1  0.11526424  0.62454111  0.61462509  1
  O  O175  1  0.63005945  0.12337593  0.11101774  1
  O  O176  1  0.61627874  0.12291254  0.61737877  1
  O  O177  1  0.63176516  0.62264642  0.11908166  1
  O  O178  1  0.62013126  0.62210845  0.60801534  1
  O  O179  1  0.36670424  0.38418975  0.38291028  1
  O  O180  1  0.38187589  0.37460230  0.88723627  1
  O  O181  1  0.37935563  0.88171944  0.37877186  1
  O  O182  1  0.37379139  0.88849336  0.88667460  1
  O  O183  1  0.87743766  0.36771752  0.38630824  1
  O  O184  1  0.87195058  0.38939849  0.87211537  1
  O  O185  1  0.87890993  0.87930460  0.38334441  1
  O  O186  1  0.88889202  0.88996268  0.86876889  1
  O  O187  1  0.25505010  0.00457878  0.36750404  1
  O  O188  1  0.25896534  0.00851302  0.86860643  1
  O  O189  1  0.26089737  0.51239711  0.37859431  1
  O  O190  1  0.24655935  0.49562144  0.85882058  1
  O  O191  1  0.76232163  0.00316366  0.36687386  1
  O  O192  1  0.76332759  0.00401505  0.86615446  1
  O  O193  1  0.74673876  0.49559007  0.36717675  1
  O  O194  1  0.75605452  0.50328848  0.87148351  1
  O  O195  1  0.26173445  0.48170766  0.12470082  1
  O  O196  1  0.24598651  0.48859394  0.63338933  1
  O  O197  1  0.25058587  0.99631613  0.13417521  1
  O  O198  1  0.25244914  0.99059765  0.63286696  1
  O  O199  1  0.74616279  0.49082821  0.13359698  1
  O  O200  1  0.74766824  0.49161511  0.63394580  1
  O  O201  1  0.75368595  0.99064165  0.12964603  1
  O  O202  1  0.74161044  0.99540828  0.62677891  1
  O  O203  1  0.01081637  0.36802483  0.25798775  1
  O  O204  1  0.00659985  0.36786250  0.75002017  1
  O  O205  1  0.00906432  0.87037835  0.25510041  1
  O  O206  1  0.00408975  0.85739069  0.76082383  1
  O  O207  1  0.50907379  0.37807287  0.24210741  1
  O  O208  1  0.50024327  0.37305653  0.75936811  1
  O  O209  1  0.50135569  0.86810617  0.25616205  1
  O  O210  1  0.51573804  0.86984887  0.73832956  1
  O  O211  1  0.48139567  0.11666763  0.25296664  1
  O  O212  1  0.50275044  0.12749176  0.73659122  1
  O  O213  1  0.49574386  0.63204211  0.24779569  1
  O  O214  1  0.51648413  0.63977054  0.73031658  1
  O  O215  1  0.99500127  0.12494181  0.24625544  1
  O  O216  1  1.00251829  0.13137260  0.75288875  1
  O  O217  1  1.00965637  0.64039641  0.25306051  1
  O  O218  1  0.99546774  0.63065356  0.74547473  1
  O  O219  1  0.36249005  0.25801350  -0.00224222  1
  O  O220  1  0.37768395  0.26303579  0.50770588  1
  O  O221  1  0.37935258  0.76464589  0.00184347  1
  O  O222  1  0.37623562  0.75966047  0.49849536  1
  O  O223  1  0.86774234  0.24356547  0.01176128  1
  O  O224  1  0.86944610  0.25820365  0.50953395  1
  O  O225  1  0.88642215  0.75715892  -0.01101778  1
  O  O226  1  0.87672966  0.75603403  0.51380532  1
  O  O227  1  0.12185165  0.22719665  0.50557471  1
  O  O228  1  0.13581589  0.24836755  0.99560675  1
  O  O229  1  0.11743717  0.73422326  0.50128863  1
  O  O230  1  0.14061740  0.74436025  0.99384917  1
  O  O231  1  0.62205837  0.24473332  0.48938701  1
  O  O232  1  0.63267740  0.24321471  0.99036755  1
  O  O233  1  0.62139681  0.73834843  0.49775297  1
  O  O234  1  0.62099504  0.74408833  0.99092621  1
  O  O235  1  0.49360059  0.24023304  0.11531957  1
  O  O236  1  0.48956682  0.24307624  0.62802440  1
  O  O237  1  0.49882713  0.74755969  0.13131801  1
  O  O238  1  0.49644075  0.74332251  0.62861084  1
  O  O239  1  0.99261350  0.24410757  0.12749511  1
  O  O240  1  0.98393057  0.25182759  0.63289174  1
  O  O241  1  1.00170602  0.75255151  0.13534168  1
  O  O242  1  0.99267933  0.73950782  0.63272417  1
  O  O243  1  -0.00507694  0.26466377  0.37294118  1
  O  O244  1  0.00361458  0.25164470  0.86857462  1
  O  O245  1  -0.00500404  0.76184576  0.36369775  1
  O  O246  1  0.00721844  0.75187830  0.86996251  1
  O  O247  1  0.51026234  0.24417542  0.37721397  1
  O  O248  1  0.50724337  0.25898405  0.87682834  1
  O  O249  1  0.49322301  0.76046663  0.36476284  1
  O  O250  1  0.51603259  0.75309922  0.86301592  1
  O  O251  1  0.25096447  0.12289003  0.48676794  1
  O  O252  1  0.24806833  0.13328475  0.99422200  1
  O  O253  1  0.23580734  0.62447755  0.49441050  1
  O  O254  1  0.27858837  0.64283726  0.97900424  1
  O  O255  1  0.73257798  0.12844218  0.49820302  1
  O  O256  1  0.74535313  0.12794665  0.99103919  1
  O  O257  1  0.73522106  0.61967944  0.48892792  1
  O  O258  1  0.73813598  0.61478250  0.98582548  1
  O  O259  1  0.25388956  0.36921772  0.00390021  1
  O  O260  1  0.25459268  0.38205254  0.50944142  1
  O  O261  1  0.26109668  0.87383242  0.00242829  1
  O  O262  1  0.25679570  0.87923881  0.50648506  1
  O  O263  1  0.74468311  0.37004308  0.01659241  1
  O  O264  1  0.75428563  0.37314673  0.50801674  1
  O  O265  1  0.75368654  0.88018467  -0.00018371  1
  O  O266  1  0.75891169  0.87896234  0.51047776  1
  O  O267  1  0.11809302  0.48295792  0.25462604  1
  O  O268  1  0.12880265  0.49076097  0.74576621  1
  O  O269  1  0.13521753  0.99224632  0.24979359  1
  O  O270  1  0.13942156  0.99561663  0.74949977  1
  O  O271  1  0.62823003  0.48969527  0.24603625  1
  O  O272  1  0.63586834  0.49894408  0.74995207  1
  O  O273  1  0.63689795  1.00028083  0.24889062  1
  O  O274  1  0.62877082  0.99510120  0.74373842  1
  O  O275  1  0.36475852  0.00461498  0.25974390  1
  O  O276  1  0.36572234  -0.00479697  0.75859728  1
  O  O277  1  0.38069229  0.51487712  0.25789679  1
  O  O278  1  0.35679038  0.49119608  0.75011835  1
  O  O279  1  0.87226467  0.00906085  0.25410468  1
  O  O280  1  0.87515744  0.00868549  0.75067924  1
  O  O281  1  0.85794984  0.49322299  0.25147418  1
  O  O282  1  0.86229875  0.50543006  0.75905673  1
  O  O283  1  0.12071128  0.37535180  0.36778105  1
  O  O284  1  0.12096844  0.36604803  0.86418488  1
  O  O285  1  0.11557501  0.88011570  0.36694156  1
  O  O286  1  0.11537553  0.86382853  0.87347368  1
  O  O287  1  0.62161720  0.36022956  0.36664961  1
  O  O288  1  0.62025043  0.36470655  0.87646635  1
  O  O289  1  0.61294227  0.88120492  0.37407793  1
  O  O290  1  0.63337760  0.86952933  0.86172380  1
  O  O291  1  0.36960645  0.12550071  0.14525459  1
  O  O292  1  0.38095700  0.13478017  0.61640560  1
  O  O293  1  0.38272347  0.63252756  0.13315625  1
  O  O294  1  0.38698439  0.62647521  0.61437168  1
  O  O295  1  0.88164944  0.13179293  0.13215397  1
  O  O296  1  0.87068150  0.13039361  0.62231652  1
  O  O297  1  0.83850325  0.64587676  0.12833717  1
  O  O298  1  0.87588439  0.62906297  0.62818648  1
  O  O299  1  0.25611384  0.25923331  0.11667725  1
  O  O300  1  0.25372712  0.25967096  0.62817976  1
  O  O301  1  0.26472740  0.76271202  0.11135177  1
  O  O302  1  0.25176334  0.76491973  0.63276533  1
  O  O303  1  0.75620098  0.25568566  0.12234195  1
  O  O304  1  0.75881233  0.25672473  0.62676525  1
  O  O305  1  0.74276439  0.77475072  0.12453769  1
  O  O306  1  0.75582299  0.75721632  0.63128661  1
  O  O307  1  0.24855551  0.23435336  0.37572340  1
  O  O308  1  0.24586006  0.24476567  0.87882180  1
  O  O309  1  0.25155582  0.73902514  0.36970583  1
  O  O310  1  0.24288721  0.76190553  0.87947730  1
  O  O311  1  0.73519082  0.24401550  0.37599891  1
  O  O312  1  0.74607194  0.24642347  0.87961328  1
  O  O313  1  0.74969724  0.73564859  0.36599090  1
  O  O314  1  0.73865791  0.73966113  0.87143496  1
  O  O315  1  0.00940699  0.11840427  0.00579775  1
  O  O316  1  0.00295726  0.12111535  0.49676233  1
  O  O317  1  0.00526841  0.60308862  0.00166698  1
  O  O318  1  0.00377849  0.62440794  0.50569753  1
  O  O319  1  0.50990641  0.11567083  -0.00264906  1
  O  O320  1  0.50702694  0.12254747  0.50875496  1
  O  O321  1  0.51368900  0.62535545  0.01157742  1
  O  O322  1  0.50927392  0.61977599  0.50294257  1
  O  O323  1  0.48711787  0.38532424  0.50632372  1
  O  O324  1  0.49102116  0.38046735  0.99640625  1
  O  O325  1  0.49006320  0.87670361  0.49069928  1
  O  O326  1  0.49607006  0.89085601  1.00381578  1
  O  O327  1  0.99076994  0.37487548  0.49547966  1
  O  O328  1  1.00027641  0.38798173  0.99872024  1
  O  O329  1  0.98747550  0.86896339  0.49280163  1
  O  O330  1  1.00982137  0.88257149  0.99207697  1
  O  O331  1  0.48463818  0.50852650  0.38688526  1
  O  O332  1  0.51474018  0.48141864  0.88568382  1
  O  O333  1  0.48891076  0.99048171  0.37490244  1
  O  O334  1  0.48782856  1.00833983  0.87995763  1
  O  O335  1  0.99357965  0.48151615  0.37586920  1
  O  O336  1  0.98357217  0.49771249  0.87099990  1
  O  O337  1  0.98685136  0.98584327  0.36745220  1
  O  O338  1  0.99917894  0.99276216  0.87998433  1
  O  O339  1  0.00157973  0.00432768  0.11695202  1
  O  O340  1  -0.00781322  -0.00023841  0.64527940  1
  O  O341  1  -0.00499041  0.49500266  0.11859703  1
  O  O342  1  -0.00435918  0.51458451  0.62963062  1
  O  O343  1  0.50289236  0.00927498  0.11615684  1
  O  O344  1  0.50382265  0.00748936  0.62234214  1
  O  O345  1  0.50730120  0.50985705  0.12007418  1
  O  O346  1  0.50001607  0.50727789  0.61642734  1
  O  O347  1  0.24044941  0.37273698  0.24465654  1
  O  O348  1  0.23545175  0.37777360  0.74147775  1
  O  O349  1  0.24578758  0.88174716  0.24500402  1
  O  O350  1  0.24856584  0.88448919  0.74154356  1
  O  O351  1  0.74071878  0.38143601  0.24413365  1
  O  O352  1  0.74660380  0.38131810  0.74258443  1
  O  O353  1  0.75282415  0.88732003  0.25067288  1
  O  O354  1  0.73804987  0.88635870  0.73163274  1
  O  O355  1  0.25366310  0.11767078  0.26122947  1
  O  O356  1  0.24353852  0.11962312  0.75841672  1
  O  O357  1  0.25530609  0.62549241  0.25574313  1
  O  O358  1  0.24622970  0.60750079  0.74141602  1
  O  O359  1  0.75937462  0.11292398  0.24756891  1
  O  O360  1  0.74416006  0.11791954  0.75855769  1
  O  O361  1  0.73910634  0.60549013  0.26914197  1
  O  O362  1  0.74882226  0.61791376  0.75950588  1
  O  O363  1  0.36600763  0.11797395  0.36967519  1
  O  O364  1  0.36506886  0.12030124  0.87955899  1
  O  O365  1  0.36539258  0.62187483  0.36835203  1
  O  O366  1  0.42405873  0.61050171  0.86850879  1
  O  O367  1  0.87481829  0.11806710  0.36821811  1
  O  O368  1  0.87358282  0.11285626  0.87612596  1
  O  O369  1  0.85631968  0.62420674  0.38608341  1
  O  O370  1  0.86371326  0.61487996  0.87050081  1
  O  O371  1  0.13464984  0.37334943  0.13700216  1
  O  O372  1  0.12777023  0.37383415  0.62921178  1
  O  O373  1  0.13630114  0.87871845  0.13152564  1
  O  O374  1  0.13011677  0.87920495  0.62526407  1
  O  O375  1  0.63185617  0.37804919  0.13235089  1
  O  O376  1  0.63533028  0.37273480  0.62605917  1
  O  O377  1  0.63973397  0.88520730  0.12485406  1
  O  O378  1  0.62923117  0.88080355  0.62349799  1
  O  O379  1  0.12618175  0.26504722  0.24906724  1
  O  O380  1  0.11228523  0.25516587  0.75138658  1
  O  O381  1  0.11973721  0.76347136  0.24441980  1
  O  O382  1  0.11718556  0.74774361  0.75635933  1
  O  O383  1  0.62391745  0.25461389  0.26034916  1
  O  O384  1  0.62310503  0.25009572  0.76375667  1
  O  O385  1  0.61399651  0.75159097  0.24649801  1
  O  O386  1  0.62053201  0.75999396  0.75383098  1
  O  O387  1  0.37001188  0.23556835  0.25433546  1
  O  O388  1  0.37346085  0.25570085  0.73702346  1
  O  O389  1  0.38170715  0.74069154  0.24263966  1
  O  O390  1  0.39236444  0.76157856  0.74858799  1
  O  O391  1  0.87216969  0.23564362  0.24485211  1
  O  O392  1  0.88583248  0.25097215  0.74536096  1
  O  O393  1  0.89212353  0.75292399  0.24503314  1
  O  O394  1  0.88439118  0.74006045  0.73880598  1
  O  O395  1  0.37795046  0.49166000  0.49312170  1
  O  O396  1  0.37874487  0.49557515  0.99973770  1
  O  O397  1  0.37432704  0.99321938  0.48717026  1
  O  O398  1  0.38230973  0.99914177  0.99402703  1
  O  O399  1  0.87653920  0.48543549  0.50981938  1
  O  O400  1  0.88425567  0.50122385  0.98895014  1
  O  O401  1  0.87250193  0.98996578  0.49074483  1
  O  O402  1  0.89197852  1.00537093  0.99084603  1
  O  O403  1  0.11724405  0.00600525  -0.00120105  1
  O  O404  1  0.12668339  0.01636500  0.50326200  1
  O  O405  1  0.11090588  0.49777325  -0.00085441  1
  O  O406  1  0.11636812  0.51228641  0.50402214  1
  O  O407  1  0.61799525  0.00921753  -0.00368531  1
  O  O408  1  0.62196408  0.00880736  0.50390948  1
  O  O409  1  0.61880159  0.50844866  0.00904549  1
  O  O410  1  0.61172558  0.49935219  0.49999693  1
  O  O411  1  0.37043336  0.37354393  0.11371797  1
  O  O412  1  0.36442719  0.36747434  0.61761915  1
  O  O413  1  0.37334686  0.87636063  0.11520359  1
  O  O414  1  0.36745596  0.87365751  0.61183570  1
  O  O415  1  0.86723450  0.36000334  0.13560035  1
  O  O416  1  0.86386919  0.36747856  0.62211067  1
  O  O417  1  0.86101784  0.87361625  0.12352470  1
  O  O418  1  0.86588180  0.86532973  0.61903691  1
  O  O419  1  0.13259736  0.12058819  0.38509820  1
  O  O420  1  0.13665528  0.13138732  0.88275470  1
  O  O421  1  0.12988943  0.62121162  0.38646420  1
  O  O422  1  0.12312233  0.63650059  0.87964141  1
  O  O423  1  0.62174394  0.13241933  0.38076519  1
  O  O424  1  0.63204179  0.13097204  0.88335150  1
  O  O425  1  0.62977288  0.62061503  0.38847678  1
  O  O426  1  0.62749583  0.63311388  0.88277449  1
