# generated using pymatgen
data_V85Zn86O256
_symmetry_space_group_name_H-M   'P 1'
_cell_length_a   16.95843586
_cell_length_b   16.95789864
_cell_length_c   16.93669276
_cell_angle_alpha   89.90489705
_cell_angle_beta   89.98480687
_cell_angle_gamma   89.97322246
_symmetry_Int_Tables_number   1
_chemical_formula_structural   V85Zn86O256
_chemical_formula_sum   'V85 Zn86 O256'
_cell_volume   4870.63714783
_cell_formula_units_Z   1
loop_
 _symmetry_equiv_pos_site_id
 _symmetry_equiv_pos_as_xyz
  1  'x, y, z'
loop_
 _atom_site_type_symbol
 _atom_site_label
 _atom_site_symmetry_multiplicity
 _atom_site_fract_x
 _atom_site_fract_y
 _atom_site_fract_z
 _atom_site_occupancy
  V  V0  1  0.75126541  0.01950057  0.25996493  1
  V  V1  1  0.00068922  0.01052746  0.51499468  1
  V  V2  1  0.62303367  0.12207800  -0.00421850  1
  V  V3  1  0.12689028  0.87539011  0.74802403  1
  V  V4  1  0.49939172  0.24905604  0.75116286  1
  V  V5  1  0.36421867  0.50268524  0.87219622  1
  V  V6  1  0.50127845  0.37139698  0.87627566  1
  V  V7  1  0.36657493  0.62530809  0.75432232  1
  V  V8  1  0.87539852  0.75728605  0.61928644  1
  V  V9  1  0.13553209  0.62233726  -0.00309191  1
  V  V10  1  0.11902166  0.36530088  0.24875431  1
  V  V11  1  0.00007298  0.62576703  0.62390745  1
  V  V12  1  0.36799172  0.12427430  0.25506972  1
  V  V13  1  0.49942097  0.62392750  0.12719477  1
  V  V14  1  0.12621338  0.62380656  0.49753163  1
  V  V15  1  0.37394184  0.49528421  0.37745924  1
  V  V16  1  0.37661368  0.61808466  0.24529293  1
  V  V17  1  0.62663017  0.22949374  0.38273891  1
  V  V18  1  0.50137610  0.62974295  0.62481675  1
  V  V19  1  0.62437879  0.75190922  0.36445028  1
  V  V20  1  -0.00938801  0.87767394  0.38460964  1
  V  V21  1  0.88001211  0.00335349  0.87544985  1
  V  V22  1  -0.00664910  0.37419072  0.37658846  1
  V  V23  1  0.37916092  0.12193893  0.75754768  1
  V  V24  1  0.24664993  0.49370835  0.24861983  1
  V  V25  1  0.49973363  0.13223944  0.61734413  1
  V  V26  1  0.74818702  0.00022015  0.75105363  1
  V  V27  1  0.12336027  0.24509476  0.86952474  1
  V  V28  1  0.62607614  0.50150106  0.62611346  1
  V  V29  1  0.25899173  -0.00360330  0.75592403  1
  V  V30  1  -0.00559957  0.49560010  0.50163328  1
  V  V31  1  0.36395274  0.36831732  0.51201472  1
  V  V32  1  0.24875349  0.87688184  0.62150861  1
  V  V33  1  0.62498381  0.75802124  0.87644544  1
  V  V34  1  0.00024311  0.62288481  0.12313444  1
  V  V35  1  0.14750373  0.38168970  0.75091035  1
  V  V36  1  0.49826033  0.87372412  0.38239249  1
  V  V37  1  0.49913002  0.50009568  0.50081917  1
  V  V38  1  0.87407822  0.87683268  -0.00170719  1
  V  V39  1  0.48237364  0.87770023  0.87745476  1
  V  V40  1  0.25000019  0.24893406  -0.00556843  1
  V  V41  1  0.88761907  0.25906249  0.62641186  1
  V  V42  1  -0.00246311  0.49928485  -0.00176695  1
  V  V43  1  -0.01321663  0.14015307  0.12182684  1
  V  V44  1  0.50196005  0.75215198  0.75081288  1
  V  V45  1  0.00229643  0.74939062  0.75279799  1
  V  V46  1  0.00228013  -0.00207344  0.01181642  1
  V  V47  1  0.75097727  0.50297694  0.75100489  1
  V  V48  1  0.50027931  0.49959791  -0.00206992  1
  V  V49  1  0.37553515  0.37446566  -0.00217313  1
  V  V50  1  0.13807674  0.74483398  0.87214125  1
  V  V51  1  0.37009498  -0.00793950  0.38215618  1
  V  V52  1  0.50339622  0.37223735  0.37873040  1
  V  V53  1  0.50649926  0.11928003  0.12663504  1
  V  V54  1  0.75164938  0.62400432  0.37550603  1
  V  V55  1  0.62703929  0.37102671  0.75302360  1
  V  V56  1  0.88224445  0.13097899  0.74336354  1
  V  V57  1  0.87327697  0.36447232  0.00439217  1
  V  V58  1  0.75073290  0.75275469  0.00027356  1
  V  V59  1  0.49890676  0.24736327  0.25318241  1
  V  V60  1  -0.00057733  0.75135771  0.24911242  1
  V  V61  1  0.37961057  0.75614228  0.61786942  1
  V  V62  1  0.48700079  -0.00411702  -0.00109171  1
  V  V63  1  0.62426710  0.00466554  0.61568187  1
  V  V64  1  0.74469209  0.88755861  0.12771476  1
  V  V65  1  0.74822323  0.49621430  0.24788836  1
  V  V66  1  0.46480919  0.78120893  0.22590838  1
  V  V67  1  0.87518519  0.62185044  0.24934350  1
  V  V68  1  0.74597361  0.24345504  0.50669761  1
  V  V69  1  -0.05371876  0.19343933  0.30057495  1
  V  V70  1  0.25119497  0.62741431  0.36992179  1
  V  V71  1  0.25877985  0.76493625  0.01450101  1
  V  V72  1  0.62678905  0.62524145  0.00008798  1
  V  V73  1  -0.00069495  0.37239121  0.86494090  1
  V  V74  1  0.75206957  0.87943850  0.61475830  1
  V  V75  1  0.25863950  0.75744382  0.49275545  1
  V  V76  1  0.12513194  0.12018299  0.00595725  1
  V  V77  1  0.74506283  0.13587549  0.87271938  1
  V  V78  1  0.13031943  0.24341859  0.38347368  1
  V  V79  1  0.87438058  0.75031823  0.12305180  1
  V  V80  1  0.12081607  0.87982698  0.23547763  1
  V  V81  1  0.24356451  -0.00195150  0.23783113  1
  V  V82  1  0.37350109  0.24874958  0.12598276  1
  V  V83  1  0.62595919  0.62702846  0.49835545  1
  V  V84  1  0.12582371  0.75473766  0.37127244  1
  Zn  Zn85  1  0.00243112  0.87648923  0.87508174  1
  Zn  Zn86  1  0.15296898  0.06504864  0.57456394  1
  Zn  Zn87  1  0.62857566  0.88137491  0.24857594  1
  Zn  Zn88  1  0.75067124  0.36526340  0.13000725  1
  Zn  Zn89  1  0.74103522  0.24954741  0.00234070  1
  Zn  Zn90  1  0.75498026  0.37782382  0.61757069  1
  Zn  Zn91  1  0.87536144  0.62650818  0.75243218  1
  Zn  Zn92  1  0.87426983  0.01034260  0.37664540  1
  Zn  Zn93  1  0.62535641  0.37046622  0.24949604  1
  Zn  Zn94  1  0.13727932  0.49026140  0.62430855  1
  Zn  Zn95  1  0.50055429  0.00151962  0.49753055  1
  Zn  Zn96  1  0.62738893  0.49363066  0.12256921  1
  Zn  Zn97  1  0.12393097  0.49489845  0.12401922  1
  Zn  Zn98  1  0.87390132  0.50151065  0.87395514  1
  Zn  Zn99  1  0.24128486  0.11421759  0.39157339  1
  Zn  Zn100  1  0.87043000  0.49279708  0.38165127  1
  Zn  Zn101  1  0.24748624  0.23539220  0.51679380  1
  Zn  Zn102  1  0.75398349  0.75560340  0.49497833  1
  Zn  Zn103  1  0.25565514  0.11584280  0.87870724  1
  Zn  Zn104  1  0.75345911  0.62843146  0.87388290  1
  Zn  Zn105  1  0.62360212  0.87837461  0.74967126  1
  Zn  Zn106  1  0.24798932  0.37078631  0.12505292  1
  Zn  Zn107  1  0.18376678  0.18487478  0.18582313  1
  Zn  Zn108  1  0.18943007  0.18997471  0.69093285  1
  Zn  Zn109  1  0.18583484  0.68518529  0.18433967  1
  Zn  Zn110  1  0.20155836  0.66170993  0.67125478  1
  Zn  Zn111  1  0.68619895  0.19183477  0.18576418  1
  Zn  Zn112  1  0.68506056  0.18743058  0.68699897  1
  Zn  Zn113  1  0.68873610  0.68739955  0.18514085  1
  Zn  Zn114  1  0.68906301  0.69077112  0.68762423  1
  Zn  Zn115  1  0.30950924  0.31016196  0.31924175  1
  Zn  Zn116  1  0.31870706  0.31215319  0.69078117  1
  Zn  Zn117  1  0.31324286  0.81933856  0.29387365  1
  Zn  Zn118  1  0.31047837  0.80373694  0.80923596  1
  Zn  Zn119  1  0.80502961  0.31093884  0.32146503  1
  Zn  Zn120  1  0.81372203  0.31521117  0.81207283  1
  Zn  Zn121  1  0.81306904  0.81206275  0.30967259  1
  Zn  Zn122  1  0.81374565  0.81488565  0.80918580  1
  Zn  Zn123  1  0.18150601  0.43616778  0.43506686  1
  Zn  Zn124  1  0.18719631  0.43523779  0.93627677  1
  Zn  Zn125  1  0.18251371  0.93511607  0.43250528  1
  Zn  Zn126  1  0.18654487  0.93448895  0.93625931  1
  Zn  Zn127  1  0.68881093  0.43322998  0.43999951  1
  Zn  Zn128  1  0.68846097  0.43740384  0.93463441  1
  Zn  Zn129  1  0.68773372  0.94172847  0.43363916  1
  Zn  Zn130  1  0.68309747  0.94523456  0.94030762  1
  Zn  Zn131  1  0.31467344  0.06381527  0.06368785  1
  Zn  Zn132  1  0.32261048  0.06135852  0.56849183  1
  Zn  Zn133  1  0.31335089  0.56122462  0.06345524  1
  Zn  Zn134  1  0.31434542  0.56529741  0.56055457  1
  Zn  Zn135  1  0.81015954  0.06584796  0.06193489  1
  Zn  Zn136  1  0.81740686  0.06379074  0.56050187  1
  Zn  Zn137  1  0.81268455  0.55840323  0.06125893  1
  Zn  Zn138  1  0.81448333  0.56527849  0.56476146  1
  Zn  Zn139  1  0.43995879  0.43470856  0.18578552  1
  Zn  Zn140  1  0.44107375  0.44464904  0.69147925  1
  Zn  Zn141  1  0.43443490  0.94564009  0.18940756  1
  Zn  Zn142  1  0.43907388  0.93739449  0.68648553  1
  Zn  Zn143  1  0.93577880  0.43400519  0.18753936  1
  Zn  Zn144  1  0.94002781  0.44141947  0.68706211  1
  Zn  Zn145  1  0.93104563  0.94091722  0.19055036  1
  Zn  Zn146  1  0.93522138  0.93628477  0.69115106  1
  Zn  Zn147  1  0.06381703  0.05679609  0.31353290  1
  Zn  Zn148  1  0.08294592  0.08090060  0.77446112  1
  Zn  Zn149  1  0.06238484  0.55883157  0.31277040  1
  Zn  Zn150  1  0.06564669  0.56071113  0.81342364  1
  Zn  Zn151  1  0.56255701  0.05535210  0.30857458  1
  Zn  Zn152  1  0.56279040  0.05902271  0.81303730  1
  Zn  Zn153  1  0.56437458  0.55984775  0.31245115  1
  Zn  Zn154  1  0.56093661  0.56425552  0.81413526  1
  Zn  Zn155  1  0.43163262  0.18829921  0.43797888  1
  Zn  Zn156  1  0.44042640  0.18876935  0.93690226  1
  Zn  Zn157  1  0.43959221  0.68881084  0.42972280  1
  Zn  Zn158  1  0.43409592  0.69027874  0.93965292  1
  Zn  Zn159  1  0.94128092  0.18539432  0.46753727  1
  Zn  Zn160  1  0.93964369  0.18572525  0.93219896  1
  Zn  Zn161  1  0.93695353  0.68804076  0.43777854  1
  Zn  Zn162  1  0.93918138  0.68538865  0.93469512  1
  Zn  Zn163  1  0.06275802  0.31268037  0.05773610  1
  Zn  Zn164  1  0.06819868  0.31520064  0.56683261  1
  Zn  Zn165  1  0.06316207  0.80796848  0.05599486  1
  Zn  Zn166  1  0.06614813  0.81155633  0.56157887  1
  Zn  Zn167  1  0.56664875  0.30741084  0.06487949  1
  Zn  Zn168  1  0.56475803  0.31364221  0.56320875  1
  Zn  Zn169  1  0.56221451  0.81667945  0.06068364  1
  Zn  Zn170  1  0.56995533  0.81509671  0.55857970  1
  O  O171  1  0.11446198  0.12750125  0.11068480  1
  O  O172  1  0.11615826  0.11199932  0.66754183  1
  O  O173  1  0.11490080  0.62027358  0.11787156  1
  O  O174  1  0.10492409  0.64875586  0.61014098  1
  O  O175  1  0.60964580  0.12515266  0.12169713  1
  O  O176  1  0.61011386  0.11725865  0.63139584  1
  O  O177  1  0.61907480  0.62407863  0.11421957  1
  O  O178  1  0.62050925  0.62312896  0.61850728  1
  O  O179  1  0.38351295  0.37755098  0.38476843  1
  O  O180  1  0.38723913  0.38688042  0.88501690  1
  O  O181  1  0.38405598  0.88187213  0.36618233  1
  O  O182  1  0.38413741  0.86711651  0.87153839  1
  O  O183  1  0.88932384  0.37276244  0.37403221  1
  O  O184  1  0.88348341  0.37781692  0.88175092  1
  O  O185  1  0.88940610  0.87001452  0.37321683  1
  O  O186  1  0.87549618  0.88397485  0.88079906  1
  O  O187  1  0.25461137  -0.00133404  0.36697249  1
  O  O188  1  0.24906066  -0.00362498  0.86087225  1
  O  O189  1  0.25232809  0.50310470  0.36448499  1
  O  O190  1  0.26539751  0.50081854  0.88349360  1
  O  O191  1  0.75577527  0.00253099  0.36599798  1
  O  O192  1  0.75835291  0.00483616  0.86729332  1
  O  O193  1  0.75086997  0.50730730  0.37067071  1
  O  O194  1  0.74797551  0.50458631  0.86139331  1
  O  O195  1  0.24911816  0.49568739  0.13805274  1
  O  O196  1  0.22881290  0.55425766  0.62827655  1
  O  O197  1  0.25630578  1.00038260  0.13931915  1
  O  O198  1  0.25276113  0.98816389  0.63347961  1
  O  O199  1  0.74876264  0.49590474  0.13480557  1
  O  O200  1  0.74457495  0.49960504  0.63256024  1
  O  O201  1  0.75540675  0.99076317  0.13358563  1
  O  O202  1  0.74585496  0.99768410  0.62994543  1
  O  O203  1  0.00927036  0.38055278  0.25965658  1
  O  O204  1  0.00125336  0.37956362  0.76368424  1
  O  O205  1  0.00274524  0.87059086  0.25689690  1
  O  O206  1  0.00901707  0.86727299  0.75081447  1
  O  O207  1  0.49702391  0.36563918  0.26143439  1
  O  O208  1  0.50489280  0.36961457  0.75625275  1
  O  O209  1  0.51141702  0.87788109  0.25856262  1
  O  O210  1  0.50258642  0.87018190  0.75933688  1
  O  O211  1  0.49059770  0.12529348  0.24471574  1
  O  O212  1  0.49920195  0.13185485  0.74697384  1
  O  O213  1  0.49406653  0.61685412  0.23793138  1
  O  O214  1  0.49900355  0.63454645  0.74245582  1
  O  O215  1  1.00139992  0.12764888  0.23855301  1
  O  O216  1  0.97846339  0.12758124  0.76306067  1
  O  O217  1  0.99555882  0.62876463  0.24467744  1
  O  O218  1  1.00281933  0.63225872  0.74109663  1
  O  O219  1  0.36860795  0.25344139  0.00376534  1
  O  O220  1  0.36842627  0.26512871  0.49818177  1
  O  O221  1  0.35748198  0.74648208  0.00010251  1
  O  O222  1  0.36983026  0.74627579  0.50399151  1
  O  O223  1  0.87585442  0.26346559  -0.00696796  1
  O  O224  1  0.86463415  0.24936681  0.51930616  1
  O  O225  1  0.87075063  0.75705098  0.00236172  1
  O  O226  1  0.87364289  0.74652206  0.51475558  1
  O  O227  1  0.12726256  0.25610750  0.48693270  1
  O  O228  1  0.13159240  0.24210874  0.99332046  1
  O  O229  1  0.13251837  0.74744210  0.48448207  1
  O  O230  1  0.13057835  0.74089227  0.99126854  1
  O  O231  1  0.62880206  0.24900517  0.49100400  1
  O  O232  1  0.61832898  0.22954018  0.99882156  1
  O  O233  1  0.62670879  0.74271547  0.48548630  1
  O  O234  1  0.62988659  0.74569929  0.99495481  1
  O  O235  1  0.49228075  0.24035916  0.13330467  1
  O  O236  1  0.50586153  0.23813503  0.63097603  1
  O  O237  1  0.50677837  0.74337882  0.13493884  1
  O  O238  1  0.49702931  0.75124950  0.62708662  1
  O  O239  1  0.99930406  0.23883173  0.11991010  1
  O  O240  1  0.98637780  0.25316888  0.62047955  1
  O  O241  1  0.99341115  0.74307235  0.12819452  1
  O  O242  1  0.99247598  0.75096042  0.63361223  1
  O  O243  1  0.00417978  0.25120178  0.37373884  1
  O  O244  1  0.01200912  0.26005851  0.88281964  1
  O  O245  1  0.00648337  0.75667137  0.37020075  1
  O  O246  1  0.00571733  0.75045438  0.86253533  1
  O  O247  1  0.50704999  0.25395994  0.37587962  1
  O  O248  1  0.49761990  0.26406035  0.86828794  1
  O  O249  1  0.50479685  0.75842365  0.36089736  1
  O  O250  1  0.50711816  0.75867998  0.87386924  1
  O  O251  1  0.24106685  0.11657507  0.50996423  1
  O  O252  1  0.24192241  0.12702809  0.99918688  1
  O  O253  1  0.24832360  0.64020004  0.48556410  1
  O  O254  1  0.23720990  0.62650902  1.00685065  1
  O  O255  1  0.75283056  0.14186092  0.50503833  1
  O  O256  1  0.74027568  0.12117562  0.98981244  1
  O  O257  1  0.74516509  0.62670343  0.49129265  1
  O  O258  1  0.74134785  0.63157892  0.99957905  1
  O  O259  1  0.25609670  0.36560086  0.00185742  1
  O  O260  1  0.26431455  0.38196177  0.49700106  1
  O  O261  1  0.24581683  0.86439981  0.00363184  1
  O  O262  1  0.24539596  0.86424140  0.50414200  1
  O  O263  1  0.76399273  0.37485424  -0.00539725  1
  O  O264  1  0.74606910  0.35818794  0.50194239  1
  O  O265  1  0.75353239  0.87541942  0.00967181  1
  O  O266  1  0.74731833  0.87584881  0.51071868  1
  O  O267  1  0.13232456  0.48836413  0.25040836  1
  O  O268  1  0.12679658  0.48459136  0.75455609  1
  O  O269  1  0.13438238  0.99516956  0.24863249  1
  O  O270  1  0.13431895  0.97853686  0.75660365  1
  O  O271  1  0.63828494  0.49958473  0.24941949  1
  O  O272  1  0.63024969  0.49687157  0.74439195  1
  O  O273  1  0.64426389  0.99811980  0.25328500  1
  O  O274  1  0.63366915  0.99904988  0.74052550  1
  O  O275  1  0.36263861  0.00749248  0.25898770  1
  O  O276  1  0.37035135  0.00616653  0.74799478  1
  O  O277  1  0.36853044  0.50244325  0.25528647  1
  O  O278  1  0.37889698  0.51250509  0.75870641  1
  O  O279  1  0.85823425  -0.00159829  0.25632050  1
  O  O280  1  0.86864505  0.01056048  0.75538188  1
  O  O281  1  0.86516507  0.50493215  0.25361981  1
  O  O282  1  0.86443506  0.50288506  0.74948137  1
  O  O283  1  0.11606332  0.36261118  0.36943628  1
  O  O284  1  0.12008046  0.36934128  0.86881237  1
  O  O285  1  0.11316869  0.86757121  0.36404648  1
  O  O286  1  0.12218430  0.86199622  0.86775494  1
  O  O287  1  0.61031791  0.37238181  0.37555144  1
  O  O288  1  0.61669965  0.38136461  0.86181239  1
  O  O289  1  0.61966801  0.86687590  0.37371573  1
  O  O290  1  0.62114633  0.86632912  0.87698647  1
  O  O291  1  0.38066587  0.12931345  0.13758901  1
  O  O292  1  0.39416981  0.11978963  0.63834953  1
  O  O293  1  0.38451839  0.62044503  0.13421762  1
  O  O294  1  0.38437171  0.63761945  0.63120152  1
  O  O295  1  0.88811989  0.12662783  0.11921095  1
  O  O296  1  0.87310625  0.13404393  0.63824819  1
  O  O297  1  0.88088642  0.62929345  0.12837682  1
  O  O298  1  0.88679950  0.63371892  0.62773050  1
  O  O299  1  0.25555010  0.24699033  0.11468515  1
  O  O300  1  0.24960036  0.25468663  0.62671450  1
  O  O301  1  0.24466111  0.74993548  0.11369688  1
  O  O302  1  0.26133055  0.75239774  0.61129323  1
  O  O303  1  0.74561960  0.25245518  0.11609501  1
  O  O304  1  0.74910394  0.25393881  0.61847430  1
  O  O305  1  0.75674605  0.75683209  0.11806250  1
  O  O306  1  0.75675186  0.76147524  0.62475459  1
  O  O307  1  0.23878726  0.24329211  0.38346657  1
  O  O308  1  0.24199887  0.24290859  0.89007602  1
  O  O309  1  0.24420842  0.75149141  0.37385482  1
  O  O310  1  0.24007117  0.75190765  0.88531106  1
  O  O311  1  0.73286143  0.24869936  0.38523292  1
  O  O312  1  0.75150355  0.23854464  0.87708943  1
  O  O313  1  0.74397459  0.74295078  0.37465407  1
  O  O314  1  0.74222676  0.75244174  0.88108015  1
  O  O315  1  0.00377509  0.11947417  0.00745083  1
  O  O316  1  0.01369871  0.11113014  0.50962249  1
  O  O317  1  0.00630356  0.61687768  0.00441259  1
  O  O318  1  0.00428350  0.61857206  0.50322383  1
  O  O319  1  0.50094476  0.11563955  0.00588016  1
  O  O320  1  0.49293021  0.12540853  0.51444683  1
  O  O321  1  0.50555994  0.62392146  0.01086953  1
  O  O322  1  0.50554823  0.62102265  0.50257200  1
  O  O323  1  0.49025089  0.37929616  0.49643117  1
  O  O324  1  0.49801399  0.37760036  0.99333453  1
  O  O325  1  0.50262048  0.87545264  0.48606864  1
  O  O326  1  0.49965584  0.88747853  0.99599260  1
  O  O327  1  1.00898259  0.38495251  0.49200545  1
  O  O328  1  0.99146249  0.38155518  0.99395116  1
  O  O329  1  1.00234923  0.87297786  0.48635533  1
  O  O330  1  0.99403643  0.88233836  0.99760740  1
  O  O331  1  0.49487417  0.49181972  0.38073889  1
  O  O332  1  0.49753091  0.49145513  0.88089669  1
  O  O333  1  0.49143360  0.99157281  0.37506597  1
  O  O334  1  0.50303050  0.98989461  0.88703167  1
  O  O335  1  0.99838515  0.49125726  0.38316559  1
  O  O336  1  1.00092917  0.49238965  0.88599879  1
  O  O337  1  0.99745070  0.98744668  0.37842412  1
  O  O338  1  0.98428526  1.00100126  0.88335218  1
  O  O339  1  -0.00631657  0.00652924  0.11454304  1
  O  O340  1  -0.00257404  -0.01025501  0.61306645  1
  O  O341  1  -0.00016210  0.50388017  0.11428277  1
  O  O342  1  0.00706084  0.51050495  0.61976923  1
  O  O343  1  0.49296696  0.00608501  0.11371087  1
  O  O344  1  0.50819883  0.00683168  0.62216469  1
  O  O345  1  0.50274801  0.50712795  0.11682129  1
  O  O346  1  0.50658339  0.50968622  0.61956072  1
  O  O347  1  0.24311014  0.37946790  0.25151817  1
  O  O348  1  0.24613775  0.37891001  0.75576694  1
  O  O349  1  0.23439824  0.88951646  0.25189306  1
  O  O350  1  0.24749623  0.87551831  0.74129494  1
  O  O351  1  0.74803179  0.38335754  0.25324430  1
  O  O352  1  0.74120634  0.38307906  0.74872346  1
  O  O353  1  0.75049561  0.87390934  0.23562640  1
  O  O354  1  0.75005748  0.88950230  0.74354251  1
  O  O355  1  0.25309840  0.11474405  0.25177883  1
  O  O356  1  0.26391788  0.11337827  0.75330124  1
  O  O357  1  0.25550034  0.61528185  0.25145391  1
  O  O358  1  0.26918305  0.64585491  0.76204889  1
  O  O359  1  0.74846050  0.11741538  0.24923803  1
  O  O360  1  0.75464206  0.11676176  0.75519643  1
  O  O361  1  0.75486660  0.61886809  0.25634089  1
  O  O362  1  0.74987919  0.61722761  0.75078754  1
  O  O363  1  0.37016574  0.11839567  0.36651337  1
  O  O364  1  0.37792185  0.12810499  0.86213783  1
  O  O365  1  0.36997087  0.61150655  0.37118536  1
  O  O366  1  0.38984414  0.61472118  0.86518895  1
  O  O367  1  0.89589512  0.13577385  0.36799889  1
  O  O368  1  0.86443783  0.12042345  0.86900269  1
  O  O369  1  0.86345463  0.62538306  0.37029448  1
  O  O370  1  0.87191500  0.62127412  0.87104103  1
  O  O371  1  0.12580858  0.37396776  0.13356635  1
  O  O372  1  0.12476391  0.37578675  0.64601914  1
  O  O373  1  0.11349084  0.87059331  0.13671549  1
  O  O374  1  0.14111342  0.86176608  0.63293900  1
  O  O375  1  0.62581923  0.37686583  0.13110340  1
  O  O376  1  0.62199909  0.38544850  0.63646789  1
  O  O377  1  0.64196773  0.87149692  0.12465032  1
  O  O378  1  0.63390010  0.88320895  0.62807029  1
  O  O379  1  0.13161770  0.25981441  0.26051756  1
  O  O380  1  0.13183667  0.26443309  0.76601603  1
  O  O381  1  0.11994001  0.75432786  0.25653755  1
  O  O382  1  0.12053017  0.75443065  0.75672827  1
  O  O383  1  0.61665167  0.24754945  0.26697114  1
  O  O384  1  0.61448817  0.26021798  0.74678477  1
  O  O385  1  0.62692080  0.75019564  0.25973166  1
  O  O386  1  0.62061960  0.75339233  0.75996290  1
  O  O387  1  0.37741312  0.24144046  0.25055482  1
  O  O388  1  0.39220660  0.24245990  0.74670842  1
  O  O389  1  0.37838940  0.72292084  0.27009811  1
  O  O390  1  0.38569235  0.74623261  0.74044971  1
  O  O391  1  0.88061611  0.25070356  0.25446010  1
  O  O392  1  0.86603813  0.23983610  0.73936375  1
  O  O393  1  0.88097408  0.74189524  0.24322614  1
  O  O394  1  0.88455035  0.74987681  0.74173844  1
  O  O395  1  0.38019355  0.49408227  0.49718531  1
  O  O396  1  0.38244598  0.49554673  0.99591163  1
  O  O397  1  0.37710271  1.00100869  0.48555167  1
  O  O398  1  0.38748250  1.00551337  0.99705376  1
  O  O399  1  0.88918449  0.50422747  0.50087743  1
  O  O400  1  0.88306020  0.49242673  0.99592653  1
  O  O401  1  0.89213492  1.00788040  0.49359958  1
  O  O402  1  0.87881291  0.99565057  0.99405249  1
  O  O403  1  0.11309859  0.00830844  -0.00961741  1
  O  O404  1  0.10882720  -0.00999567  0.49956052  1
  O  O405  1  0.11790727  0.50513993  0.00084396  1
  O  O406  1  0.11695179  0.50752881  0.50094115  1
  O  O407  1  0.61127962  0.01253539  0.00055189  1
  O  O408  1  0.62369972  -0.00091471  0.51172797  1
  O  O409  1  0.61986354  0.51013736  -0.00208819  1
  O  O410  1  0.61914473  0.50612574  0.50510143  1
  O  O411  1  0.37453111  0.36643863  0.11713355  1
  O  O412  1  0.37850984  0.38162479  0.61592826  1
  O  O413  1  0.38528214  0.84350832  0.18838146  1
  O  O414  1  0.36654370  0.86285048  0.62745030  1
  O  O415  1  0.87438536  0.37774258  0.10796496  1
  O  O416  1  0.87354755  0.36213977  0.63492132  1
  O  O417  1  0.86608206  0.87034035  0.11803420  1
  O  O418  1  0.86424925  0.86860909  0.63060301  1
  O  O419  1  0.12282327  0.14042792  0.36803330  1
  O  O420  1  0.12561124  0.13245280  0.87702704  1
  O  O421  1  0.13092953  0.63341568  0.37602039  1
  O  O422  1  0.11963552  0.63316863  0.88474405  1
  O  O423  1  0.61558255  0.13213387  0.38000678  1
  O  O424  1  0.63485730  0.11813050  0.88022092  1
  O  O425  1  0.63419069  0.63036124  0.37633345  1
  O  O426  1  0.62203556  0.63827221  0.88673626  1
