# generated using pymatgen
data_V85Zn86O256
_symmetry_space_group_name_H-M   'P 1'
_cell_length_a   16.99149010
_cell_length_b   16.95655142
_cell_length_c   16.98199586
_cell_angle_alpha   90.01210039
_cell_angle_beta   90.01332796
_cell_angle_gamma   90.07387035
_symmetry_Int_Tables_number   1
_chemical_formula_structural   V85Zn86O256
_chemical_formula_sum   'V85 Zn86 O256'
_cell_volume   4892.79867612
_cell_formula_units_Z   1
loop_
 _symmetry_equiv_pos_site_id
 _symmetry_equiv_pos_as_xyz
  1  'x, y, z'
loop_
 _atom_site_type_symbol
 _atom_site_label
 _atom_site_symmetry_multiplicity
 _atom_site_fract_x
 _atom_site_fract_y
 _atom_site_fract_z
 _atom_site_occupancy
  V  V0  1  0.24841407  0.50162036  0.75008599  1
  V  V1  1  0.37355735  0.12550729  0.75563018  1
  V  V2  1  0.87527291  0.50440459  0.88166587  1
  V  V3  1  0.00057715  0.25127276  0.75261735  1
  V  V4  1  0.50386309  0.25571988  0.75965756  1
  V  V5  1  0.01950315  0.62652325  0.12132370  1
  V  V6  1  0.24803291  0.37083947  0.62659722  1
  V  V7  1  0.49911925  0.50061167  0.50576270  1
  V  V8  1  0.37144408  0.37065968  0.49676476  1
  V  V9  1  0.74736191  0.74533139  0.49760274  1
  V  V10  1  0.26012737  0.86433983  0.62621806  1
  V  V11  1  0.64367973  -0.00000032  0.13182166  1
  V  V12  1  0.74772691  0.87200843  0.62436928  1
  V  V13  1  0.37763104  0.00010232  0.87969551  1
  V  V14  1  0.50099759  0.25145729  0.25558577  1
  V  V15  1  0.38135939  0.49496763  0.86904520  1
  V  V16  1  0.37712905  0.24689953  0.12412109  1
  V  V17  1  0.87453891  0.12505876  0.74825550  1
  V  V18  1  0.74974201  0.00150170  0.74777955  1
  V  V19  1  0.12596753  0.87599703  0.74578044  1
  V  V20  1  0.12874348  0.00278474  0.12093548  1
  V  V21  1  0.00851535  0.01156893  -0.00337042  1
  V  V22  1  0.87376560  0.62663948  0.74853202  1
  V  V23  1  0.00309689  0.62484418  0.61740171  1
  V  V24  1  0.50334837  0.87703574  0.87813209  1
  V  V25  1  0.14263689  0.01401520  0.60853058  1
  V  V26  1  0.61522114  0.74651122  0.37026188  1
  V  V27  1  0.36369565  -0.00049747  0.38070495  1
  V  V28  1  0.24471764  0.50249275  0.25020314  1
  V  V29  1  0.74572359  0.38220928  0.62793101  1
  V  V30  1  0.62747827  0.61469777  0.50123434  1
  V  V31  1  0.36918600  0.24848121  0.62372291  1
  V  V32  1  0.37897903  0.49758750  0.37406345  1
  V  V33  1  0.00447894  0.35494633  0.36612098  1
  V  V34  1  0.75046978  0.63042994  0.87940706  1
  V  V35  1  0.86794223  0.00507532  0.36901891  1
  V  V36  1  0.37546239  0.87266248  0.00486691  1
  V  V37  1  0.00001517  0.75073014  0.74744749  1
  V  V38  1  0.63455540  0.87498217  0.24725025  1
  V  V39  1  0.85997230  0.35864756  0.46743146  1
  V  V40  1  0.25967881  0.74756290  0.50528929  1
  V  V41  1  0.62468418  0.75589661  0.87756576  1
  V  V42  1  0.24797246  0.38089226  0.12374841  1
  V  V43  1  0.12411863  0.50039489  0.61557355  1
  V  V44  1  0.01971085  0.50779261  0.00156837  1
  V  V45  1  0.25174309  0.87767517  0.12992166  1
  V  V46  1  0.36346465  0.11900458  0.25439677  1
  V  V47  1  0.00086961  0.37838363  0.87770235  1
  V  V48  1  -0.00007085  0.87577791  0.87453199  1
  V  V49  1  0.87506117  0.74973291  0.12553182  1
  V  V50  1  0.24548167  0.62140219  0.38306797  1
  V  V51  1  0.62502955  0.37508114  0.25229871  1
  V  V52  1  0.12349653  0.75214515  0.38380025  1
  V  V53  1  0.00111316  0.12404869  0.62004137  1
  V  V54  1  0.61814660  -0.00071828  0.61603908  1
  V  V55  1  -0.00139805  0.49900954  0.48976057  1
  V  V56  1  0.87401856  0.26044424  0.62506928  1
  V  V57  1  0.24081330  0.12150429  0.87851967  1
  V  V58  1  0.24440906  0.24577635  -0.00082546  1
  V  V59  1  0.12332171  0.37215706  0.75086866  1
  V  V60  1  0.74076700  0.50504435  0.75011767  1
  V  V61  1  0.25176733  -0.00401035  0.75497130  1
  V  V62  1  0.50032337  0.12143782  0.61997204  1
  V  V63  1  0.87492914  0.87371428  0.49457637  1
  V  V64  1  0.38031394  0.37296330  -0.00533417  1
  V  V65  1  0.50075615  0.88589491  0.37405861  1
  V  V66  1  0.50010990  0.50106621  0.00147999  1
  V  V67  1  0.63074366  0.25621533  0.88128002  1
  V  V68  1  0.37456885  0.62830742  0.74512066  1
  V  V69  1  0.00332686  0.75814717  0.25214366  1
  V  V70  1  0.87468245  0.74860222  0.62306183  1
  V  V71  1  0.62555081  0.87641847  0.75150845  1
  V  V72  1  0.13092549  0.88180759  0.26095808  1
  V  V73  1  0.12493040  0.36363791  0.24787451  1
  V  V74  1  -0.00256621  -0.00426664  0.49762663  1
  V  V75  1  0.50439253  0.62801405  0.62567399  1
  V  V76  1  0.50106414  0.63139474  0.13093904  1
  V  V77  1  0.75034020  0.61731633  0.36775124  1
  V  V78  1  0.75008668  0.37163090  0.11146727  1
  V  V79  1  0.75031852  0.75976116  0.00534712  1
  V  V80  1  0.88294409  0.24261162  0.12038764  1
  V  V81  1  0.50438349  0.00061794  0.01000728  1
  V  V82  1  0.49578509  0.75262316  0.74896868  1
  V  V83  1  0.87842193  0.88069622  0.01126487  1
  V  V84  1  0.37993223  0.63407496  0.25473712  1
  Zn  Zn85  1  0.63224979  0.12898400  0.00268387  1
  Zn  Zn86  1  0.16536541  0.20523607  0.36028340  1
  Zn  Zn87  1  0.62185285  0.63018444  0.00239049  1
  Zn  Zn88  1  0.87609122  0.62687839  0.24624118  1
  Zn  Zn89  1  0.12354693  0.74058373  0.88302958  1
  Zn  Zn90  1  0.62646622  0.50225613  0.12518275  1
  Zn  Zn91  1  0.75042267  0.13288786  0.87412245  1
  Zn  Zn92  1  0.24298690  0.62413810  0.88358145  1
  Zn  Zn93  1  0.61862982  0.38415892  0.75193141  1
  Zn  Zn94  1  0.12162460  0.24628283  0.87956293  1
  Zn  Zn95  1  0.38545335  0.87408465  0.50760668  1
  Zn  Zn96  1  0.87631117  0.00349004  0.87564148  1
  Zn  Zn97  1  0.87307690  0.37436747  -0.00294836  1
  Zn  Zn98  1  0.73464592  0.10923058  0.34621667  1
  Zn  Zn99  1  0.00674226  0.13309095  0.13453148  1
  Zn  Zn100  1  0.37878771  0.75489953  0.13485312  1
  Zn  Zn101  1  0.62972264  0.15238537  0.48222539  1
  Zn  Zn102  1  0.50301996  0.12206641  0.12855966  1
  Zn  Zn103  1  0.88181592  0.50754937  0.36649516  1
  Zn  Zn104  1  0.75549117  0.49509627  0.24440871  1
  Zn  Zn105  1  0.53460705  0.33354616  0.41456614  1
  Zn  Zn106  1  0.23741458  0.74245726  0.00664459  1
  Zn  Zn107  1  0.19077933  0.18681943  0.18122526  1
  Zn  Zn108  1  0.18400121  0.18880668  0.56177496  1
  Zn  Zn109  1  0.19374032  0.69501609  0.19306430  1
  Zn  Zn110  1  0.18351749  0.68515526  0.69368717  1
  Zn  Zn111  1  0.68931765  0.18971618  0.18146151  1
  Zn  Zn112  1  0.70406760  0.17301322  0.65075819  1
  Zn  Zn113  1  0.68532931  0.69125626  0.18632156  1
  Zn  Zn114  1  0.68398588  0.68734846  0.68769671  1
  Zn  Zn115  1  0.31763630  0.31409141  0.30957821  1
  Zn  Zn116  1  0.31060036  0.30991225  0.81292242  1
  Zn  Zn117  1  0.30975207  0.81555546  0.31972800  1
  Zn  Zn118  1  0.31243821  0.80824023  0.82007889  1
  Zn  Zn119  1  0.80005186  0.28214429  0.28935003  1
  Zn  Zn120  1  0.81212369  0.31723300  0.81093486  1
  Zn  Zn121  1  0.81122702  0.80928832  0.31404600  1
  Zn  Zn122  1  0.81456267  0.81621399  0.81471478  1
  Zn  Zn123  1  0.18801953  0.34364657  0.44295223  1
  Zn  Zn124  1  0.19332853  0.43731089  0.93459131  1
  Zn  Zn125  1  0.18331499  1.03542398  0.43388518  1
  Zn  Zn126  1  0.18628344  0.92630835  0.94024923  1
  Zn  Zn127  1  0.69428013  0.32674136  0.44367002  1
  Zn  Zn128  1  0.68163515  0.43897422  0.93242783  1
  Zn  Zn129  1  0.68525323  0.93652976  0.43687867  1
  Zn  Zn130  1  0.69664876  0.95415138  0.94459569  1
  Zn  Zn131  1  0.31233006  0.06095482  0.06457913  1
  Zn  Zn132  1  0.32267174  0.05101833  0.56704152  1
  Zn  Zn133  1  0.31493804  0.56153946  0.06758507  1
  Zn  Zn134  1  0.31285963  0.56142082  0.56402290  1
  Zn  Zn135  1  0.81317994  0.06511883  0.05843941  1
  Zn  Zn136  1  0.80671583  0.06428728  0.55530608  1
  Zn  Zn137  1  0.81124846  0.56462181  0.06479239  1
  Zn  Zn138  1  0.81580992  0.55417807  0.55647523  1
  Zn  Zn139  1  0.43732225  0.43822944  0.18651777  1
  Zn  Zn140  1  0.43764002  0.43760345  0.68371560  1
  Zn  Zn141  1  0.44199649  0.93696528  0.19637640  1
  Zn  Zn142  1  0.43734273  0.93787175  0.69045323  1
  Zn  Zn143  1  0.93607115  0.43841598  0.18639822  1
  Zn  Zn144  1  0.93566375  0.44325435  0.69087245  1
  Zn  Zn145  1  0.95378049  0.96464235  0.20042916  1
  Zn  Zn146  1  0.93788849  0.93855162  0.68102133  1
  Zn  Zn147  1  0.05095197  0.06328497  0.30856533  1
  Zn  Zn148  1  0.06316934  0.05981901  0.80482163  1
  Zn  Zn149  1  0.06784708  0.56861180  0.30532891  1
  Zn  Zn150  1  0.06084624  0.56148363  0.80776307  1
  Zn  Zn151  1  0.55656801  0.06383867  0.30915543  1
  Zn  Zn152  1  0.56438933  0.06688577  0.81226682  1
  Zn  Zn153  1  0.56340430  0.55601369  0.31407757  1
  Zn  Zn154  1  0.56067301  0.56900371  0.81977226  1
  Zn  Zn155  1  0.43070340  0.17985394  0.44039971  1
  Zn  Zn156  1  0.44000986  0.18460423  0.94025883  1
  Zn  Zn157  1  0.43749823  0.68727737  0.43726947  1
  Zn  Zn158  1  0.40356278  0.66896957  0.95449869  1
  Zn  Zn159  1  0.93535269  0.18251853  0.43689406  1
  Zn  Zn160  1  0.93303618  0.19119362  0.94053875  1
  Zn  Zn161  1  0.93843818  0.68835433  0.43567887  1
  Zn  Zn162  1  0.94162948  0.69041951  0.94030038  1
  Zn  Zn163  1  0.06245334  0.31756081  0.06130641  1
  Zn  Zn164  1  0.05209066  0.31634624  0.56069742  1
  Zn  Zn165  1  0.06300686  0.81844031  0.06526270  1
  Zn  Zn166  1  0.06799929  0.81869653  0.56161977  1
  Zn  Zn167  1  0.56203862  0.31428368  0.06479162  1
  Zn  Zn168  1  0.55869786  0.31437481  0.58149451  1
  Zn  Zn169  1  0.56235218  0.81464516  0.06778340  1
  Zn  Zn170  1  0.56260190  0.80916085  0.55972169  1
  O  O171  1  0.12650364  0.10798436  0.13043431  1
  O  O172  1  0.11278036  0.11740573  0.63384981  1
  O  O173  1  0.11772441  0.63236210  0.12806368  1
  O  O174  1  0.11263735  0.61393857  0.63238553  1
  O  O175  1  0.62451132  0.11609449  0.12299552  1
  O  O176  1  0.60565268  0.11353199  0.64296582  1
  O  O177  1  0.61637122  0.62352363  0.12167516  1
  O  O178  1  0.61383068  0.62757927  0.61689873  1
  O  O179  1  0.37783272  0.38435868  0.38532389  1
  O  O180  1  0.37046436  0.38114743  0.88309565  1
  O  O181  1  0.38671707  0.88255953  0.37341034  1
  O  O182  1  0.38257784  0.88190545  0.88442829  1
  O  O183  1  0.90034623  0.38848349  0.36553327  1
  O  O184  1  0.88192396  0.38697083  0.87557484  1
  O  O185  1  0.86788614  0.87619482  0.39197993  1
  O  O186  1  0.88938111  0.87850625  0.87751507  1
  O  O187  1  0.26600862  -0.01592937  0.37535102  1
  O  O188  1  0.25550095  0.00303552  0.87419805  1
  O  O189  1  0.26373267  0.50982022  0.36782082  1
  O  O190  1  0.26340352  0.50205886  0.86742652  1
  O  O191  1  0.76271023  0.00261741  0.38855329  1
  O  O192  1  0.75637918  -0.00682355  0.85370438  1
  O  O193  1  0.75064713  0.51591383  0.36939262  1
  O  O194  1  0.75620728  0.50975371  0.87126733  1
  O  O195  1  0.25882392  0.49060194  0.13509261  1
  O  O196  1  0.24082870  0.49512905  0.63114557  1
  O  O197  1  0.24411461  0.98763031  0.12160480  1
  O  O198  1  0.25152731  0.98584369  0.63946314  1
  O  O199  1  0.74544777  0.49197286  0.12469302  1
  O  O200  1  0.75991627  0.49677697  0.64039749  1
  O  O201  1  0.74237874  1.00030351  0.12745452  1
  O  O202  1  0.74133484  0.99095468  0.63354940  1
  O  O203  1  0.01454189  0.38418498  0.25693744  1
  O  O204  1  0.00516384  0.37486167  0.75816134  1
  O  O205  1  0.01517855  0.86437226  0.24319882  1
  O  O206  1  0.00652446  0.87368542  0.75167077  1
  O  O207  1  0.50507481  0.36306326  0.24342506  1
  O  O208  1  0.49929218  0.35974741  0.74200643  1
  O  O209  1  0.50911835  0.87198659  0.26756971  1
  O  O210  1  0.50455964  0.86889413  0.75581436  1
  O  O211  1  0.48851576  0.13721354  0.24703133  1
  O  O212  1  0.48763693  0.13288894  0.74833442  1
  O  O213  1  0.49130873  0.61682037  0.24414278  1
  O  O214  1  0.49860448  0.63313680  0.74365969  1
  O  O215  1  0.98134733  0.07592200  0.22774069  1
  O  O216  1  0.99248760  0.12862008  0.74153624  1
  O  O217  1  1.00191647  0.63692373  0.23614197  1
  O  O218  1  0.99048200  0.62862551  0.73734735  1
  O  O219  1  0.37047237  0.25554277  0.00467709  1
  O  O220  1  0.38359891  0.25845286  0.51139926  1
  O  O221  1  0.38671130  0.76969805  0.00614901  1
  O  O222  1  0.36324176  0.75055233  0.49826412  1
  O  O223  1  0.87437707  0.25907937  0.00874545  1
  O  O224  1  0.89104974  0.26171604  0.51394825  1
  O  O225  1  0.87023125  0.75875729  0.00518373  1
  O  O226  1  0.86893536  0.75498886  0.50504794  1
  O  O227  1  0.12797732  0.26142520  0.49940833  1
  O  O228  1  0.14126426  0.25636306  0.99826773  1
  O  O229  1  0.13227977  0.75766888  0.48770459  1
  O  O230  1  0.12588651  0.76170548  0.99491681  1
  O  O231  1  0.60808770  0.26956120  0.48936192  1
  O  O232  1  0.61595775  0.24944616  0.98429820  1
  O  O233  1  0.62956236  0.73748242  0.49257814  1
  O  O234  1  0.63457904  0.75666468  0.99613089  1
  O  O235  1  0.48753186  0.24755023  0.12807466  1
  O  O236  1  0.48973201  0.23932647  0.63937113  1
  O  O237  1  0.49831566  0.73603109  0.12374771  1
  O  O238  1  0.50565605  0.74346866  0.63826795  1
  O  O239  1  0.99211256  0.24504816  0.11140582  1
  O  O240  1  0.99417898  0.24468282  0.63408314  1
  O  O241  1  0.99547900  0.74320283  0.12997151  1
  O  O242  1  0.99764196  0.74271967  0.62718471  1
  O  O243  1  -0.00253365  0.25603999  0.37044505  1
  O  O244  1  0.00198358  0.25804068  0.87121697  1
  O  O245  1  0.01117625  0.74325723  0.36524883  1
  O  O246  1  -0.00012637  0.75847989  0.86426096  1
  O  O247  1  0.48499518  0.24766272  0.35927263  1
  O  O248  1  0.50107936  0.24715868  0.86339620  1
  O  O249  1  0.51251603  0.75006575  0.37579945  1
  O  O250  1  0.50962405  0.75892571  0.86619738  1
  O  O251  1  0.22083664  0.08548071  0.53230472  1
  O  O252  1  0.25849498  0.13390717  0.99048997  1
  O  O253  1  0.25356871  0.63008347  0.49317787  1
  O  O254  1  0.29017186  0.63767955  0.99105749  1
  O  O255  1  0.72683747  0.13799604  0.54103488  1
  O  O256  1  0.73865510  0.09094409  0.97965321  1
  O  O257  1  0.74268820  0.62562791  0.49491595  1
  O  O258  1  0.74922296  0.63822257  0.99366647  1
  O  O259  1  0.26030072  0.37047064  0.00549673  1
  O  O260  1  0.26589860  0.38594037  0.51404557  1
  O  O261  1  0.26195153  0.87470153  0.01057005  1
  O  O262  1  0.25784859  0.86239933  0.51612616  1
  O  O263  1  0.74687923  0.38320126  0.00863413  1
  O  O264  1  0.76419715  0.38858445  0.51584053  1
  O  O265  1  0.76632484  0.87061093  -0.00832561  1
  O  O266  1  0.75252694  0.86587075  0.50767119  1
  O  O267  1  0.14171583  0.49392738  0.25409199  1
  O  O268  1  0.12643783  0.48792432  0.73983380  1
  O  O269  1  0.12349364  0.98389346  0.24330852  1
  O  O270  1  0.13242151  0.99201069  0.73831536  1
  O  O271  1  0.62364765  0.48722698  0.24521991  1
  O  O272  1  0.63690567  0.50492137  0.75967540  1
  O  O273  1  0.61950218  0.98779574  0.24232888  1
  O  O274  1  0.63121162  0.99352380  0.74521554  1
  O  O275  1  0.38010975  0.00881765  0.26375616  1
  O  O276  1  0.37256447  0.00581135  0.76043074  1
  O  O277  1  0.37016241  0.50423443  0.25933461  1
  O  O278  1  0.37202443  0.50284233  0.75377527  1
  O  O279  1  0.86589761  -0.02189059  0.27362686  1
  O  O280  1  0.86856905  0.00933939  0.74404471  1
  O  O281  1  0.87330217  0.50918584  0.24931249  1
  O  O282  1  0.86895416  0.50955992  0.76327048  1
  O  O283  1  0.11051194  0.37848339  0.36459853  1
  O  O284  1  0.11934189  0.37687003  0.86738860  1
  O  O285  1  0.12875413  0.86794333  0.36156883  1
  O  O286  1  0.11347110  0.87785098  0.86212969  1
  O  O287  1  0.62629065  0.37300277  0.35741479  1
  O  O288  1  0.62275417  0.36200583  0.86892923  1
  O  O289  1  0.61686317  0.86946373  0.37040518  1
  O  O290  1  0.62273160  0.87398779  0.87129365  1
  O  O291  1  0.37499199  0.13164818  0.13304504  1
  O  O292  1  0.38277757  0.12768009  0.63344542  1
  O  O293  1  0.38286708  0.62669560  0.13989015  1
  O  O294  1  0.38849523  0.61992353  0.63643733  1
  O  O295  1  0.87305583  0.14005919  0.11874629  1
  O  O296  1  0.88076922  0.13565632  0.63383764  1
  O  O297  1  0.88066034  0.64128529  0.12263742  1
  O  O298  1  0.88020661  0.63009931  0.62729115  1
  O  O299  1  0.26067959  0.25574514  0.11653352  1
  O  O300  1  0.26308610  0.25090918  0.62610492  1
  O  O301  1  0.25766870  0.76256605  0.12471913  1
  O  O302  1  0.24185045  0.75340677  0.61821513  1
  O  O303  1  0.75793024  0.26661603  0.11794467  1
  O  O304  1  0.76558690  0.26867086  0.63821159  1
  O  O305  1  0.75841095  0.75074265  0.11293907  1
  O  O306  1  0.75272554  0.75207238  0.61784964  1
  O  O307  1  0.25211532  0.26688553  0.38512040  1
  O  O308  1  0.24959070  0.23978073  0.88247495  1
  O  O309  1  0.24476792  0.74328189  0.38605031  1
  O  O310  1  0.24603150  0.74602355  0.88278821  1
  O  O311  1  0.79399202  0.29483138  0.40325194  1
  O  O312  1  0.73450375  0.25180838  0.86738534  1
  O  O313  1  0.73934015  0.74204850  0.38196267  1
  O  O314  1  0.74571342  0.74973324  0.88331626  1
  O  O315  1  -0.00032906  0.11287263  -0.00149299  1
  O  O316  1  -0.00692603  0.11524660  0.51361366  1
  O  O317  1  0.00152936  0.62304851  0.01250821  1
  O  O318  1  -0.00729287  0.61732022  0.51148671  1
  O  O319  1  0.50362918  0.11095572  0.00265621  1
  O  O320  1  0.50529841  0.13296536  0.51833981  1
  O  O321  1  0.49386699  0.61675011  0.00943617  1
  O  O322  1  0.50385278  0.62265661  0.50916526  1
  O  O323  1  0.48921448  0.38497186  0.50859727  1
  O  O324  1  0.48630121  0.38208739  1.00743409  1
  O  O325  1  0.49986259  0.86318755  0.48139193  1
  O  O326  1  0.49675360  0.88518523  0.99845850  1
  O  O327  1  0.99239423  0.38008464  0.48001513  1
  O  O328  1  1.00097599  0.39038468  0.99303387  1
  O  O329  1  0.98497890  0.88246640  0.51362640  1
  O  O330  1  0.99409652  0.88018232  0.98805445  1
  O  O331  1  0.48778177  0.50746015  0.38923503  1
  O  O332  1  0.48833473  0.50243312  0.88108635  1
  O  O333  1  0.49427680  0.98780846  0.37598859  1
  O  O334  1  0.49837020  0.99498457  0.88290783  1
  O  O335  1  1.00659896  0.51502952  0.38728252  1
  O  O336  1  0.99316459  0.49999491  0.88135966  1
  O  O337  1  0.98341472  0.99665707  0.39299359  1
  O  O338  1  1.00100109  0.99416792  0.87902788  1
  O  O339  1  0.01609565  -0.01514392  0.10570849  1
  O  O340  1  0.00701592  0.00872010  0.61872679  1
  O  O341  1  -0.00072549  0.51862208  0.11599820  1
  O  O342  1  0.00239017  0.50585816  0.61681609  1
  O  O343  1  0.50397108  0.00053063  0.12054219  1
  O  O344  1  0.50293293  0.01073101  0.63063654  1
  O  O345  1  0.49886575  0.50925545  0.11637736  1
  O  O346  1  0.49732677  0.50886846  0.61390054  1
  O  O347  1  0.24658345  0.38251370  0.24154393  1
  O  O348  1  0.24267789  0.37978536  0.74550447  1
  O  O349  1  0.23895510  0.86858439  0.24476747  1
  O  O350  1  0.24349328  0.87497462  0.74854362  1
  O  O351  1  0.73747690  0.37272946  0.23728597  1
  O  O352  1  0.74913693  0.39046792  0.74683350  1
  O  O353  1  0.73273374  0.87338023  0.25977677  1
  O  O354  1  0.74614393  0.87812699  0.74154647  1
  O  O355  1  0.26409366  0.13518923  0.25304110  1
  O  O356  1  0.26557953  0.11615387  0.76175840  1
  O  O357  1  0.25889537  0.61890375  0.25691171  1
  O  O358  1  0.26221362  0.61704517  0.74276175  1
  O  O359  1  0.76010215  0.17710666  0.26475410  1
  O  O360  1  0.75753548  0.11684058  0.74474282  1
  O  O361  1  0.75131867  0.62873023  0.25638113  1
  O  O362  1  0.75465904  0.62381143  0.75741976  1
  O  O363  1  0.37536715  0.10840122  0.37202163  1
  O  O364  1  0.37061973  0.11868418  0.87141643  1
  O  O365  1  0.36846137  0.61903661  0.37154978  1
  O  O366  1  0.37933328  0.61423170  0.85538938  1
  O  O367  1  0.87078896  0.10855842  0.37847016  1
  O  O368  1  0.87326486  0.12578585  0.85965658  1
  O  O369  1  0.86408148  0.62929494  0.37163200  1
  O  O370  1  0.87081257  0.62362104  0.87036952  1
  O  O371  1  0.13941441  0.37113797  0.13147964  1
  O  O372  1  0.12764269  0.38009676  0.63240345  1
  O  O373  1  0.13576959  0.88059443  0.13485809  1
  O  O374  1  0.13774156  0.88419495  0.63114714  1
  O  O375  1  0.63412063  0.37650610  0.12851641  1
  O  O376  1  0.64096731  0.37569737  0.63334542  1
  O  O377  1  0.62231701  0.87989578  0.14126353  1
  O  O378  1  0.62678289  0.87963257  0.63167133  1
  O  O379  1  0.13350717  0.25952088  0.25172803  1
  O  O380  1  0.11717201  0.26611032  0.75399053  1
  O  O381  1  0.12126225  0.75799894  0.25922312  1
  O  O382  1  0.11629996  0.76519320  0.74472826  1
  O  O383  1  0.60468415  0.25655249  0.23899348  1
  O  O384  1  0.60758061  0.25049705  0.75627666  1
  O  O385  1  0.62647143  0.76178403  0.25799950  1
  O  O386  1  0.61910506  0.75736021  0.75692710  1
  O  O387  1  0.38245882  0.24761877  0.23972535  1
  O  O388  1  0.37985742  0.24275546  0.74629237  1
  O  O389  1  0.37156342  0.73718028  0.25685253  1
  O  O390  1  0.38740252  0.74277234  0.75536370  1
  O  O391  1  0.88774758  0.27213113  0.21709785  1
  O  O392  1  0.88166751  0.24574707  0.74512314  1
  O  O393  1  0.88439903  0.75420652  0.24191550  1
  O  O394  1  0.88024401  0.74676885  0.74275331  1
  O  O395  1  0.38092166  0.49465774  0.49502242  1
  O  O396  1  0.38309043  0.49162919  0.99151175  1
  O  O397  1  0.37900544  0.99425971  0.48658619  1
  O  O398  1  0.38387285  0.99200011  0.99866215  1
  O  O399  1  0.88446324  0.48680964  0.49057440  1
  O  O400  1  0.88031194  0.50594796  0.98769177  1
  O  O401  1  0.87774519  0.99079705  0.50371960  1
  O  O402  1  0.88749727  0.99341154  0.99752989  1
  O  O403  1  0.12067339  -0.00546159  0.00671224  1
  O  O404  1  0.11036443  -0.01852995  0.51029037  1
  O  O405  1  0.11888704  0.50245129  -0.00632641  1
  O  O406  1  0.11328068  0.49106133  0.51495792  1
  O  O407  1  0.61607486  -0.00910080  0.01688558  1
  O  O408  1  0.62483534  -0.00506345  0.51638501  1
  O  O409  1  0.60842884  0.50348759  -0.00441840  1
  O  O410  1  0.61277127  0.51371295  0.49423418  1
  O  O411  1  0.36594642  0.36736467  0.11851982  1
  O  O412  1  0.36924124  0.36534586  0.62154741  1
  O  O413  1  0.37041398  0.87779288  0.12396785  1
  O  O414  1  0.36516983  0.87507265  0.62882041  1
  O  O415  1  0.86084082  0.38226832  0.11607311  1
  O  O416  1  0.87158433  0.36984497  0.63006645  1
  O  O417  1  0.88634639  0.86574886  0.11331223  1
  O  O418  1  0.86570854  0.86703483  0.61982550  1
  O  O419  1  0.11983675  0.10906867  0.37893256  1
  O  O420  1  0.13850312  0.12453345  0.86645471  1
  O  O421  1  0.13995315  0.63538581  0.36915793  1
  O  O422  1  0.13360682  0.63006003  0.85224503  1
  O  O423  1  0.62722155  0.11335506  0.37837935  1
  O  O424  1  0.62543182  0.14220089  0.87264029  1
  O  O425  1  0.62964236  0.63029619  0.37971253  1
  O  O426  1  0.63099774  0.63934313  0.88051196  1
