# generated using pymatgen
data_V85Zn86O256
_symmetry_space_group_name_H-M   'P 1'
_cell_length_a   16.94033316
_cell_length_b   16.93294904
_cell_length_c   16.92781734
_cell_angle_alpha   89.98077722
_cell_angle_beta   89.94960805
_cell_angle_gamma   90.07067918
_symmetry_Int_Tables_number   1
_chemical_formula_structural   V85Zn86O256
_chemical_formula_sum   'V85 Zn86 O256'
_cell_volume   4855.73513994
_cell_formula_units_Z   1
loop_
 _symmetry_equiv_pos_site_id
 _symmetry_equiv_pos_as_xyz
  1  'x, y, z'
loop_
 _atom_site_type_symbol
 _atom_site_label
 _atom_site_symmetry_multiplicity
 _atom_site_fract_x
 _atom_site_fract_y
 _atom_site_fract_z
 _atom_site_occupancy
  V  V0  1  -0.00096949  0.74572863  0.25677985  1
  V  V1  1  0.75162303  0.12774188  0.36718544  1
  V  V2  1  0.87447671  0.24450363  0.13086611  1
  V  V3  1  0.88167669  0.87654642  0.00386728  1
  V  V4  1  0.12605784  0.25076604  0.37152003  1
  V  V5  1  0.38228980  0.50507291  0.36639456  1
  V  V6  1  0.37456486  0.74831223  0.63337721  1
  V  V7  1  0.75020393  0.12395311  0.87193162  1
  V  V8  1  0.62747983  -0.00684108  0.62548646  1
  V  V9  1  0.50033990  0.00242908  0.49955203  1
  V  V10  1  0.12554949  0.24845565  0.87827691  1
  V  V11  1  0.62642254  0.38090433  0.75405440  1
  V  V12  1  0.37900916  0.50160772  0.86733661  1
  V  V13  1  0.12492753  0.12445082  0.49944165  1
  V  V14  1  0.88198666  0.25267656  0.62764962  1
  V  V15  1  0.12367024  0.74080711  0.87542939  1
  V  V16  1  0.86974483  0.62340721  0.74899030  1
  V  V17  1  0.74161853  0.24918480  0.49889832  1
  V  V18  1  0.01538252  0.61916509  0.12460710  1
  V  V19  1  0.62295303  0.62003953  0.00533555  1
  V  V20  1  0.75106721  0.74696422  0.00088403  1
  V  V21  1  0.85863700  0.75343015  0.62400888  1
  V  V22  1  0.88147887  0.12946472  0.74978341  1
  V  V23  1  0.12290809  0.36941649  0.74473409  1
  V  V24  1  -0.00081461  0.62800467  0.62325856  1
  V  V25  1  0.87482465  0.49905444  0.87138558  1
  V  V26  1  0.74883816  0.37687641  0.62848039  1
  V  V27  1  0.12193569  -0.00374368  0.11807520  1
  V  V28  1  -0.00239886  0.11884132  0.11661322  1
  V  V29  1  -0.00292437  0.37330842  0.37247194  1
  V  V30  1  0.48591759  0.12957128  0.12722677  1
  V  V31  1  0.12472588  0.87423461  0.74956602  1
  V  V32  1  0.62417592  0.24984400  0.87280585  1
  V  V33  1  0.48897591  0.48881961  0.00635411  1
  V  V34  1  0.62795054  0.62981766  0.50339370  1
  V  V35  1  0.12311641  0.63014695  0.48940260  1
  V  V36  1  0.87543187  0.73600332  0.12995919  1
  V  V37  1  0.87670281  0.37645820  0.00075943  1
  V  V38  1  0.62991482  0.50358548  0.63231937  1
  V  V39  1  0.25131190  -0.00233556  0.23934984  1
  V  V40  1  0.75048553  0.24942164  -0.00064460  1
  V  V41  1  0.12624262  0.50017461  0.61839475  1
  V  V42  1  0.49840391  0.73706910  0.24462664  1
  V  V43  1  0.49090677  0.25100121  0.74750116  1
  V  V44  1  -0.00005065  0.36983360  0.86936711  1
  V  V45  1  0.75396112  0.87449599  0.12651033  1
  V  V46  1  0.50118547  0.49724149  0.49905888  1
  V  V47  1  0.00069307  0.87808410  0.87832788  1
  V  V48  1  0.24261794  0.73972489  0.00711067  1
  V  V49  1  0.87338913  0.37575807  0.50056194  1
  V  V50  1  0.37404980  0.87475839  0.49997923  1
  V  V51  1  0.50094243  -0.01001192  -0.00279637  1
  V  V52  1  0.25969654  0.63012132  0.36861547  1
  V  V53  1  0.74894605  0.37415768  0.12762016  1
  V  V54  1  0.74892133  0.61972877  0.87520806  1
  V  V55  1  0.50129283  0.87679625  0.37357958  1
  V  V56  1  0.75300622  0.63144956  0.37536108  1
  V  V57  1  0.01472051  0.50154468  0.00150630  1
  V  V58  1  0.12562529  0.00086807  0.62458194  1
  V  V59  1  0.49537077  0.12718797  0.62481846  1
  V  V60  1  0.25181750  0.50881473  0.74693749  1
  V  V61  1  0.37769352  -0.00374001  0.86640170  1
  V  V62  1  0.35637407  0.87868640  0.00593005  1
  V  V63  1  0.61637529  0.49910831  0.12800134  1
  V  V64  1  0.12957663  0.86709990  0.25240577  1
  V  V65  1  0.87371031  0.50296135  0.37166990  1
  V  V66  1  0.27161312  0.25373753  0.00827203  1
  V  V67  1  0.25550351  0.25045752  0.50264854  1
  V  V68  1  0.37537606  0.00437375  0.36749003  1
  V  V69  1  0.26068055  0.37367973  0.62328583  1
  V  V70  1  0.49150356  0.24535400  0.26224286  1
  V  V71  1  0.49548066  0.62791847  0.63402051  1
  V  V72  1  0.62831253  0.75303228  0.38074924  1
  V  V73  1  0.74922428  0.50301886  0.25078407  1
  V  V74  1  0.24589962  0.75243570  0.49552637  1
  V  V75  1  0.37730612  0.37415836  0.49128477  1
  V  V76  1  0.75109748  -0.01132948  0.74653542  1
  V  V77  1  0.86169267  0.87352202  0.50179139  1
  V  V78  1  0.87783122  -0.00054614  0.87788010  1
  V  V79  1  -0.00124137  0.24173190  0.24952673  1
  V  V80  1  0.62655027  0.87760200  0.24998502  1
  V  V81  1  0.61931737  0.36606951  0.26457025  1
  V  V82  1  0.25209576  0.12624619  0.36465393  1
  V  V83  1  -0.00151435  -0.00211424  0.49770582  1
  V  V84  1  0.62616658  0.00417970  0.12519234  1
  Zn  Zn85  1  0.62318313  0.12918010  0.49729352  1
  Zn  Zn86  1  0.37270963  0.74611087  0.13184957  1
  Zn  Zn87  1  0.24537416  0.50306351  0.24434370  1
  Zn  Zn88  1  0.75932056  0.00803145  0.24585037  1
  Zn  Zn89  1  0.12491267  0.38441953  0.23486812  1
  Zn  Zn90  1  -0.00110979  0.50157201  0.49723387  1
  Zn  Zn91  1  0.00203720  0.86914369  0.37769263  1
  Zn  Zn92  1  0.25215618  0.38868261  0.11927796  1
  Zn  Zn93  1  0.60745660  0.75502252  0.88337426  1
  Zn  Zn94  1  0.48731408  0.75279426  0.77689038  1
  Zn  Zn95  1  0.25118971  0.12697639  0.87255573  1
  Zn  Zn96  1  0.00276517  0.13105824  0.62706734  1
  Zn  Zn97  1  -0.00411870  0.75078776  0.75053009  1
  Zn  Zn98  1  0.61533497  0.86904411  0.75928837  1
  Zn  Zn99  1  0.62290295  0.12442508  -0.00090148  1
  Zn  Zn100  1  0.24877459  0.87556012  0.62524592  1
  Zn  Zn101  1  0.12576528  0.12304817  -0.00302732  1
  Zn  Zn102  1  0.24989383  0.62448016  0.87357619  1
  Zn  Zn103  1  0.48832575  0.36697141  0.88118566  1
  Zn  Zn104  1  0.24842245  0.00457416  0.74927361  1
  Zn  Zn105  1  0.37076872  0.13057235  0.74663866  1
  Zn  Zn106  1  0.87811874  0.00336219  0.36790264  1
  Zn  Zn107  1  0.18583620  0.18924557  0.18278991  1
  Zn  Zn108  1  0.18946222  0.18882116  0.68803685  1
  Zn  Zn109  1  0.18854567  0.68617887  0.18647357  1
  Zn  Zn110  1  0.18517992  0.69057190  0.68308836  1
  Zn  Zn111  1  0.68418478  0.18850416  0.18874020  1
  Zn  Zn112  1  0.68609393  0.18476154  0.68596966  1
  Zn  Zn113  1  0.68488025  0.68677039  0.19001039  1
  Zn  Zn114  1  0.68311832  0.69038889  0.69709571  1
  Zn  Zn115  1  0.31251566  0.31833622  0.30699070  1
  Zn  Zn116  1  0.30797620  0.31827865  0.81727215  1
  Zn  Zn117  1  0.31469452  0.81466809  0.31092942  1
  Zn  Zn118  1  0.30947122  0.81687222  0.81737635  1
  Zn  Zn119  1  0.80946147  0.31113148  0.31310322  1
  Zn  Zn120  1  0.81062295  0.31363269  0.80946562  1
  Zn  Zn121  1  0.81656423  0.81790831  0.31295096  1
  Zn  Zn122  1  0.80787329  0.80874524  0.81586617  1
  Zn  Zn123  1  0.17431315  0.45414300  0.40544360  1
  Zn  Zn124  1  0.19325861  0.43298410  0.93540001  1
  Zn  Zn125  1  0.18731393  0.93753984  0.43236956  1
  Zn  Zn126  1  0.18691773  0.94067083  0.93261910  1
  Zn  Zn127  1  0.68748426  0.43970614  0.44094912  1
  Zn  Zn128  1  0.68738668  0.43645964  0.93858760  1
  Zn  Zn129  1  0.68862182  0.94632319  0.43622719  1
  Zn  Zn130  1  0.68962260  0.93635983  0.93921643  1
  Zn  Zn131  1  0.30970384  0.06817079  0.05624014  1
  Zn  Zn132  1  0.31250855  0.06339298  0.56064730  1
  Zn  Zn133  1  0.32463047  0.56616393  0.07551652  1
  Zn  Zn134  1  0.31282072  0.56375738  0.55717852  1
  Zn  Zn135  1  0.81388995  0.06206963  0.06119197  1
  Zn  Zn136  1  0.81246077  0.06456651  0.56167828  1
  Zn  Zn137  1  0.81366830  0.55791046  0.06159965  1
  Zn  Zn138  1  0.80949611  0.56402198  0.56051645  1
  Zn  Zn139  1  0.43077550  0.42285324  0.18624036  1
  Zn  Zn140  1  0.44035809  0.43853662  0.68810400  1
  Zn  Zn141  1  0.43905795  0.93480052  0.18396638  1
  Zn  Zn142  1  0.44239318  0.93280597  0.68646929  1
  Zn  Zn143  1  0.93893517  0.43622386  0.18905232  1
  Zn  Zn144  1  0.93869889  0.44090381  0.68714260  1
  Zn  Zn145  1  0.94159475  0.93381434  0.18972041  1
  Zn  Zn146  1  0.93796252  0.93779617  0.68580149  1
  Zn  Zn147  1  0.06264083  0.06096203  0.30842216  1
  Zn  Zn148  1  0.06110914  0.06160063  0.81239673  1
  Zn  Zn149  1  0.06041818  0.56660211  0.31038426  1
  Zn  Zn150  1  0.06013842  0.55742666  0.80768349  1
  Zn  Zn151  1  0.56850596  0.06842314  0.31259853  1
  Zn  Zn152  1  0.56131904  0.06026956  0.81008430  1
  Zn  Zn153  1  0.56547641  0.56088823  0.31528297  1
  Zn  Zn154  1  0.55748583  0.57029104  0.81843112  1
  Zn  Zn155  1  0.43641763  0.18676097  0.43598453  1
  Zn  Zn156  1  0.44106984  0.17772545  0.93580853  1
  Zn  Zn157  1  0.44159877  0.68989287  0.44118244  1
  Zn  Zn158  1  0.42902746  0.67685136  0.96383118  1
  Zn  Zn159  1  0.93382558  0.18588465  0.44053813  1
  Zn  Zn160  1  0.93874778  0.19016691  0.93885481  1
  Zn  Zn161  1  0.93213568  0.69025439  0.44023083  1
  Zn  Zn162  1  0.93991981  0.68722913  0.94101646  1
  Zn  Zn163  1  0.06604900  0.31586788  0.06296735  1
  Zn  Zn164  1  0.06485298  0.31436998  0.55685133  1
  Zn  Zn165  1  0.06363410  0.81132189  0.06699318  1
  Zn  Zn166  1  0.05842117  0.81223752  0.56296066  1
  Zn  Zn167  1  0.56122874  0.31121050  0.06679970  1
  Zn  Zn168  1  0.55996212  0.31464357  0.56558149  1
  Zn  Zn169  1  0.56358707  0.81285575  0.06150129  1
  Zn  Zn170  1  0.56150996  0.81411028  0.56742216  1
  O  O171  1  0.11480616  0.11623841  0.12353161  1
  O  O172  1  0.12298161  0.11830600  0.61963951  1
  O  O173  1  0.11355382  0.62424037  0.12369458  1
  O  O174  1  0.11644011  0.62088663  0.61662849  1
  O  O175  1  0.62617190  0.11276785  0.12259685  1
  O  O176  1  0.61356705  0.11530733  0.62482583  1
  O  O177  1  0.63357309  0.60988857  0.12009926  1
  O  O178  1  0.62068846  0.62071948  0.62075205  1
  O  O179  1  0.37304544  0.38545489  0.38677052  1
  O  O180  1  0.37402386  0.39233491  0.87383701  1
  O  O181  1  0.37899181  0.88442222  0.38314981  1
  O  O182  1  0.37078376  0.88960015  0.88702307  1
  O  O183  1  0.87800545  0.38099161  0.37969048  1
  O  O184  1  0.88050658  0.38055926  0.87593771  1
  O  O185  1  0.87962919  0.87510886  0.39107808  1
  O  O186  1  0.88179937  0.87620926  0.88235195  1
  O  O187  1  0.25608827  0.00710224  0.36490271  1
  O  O188  1  0.26220773  0.00343852  0.87197888  1
  O  O189  1  0.26874109  0.51485183  0.37985880  1
  O  O190  1  0.25605042  0.50003653  0.86345092  1
  O  O191  1  0.75444875  0.01409881  0.37288330  1
  O  O192  1  0.75702366  0.00863647  0.86805649  1
  O  O193  1  0.75316649  0.50777976  0.37022029  1
  O  O194  1  0.76090292  0.50930992  0.88149107  1
  O  O195  1  0.25384487  0.50819571  0.13161267  1
  O  O196  1  0.24611545  0.49380261  0.62699818  1
  O  O197  1  0.24412987  1.00965472  0.13581614  1
  O  O198  1  0.23674971  0.99812809  0.62214581  1
  O  O199  1  0.74611910  0.49358692  0.13541298  1
  O  O200  1  0.73685850  0.49597937  0.62211251  1
  O  O201  1  0.74316020  0.99332823  0.12404777  1
  O  O202  1  0.74073233  1.01044516  0.63587630  1
  O  O203  1  0.00288722  0.36328685  0.25582525  1
  O  O204  1  0.01017966  0.38275632  0.75672247  1
  O  O205  1  0.01064926  0.86299022  0.25360354  1
  O  O206  1  0.00784087  0.87337659  0.75706684  1
  O  O207  1  0.51127241  0.35931037  0.24764510  1
  O  O208  1  0.51082470  0.36752331  0.75101727  1
  O  O209  1  0.51324645  0.87417708  0.25539837  1
  O  O210  1  0.50049783  0.86297851  0.74737900  1
  O  O211  1  0.50749228  0.13394169  0.23797134  1
  O  O212  1  0.49777539  0.13389488  0.74326690  1
  O  O213  1  0.50650588  0.63871840  0.25452515  1
  O  O214  1  0.49862892  0.62610096  0.73615524  1
  O  O215  1  1.00264615  0.13633402  0.24119988  1
  O  O216  1  0.98542746  0.12127550  0.74732144  1
  O  O217  1  1.00260604  0.63036795  0.23642703  1
  O  O218  1  0.98809145  0.62450205  0.74140951  1
  O  O219  1  0.36997970  0.24669353  -0.00627401  1
  O  O220  1  0.36456884  0.25752439  0.49264736  1
  O  O221  1  0.35059982  0.77141911  -0.01487754  1
  O  O222  1  0.36967882  0.75995905  0.50514082  1
  O  O223  1  0.87041214  0.25676988  0.00899760  1
  O  O224  1  0.86576887  0.25775532  0.50881979  1
  O  O225  1  0.87017948  0.75441916  0.00919996  1
  O  O226  1  0.87535306  0.76375902  0.50868882  1
  O  O227  1  0.13448443  0.24227250  0.49404868  1
  O  O228  1  0.11722029  0.24836304  0.98355702  1
  O  O229  1  0.13442293  0.74436431  0.50590136  1
  O  O230  1  0.13683827  0.76157526  0.99134515  1
  O  O231  1  0.63810604  0.25321290  0.50726108  1
  O  O232  1  0.63080279  0.24840479  0.98850131  1
  O  O233  1  0.62021484  0.74588580  0.48943701  1
  O  O234  1  0.63351651  0.73780190  1.00575540  1
  O  O235  1  0.50618448  0.23353487  0.13101777  1
  O  O236  1  0.50604058  0.24131265  0.63602318  1
  O  O237  1  0.50882639  0.75386714  0.14376884  1
  O  O238  1  0.48866322  0.74081612  0.61827733  1
  O  O239  1  0.99261492  0.24359179  0.13060728  1
  O  O240  1  0.98635190  0.25300575  0.61898667  1
  O  O241  1  0.99475614  0.73656311  0.12979279  1
  O  O242  1  0.99191605  0.73769419  0.62637818  1
  O  O243  1  0.00404621  0.24912626  0.36804325  1
  O  O244  1  0.00259289  0.26398730  0.87424666  1
  O  O245  1  -0.00416552  0.74380134  0.36055329  1
  O  O246  1  0.00504388  0.76006435  0.87483800  1
  O  O247  1  0.50724754  0.23694220  0.36103720  1
  O  O248  1  0.50903676  0.24850439  0.86900102  1
  O  O249  1  0.50830317  0.75810560  0.36827074  1
  O  O250  1  0.49699443  0.72379918  0.88697455  1
  O  O251  1  0.24643923  0.13168280  0.48992988  1
  O  O252  1  0.24577129  0.13880181  0.99334383  1
  O  O253  1  0.24274355  0.63431322  0.49353988  1
  O  O254  1  0.24243358  0.64024176  0.99500506  1
  O  O255  1  0.74711562  0.13534879  0.49678795  1
  O  O256  1  0.75023283  0.13001312  0.98658881  1
  O  O257  1  0.73573057  0.62152486  0.49144360  1
  O  O258  1  0.74466631  0.62571055  0.99570973  1
  O  O259  1  0.24782517  0.35560975  -0.00337417  1
  O  O260  1  0.25778687  0.36719931  0.50514426  1
  O  O261  1  0.25483499  0.88031993  0.00548960  1
  O  O262  1  0.25600778  0.86985075  0.49836225  1
  O  O263  1  0.75643024  0.36824854  0.00602783  1
  O  O264  1  0.75459417  0.37017406  0.50694816  1
  O  O265  1  0.76161977  0.86727573  0.00819857  1
  O  O266  1  0.76315171  0.88168741  0.49948586  1
  O  O267  1  0.13525236  0.48655297  0.29306321  1
  O  O268  1  0.13189174  0.49072095  0.74066785  1
  O  O269  1  0.13205831  0.99177665  0.24236498  1
  O  O270  1  0.12302220  0.99346027  0.74051428  1
  O  O271  1  0.62773360  0.48959591  0.24605493  1
  O  O272  1  0.61695892  0.49416896  0.74332022  1
  O  O273  1  0.63073758  0.99353361  0.24264070  1
  O  O274  1  0.63443842  0.99796620  0.74464048  1
  O  O275  1  0.36594881  -0.01118680  0.25711909  1
  O  O276  1  0.37483579  -0.00360428  0.75958915  1
  O  O277  1  0.38893060  0.49783043  0.26552317  1
  O  O278  1  0.36846109  0.49876581  0.75728895  1
  O  O279  1  0.86954765  -0.01422915  0.25502006  1
  O  O280  1  0.86914520  0.00731695  0.75441901  1
  O  O281  1  0.86360938  0.49281182  0.26240231  1
  O  O282  1  0.87835763  0.50642387  0.76279871  1
  O  O283  1  0.11419400  0.35627315  0.38761820  1
  O  O284  1  0.11808816  0.37014490  0.86441909  1
  O  O285  1  0.12125545  0.87942039  0.35772296  1
  O  O286  1  0.11717056  0.87085920  0.86843231  1
  O  O287  1  0.62679904  0.37956555  0.36282423  1
  O  O288  1  0.62627748  0.36729984  0.86778203  1
  O  O289  1  0.62438287  0.87083793  0.36982753  1
  O  O290  1  0.64305578  0.86321290  0.87262693  1
  O  O291  1  0.38804766  0.11949785  0.12692573  1
  O  O292  1  0.38954366  0.11851738  0.62609724  1
  O  O293  1  0.39306892  0.65142266  0.07356007  1
  O  O294  1  0.38338500  0.63542750  0.61560638  1
  O  O295  1  0.88098055  0.13432199  0.12125530  1
  O  O296  1  0.87571700  0.13526653  0.63240776  1
  O  O297  1  0.87595959  0.63360879  0.12386327  1
  O  O298  1  0.87887031  0.62806270  0.63003850  1
  O  O299  1  0.25202941  0.24475240  0.10924571  1
  O  O300  1  0.24568472  0.25943430  0.61278385  1
  O  O301  1  0.25083302  0.74801309  0.11153741  1
  O  O302  1  0.25706034  0.75184556  0.61330622  1
  O  O303  1  0.75648506  0.25244370  0.12079663  1
  O  O304  1  0.75720916  0.25628263  0.61994352  1
  O  O305  1  0.75717116  0.75350395  0.12319563  1
  O  O306  1  0.75994325  0.74134352  0.62676986  1
  O  O307  1  0.24373610  0.24371195  0.37837896  1
  O  O308  1  0.24058347  0.24963018  0.88148884  1
  O  O309  1  0.25925785  0.74601182  0.38734096  1
  O  O310  1  0.23839868  0.74863384  0.87976937  1
  O  O311  1  0.75489654  0.24094558  0.38566896  1
  O  O312  1  0.74449747  0.24347135  0.87749318  1
  O  O313  1  0.74328702  0.74012792  0.36752325  1
  O  O314  1  0.75818037  0.73175567  0.88608209  1
  O  O315  1  0.00083115  0.12682742  0.01255626  1
  O  O316  1  0.00644254  0.11818461  0.50382127  1
  O  O317  1  -0.00414870  0.61611947  0.01371151  1
  O  O318  1  0.00623924  0.62676991  0.50516133  1
  O  O319  1  0.50265346  0.11442986  0.01311086  1
  O  O320  1  0.50188763  0.12086247  0.50607274  1
  O  O321  1  0.52098253  0.60148411  -0.00226497  1
  O  O322  1  0.51261523  0.61989015  0.50748389  1
  O  O323  1  0.49035360  0.38416536  0.50754500  1
  O  O324  1  0.51313824  0.38537194  0.99507143  1
  O  O325  1  0.49239330  0.88071078  0.49333628  1
  O  O326  1  0.49470656  0.88700571  1.00473981  1
  O  O327  1  0.99038758  0.37725110  0.49249642  1
  O  O328  1  0.99345377  0.38212969  0.99183245  1
  O  O329  1  0.99548225  0.88270272  0.49712953  1
  O  O330  1  0.98947941  0.86829421  0.99455036  1
  O  O331  1  0.49835659  0.50654838  0.39138710  1
  O  O332  1  0.49028045  0.49662537  0.87951843  1
  O  O333  1  0.49374158  0.99790930  0.37695254  1
  O  O334  1  0.48967121  1.00476575  0.88430917  1
  O  O335  1  0.98681904  0.49722652  0.37569931  1
  O  O336  1  0.99384284  0.49157870  0.88030283  1
  O  O337  1  0.99982817  1.00254822  0.38762651  1
  O  O338  1  0.99490640  0.98605999  0.87282564  1
  O  O339  1  0.00847594  0.00854656  0.13026799  1
  O  O340  1  0.01037143  0.00130723  0.61490812  1
  O  O341  1  -0.00540773  0.51132432  0.11894757  1
  O  O342  1  0.00372606  0.51207059  0.61986964  1
  O  O343  1  0.50786315  0.00824746  0.12167493  1
  O  O344  1  0.50597621  0.00621260  0.61856500  1
  O  O345  1  0.50978825  0.49192405  0.12078390  1
  O  O346  1  0.50747578  0.50785024  0.61760521  1
  O  O347  1  0.24447448  0.38210307  0.24937584  1
  O  O348  1  0.24359791  0.38274935  0.73930783  1
  O  O349  1  0.23896630  0.88117684  0.25192869  1
  O  O350  1  0.23555288  0.87894561  0.74830938  1
  O  O351  1  0.73951259  0.38241027  0.24882530  1
  O  O352  1  0.73531283  0.37268072  0.74400078  1
  O  O353  1  0.73763420  0.87069651  0.24433916  1
  O  O354  1  0.75666770  0.88729277  0.74910633  1
  O  O355  1  0.24406914  0.11880372  0.25995249  1
  O  O356  1  0.25475833  0.12301051  0.75167705  1
  O  O357  1  0.24814279  0.62919958  0.26531445  1
  O  O358  1  0.24286171  0.61175827  0.74687960  1
  O  O359  1  0.74958304  0.12940144  0.26262084  1
  O  O360  1  0.75825692  0.12116995  0.75941720  1
  O  O361  1  0.74109747  0.61096308  0.26050089  1
  O  O362  1  0.76208781  0.62428246  0.75880950  1
  O  O363  1  0.36640916  0.11209265  0.37802227  1
  O  O364  1  0.37488192  0.10934015  0.87115854  1
  O  O365  1  0.37103464  0.61933381  0.38351887  1
  O  O366  1  0.36726845  0.60520431  0.88217221  1
  O  O367  1  0.85861818  0.12229035  0.38432305  1
  O  O368  1  0.87048589  0.12279809  0.86922497  1
  O  O369  1  0.86266664  0.61754502  0.38184715  1
  O  O370  1  0.87420818  0.61766870  0.86845241  1
  O  O371  1  0.13450356  0.37605615  0.12284076  1
  O  O372  1  0.13200594  0.38053723  0.62715858  1
  O  O373  1  0.11776008  0.88411653  0.13903151  1
  O  O374  1  0.12341780  0.88162256  0.63248565  1
  O  O375  1  0.63238496  0.38100368  0.13431841  1
  O  O376  1  0.62793442  0.38517411  0.63307276  1
  O  O377  1  0.62988020  0.88469306  0.13112533  1
  O  O378  1  0.62311029  0.88938480  0.62691310  1
  O  O379  1  0.11729692  0.25028304  0.25811595  1
  O  O380  1  0.12891633  0.26336044  0.75627655  1
  O  O381  1  0.11908891  0.76123171  0.24320476  1
  O  O382  1  0.12103698  0.75798207  0.75541081  1
  O  O383  1  0.62169905  0.26261498  0.24904967  1
  O  O384  1  0.62047842  0.25564340  0.75941285  1
  O  O385  1  0.61840326  0.75630839  0.26096220  1
  O  O386  1  0.61575028  0.74829648  0.76111452  1
  O  O387  1  0.39184916  0.25077307  0.25913676  1
  O  O388  1  0.38796002  0.25455467  0.75674166  1
  O  O389  1  0.39251381  0.75658904  0.24875711  1
  O  O390  1  0.36757642  0.75539980  0.73653194  1
  O  O391  1  0.88152665  0.25599005  0.23837121  1
  O  O392  1  0.86911352  0.24233322  0.74046019  1
  O  O393  1  0.88568017  0.75697959  0.23996347  1
  O  O394  1  0.87540726  0.74190484  0.74299852  1
  O  O395  1  0.38456290  0.49365565  0.49598529  1
  O  O396  1  0.38724614  0.49785801  0.99213697  1
  O  O397  1  0.37931100  0.99286403  0.49185651  1
  O  O398  1  0.37911075  0.99271473  0.99462595  1
  O  O399  1  0.87169283  0.49346160  0.48945914  1
  O  O400  1  0.88193979  0.49438470  0.98909709  1
  O  O401  1  0.88303071  0.98961328  0.50440037  1
  O  O402  1  0.87020903  0.98760426  0.99194846  1
  O  O403  1  0.12984028  0.00009835  0.01382779  1
  O  O404  1  0.12009676  0.00422476  0.50426617  1
  O  O405  1  0.11274448  0.49762386  -0.01237077  1
  O  O406  1  0.12355881  0.51054546  0.50108838  1
  O  O407  1  0.61868424  0.00044802  0.00714790  1
  O  O408  1  0.61665452  0.00191457  0.50731518  1
  O  O409  1  0.62784804  0.50104874  0.01302516  1
  O  O410  1  0.61909949  0.50697966  0.50896043  1
  O  O411  1  0.36555274  0.37400079  0.11602434  1
  O  O412  1  0.36479199  0.38146799  0.61654130  1
  O  O413  1  0.37949108  0.86902065  0.10805727  1
  O  O414  1  0.37159994  0.87124709  0.61204629  1
  O  O415  1  0.86876815  0.36833871  0.12145302  1
  O  O416  1  0.86865270  0.37242711  0.62313692  1
  O  O417  1  0.87448472  0.86482144  0.11774265  1
  O  O418  1  0.87961836  0.86599270  0.61458751  1
  O  O419  1  0.13127204  0.13287596  0.37845797  1
  O  O420  1  0.12269997  0.13446687  0.87367557  1
  O  O421  1  0.13331033  0.62786937  0.38638689  1
  O  O422  1  0.11996069  0.63830730  0.86688425  1
  O  O423  1  0.64306895  0.12190168  0.38102994  1
  O  O424  1  0.63356841  0.13154639  0.87370471  1
  O  O425  1  0.63103476  0.63349433  0.38331547  1
  O  O426  1  0.63743084  0.61903688  0.88583840  1
