# generated using pymatgen
data_V85Zn86O256
_symmetry_space_group_name_H-M   'P 1'
_cell_length_a   16.93375228
_cell_length_b   16.93449609
_cell_length_c   16.93901127
_cell_angle_alpha   90.03360255
_cell_angle_beta   90.03953008
_cell_angle_gamma   89.93362627
_symmetry_Int_Tables_number   1
_chemical_formula_structural   V85Zn86O256
_chemical_formula_sum   'V85 Zn86 O256'
_cell_volume   4857.50289344
_cell_formula_units_Z   1
loop_
 _symmetry_equiv_pos_site_id
 _symmetry_equiv_pos_as_xyz
  1  'x, y, z'
loop_
 _atom_site_type_symbol
 _atom_site_label
 _atom_site_symmetry_multiplicity
 _atom_site_fract_x
 _atom_site_fract_y
 _atom_site_fract_z
 _atom_site_occupancy
  V  V0  1  0.49909216  -0.00175829  0.00173886  1
  V  V1  1  0.38441506  0.24283587  0.62513464  1
  V  V2  1  0.50188880  0.37808237  0.37474230  1
  V  V3  1  0.88244787  0.12877744  0.75460469  1
  V  V4  1  0.12130079  0.62707914  0.49852062  1
  V  V5  1  0.62149178  0.63782856  0.49824911  1
  V  V6  1  0.87505442  0.61191632  0.74904925  1
  V  V7  1  0.75340320  0.11658317  0.37206966  1
  V  V8  1  0.49449941  0.75792902  0.24618686  1
  V  V9  1  0.63091295  0.87642984  0.74948988  1
  V  V10  1  0.12266858  0.50002327  0.62317163  1
  V  V11  1  0.00482324  -0.00891880  -0.00052923  1
  V  V12  1  -0.00017362  0.37941923  0.37391919  1
  V  V13  1  0.62979954  0.37846635  0.25105655  1
  V  V14  1  0.62363446  0.50518585  0.13125578  1
  V  V15  1  0.75100888  0.25227936  0.50079576  1
  V  V16  1  0.49996129  0.87069128  0.87643193  1
  V  V17  1  0.38052633  0.11637850  0.74462791  1
  V  V18  1  0.86489650  0.75027614  0.12633127  1
  V  V19  1  0.12078567  0.75476943  0.87895234  1
  V  V20  1  0.61953323  0.12731239  0.50392232  1
  V  V21  1  0.87686202  0.25265292  0.63096795  1
  V  V22  1  0.75300346  0.12449020  0.87445144  1
  V  V23  1  0.25377648  0.12996672  0.37162996  1
  V  V24  1  0.49544407  0.37221524  0.87350958  1
  V  V25  1  0.38046971  0.87057925  0.50378838  1
  V  V26  1  -0.01270918  -0.00483869  0.49580109  1
  V  V27  1  0.13275539  0.00048709  0.62722819  1
  V  V28  1  0.86140985  0.50101474  0.36966757  1
  V  V29  1  0.25143575  0.37240915  0.62585949  1
  V  V30  1  0.75500291  0.61075989  0.87125352  1
  V  V31  1  0.87574552  0.25075829  0.12599290  1
  V  V32  1  0.37540207  0.63269185  0.73965918  1
  V  V33  1  0.37764945  0.37593711  0.50177828  1
  V  V34  1  0.50046584  0.00136316  0.48828481  1
  V  V35  1  0.00023778  0.75399957  0.24684744  1
  V  V36  1  0.37189571  0.87098744  0.01364629  1
  V  V37  1  0.24873417  0.49860531  0.75012536  1
  V  V38  1  0.74932875  0.38197165  0.63413426  1
  V  V39  1  0.76379234  0.75448824  0.49152515  1
  V  V40  1  0.33947187  -0.02952967  0.35477003  1
  V  V41  1  0.00277965  0.12051865  0.12468505  1
  V  V42  1  0.12076359  0.75857085  0.37099380  1
  V  V43  1  0.24338340  0.49057894  0.25209180  1
  V  V44  1  0.88306104  0.38773678  -0.00351387  1
  V  V45  1  0.11642223  0.36450410  0.74643407  1
  V  V46  1  0.62621467  0.50877943  0.63104654  1
  V  V47  1  0.63823302  -0.00486142  0.12862820  1
  V  V48  1  0.49678085  0.50017303  0.00071780  1
  V  V49  1  0.37323186  0.62695196  0.23872419  1
  V  V50  1  0.49696186  0.12961337  0.12538440  1
  V  V51  1  0.62484498  0.24965017  0.87254033  1
  V  V52  1  0.24808424  0.62543663  0.37422008  1
  V  V53  1  0.00174925  0.13045023  0.62712120  1
  V  V54  1  0.62388256  0.62506749  -0.00228570  1
  V  V55  1  -0.00058831  0.62244922  0.11855269  1
  V  V56  1  0.36947999  0.49708907  0.87607326  1
  V  V57  1  0.00249767  0.25212165  0.24890971  1
  V  V58  1  0.49976431  0.50863579  0.50819695  1
  V  V59  1  0.25190915  0.75083798  0.01483746  1
  V  V60  1  0.25036870  0.11954147  0.87132284  1
  V  V61  1  0.13055189  0.87954714  0.75547872  1
  V  V62  1  0.37129410  -0.00589247  0.86646376  1
  V  V63  1  0.75282361  0.25171761  -0.00019867  1
  V  V64  1  0.62556379  0.12342315  0.00130912  1
  V  V65  1  0.75105241  0.38134695  0.12671849  1
  V  V66  1  0.24843711  0.62755711  0.87712113  1
  V  V67  1  0.64343842  0.87066219  0.24949103  1
  V  V68  1  0.87232058  0.11281708  0.25357431  1
  V  V69  1  0.86972526  0.87406688  0.00400939  1
  V  V70  1  0.12597937  0.12177105  0.49906247  1
  V  V71  1  0.12060803  0.48940980  0.12476068  1
  V  V72  1  0.88066270  -0.00891529  0.87384724  1
  V  V73  1  0.25273263  0.75192595  0.50767719  1
  V  V74  1  0.62580949  0.25133740  0.37333814  1
  V  V75  1  0.61987255  0.00500834  0.62627887  1
  V  V76  1  0.62832544  0.74864948  0.87267130  1
  V  V77  1  0.11742960  0.24568553  0.87103689  1
  V  V78  1  0.37494369  0.50344346  0.37542711  1
  V  V79  1  0.37422419  0.13085247  0.24859298  1
  V  V80  1  0.13560002  -0.01289645  0.13878164  1
  V  V81  1  -0.00271974  0.75784918  0.75246228  1
  V  V82  1  0.12418342  0.25518102  0.37067298  1
  V  V83  1  0.25397326  0.25434907  0.00183827  1
  V  V84  1  0.25142043  0.25097164  0.50179236  1
  Zn  Zn85  1  0.75705819  0.88011577  0.61474045  1
  Zn  Zn86  1  0.87469318  0.37893956  0.50144294  1
  Zn  Zn87  1  -0.00383132  0.50216600  0.49661616  1
  Zn  Zn88  1  0.74819457  0.75315204  -0.00130872  1
  Zn  Zn89  1  0.86542285  0.61957661  0.24541372  1
  Zn  Zn90  1  0.50393416  0.73937555  0.73472900  1
  Zn  Zn91  1  0.75622993  0.00057866  0.74433782  1
  Zn  Zn92  1  -0.01221373  0.88242973  0.37153639  1
  Zn  Zn93  1  0.37617036  0.36908466  0.01130939  1
  Zn  Zn94  1  0.50290039  0.24574134  0.74645529  1
  Zn  Zn95  1  0.49776646  0.25615205  0.24138069  1
  Zn  Zn96  1  0.12082413  0.62181202  -0.00026869  1
  Zn  Zn97  1  0.73811370  0.62669526  0.36444584  1
  Zn  Zn98  1  0.62746467  0.38278724  0.75385599  1
  Zn  Zn99  1  0.25159165  0.87611051  0.62887185  1
  Zn  Zn100  1  0.87591078  0.75884963  0.62696724  1
  Zn  Zn101  1  -0.00231845  0.62735806  0.62516069  1
  Zn  Zn102  1  0.49425911  0.63119398  0.11953017  1
  Zn  Zn103  1  -0.00763468  0.38406988  0.87054357  1
  Zn  Zn104  1  0.25184347  0.36493916  0.13406255  1
  Zn  Zn105  1  0.12847257  0.12112791  0.00086692  1
  Zn  Zn106  1  0.51180852  0.86727694  0.37533077  1
  Zn  Zn107  1  0.18677497  0.18092939  0.18664024  1
  Zn  Zn108  1  0.19543567  0.18338082  0.68889703  1
  Zn  Zn109  1  0.18272284  0.68203083  0.18960673  1
  Zn  Zn110  1  0.18593696  0.68847786  0.68967434  1
  Zn  Zn111  1  0.68738977  0.18881219  0.18816186  1
  Zn  Zn112  1  0.69085575  0.18670205  0.68857850  1
  Zn  Zn113  1  0.68643033  0.68839266  0.19024822  1
  Zn  Zn114  1  0.69396613  0.68932023  0.68310117  1
  Zn  Zn115  1  0.31732693  0.31126477  0.31203740  1
  Zn  Zn116  1  0.30917593  0.30717063  0.81266895  1
  Zn  Zn117  1  0.31468876  0.80449810  0.31683141  1
  Zn  Zn118  1  0.30841515  0.81152270  0.81679846  1
  Zn  Zn119  1  0.81435927  0.31153986  0.31195042  1
  Zn  Zn120  1  0.81402030  0.31458016  0.81349871  1
  Zn  Zn121  1  0.81855712  0.81275912  0.31639681  1
  Zn  Zn122  1  0.81378604  0.81094218  0.81109940  1
  Zn  Zn123  1  0.18620837  0.43719907  0.43708060  1
  Zn  Zn124  1  0.15294326  0.45057708  0.92284017  1
  Zn  Zn125  1  0.18574899  0.93231184  0.42789753  1
  Zn  Zn126  1  0.18904591  0.93513196  0.94282334  1
  Zn  Zn127  1  0.68502669  0.43950317  0.44574599  1
  Zn  Zn128  1  0.68573001  0.43606455  0.94145857  1
  Zn  Zn129  1  0.69093250  0.93599682  0.43392335  1
  Zn  Zn130  1  0.69043558  0.93964806  0.93694861  1
  Zn  Zn131  1  0.31212057  0.06058311  0.05945145  1
  Zn  Zn132  1  0.31842963  0.05719257  0.55470323  1
  Zn  Zn133  1  0.30452391  0.55493623  0.06149986  1
  Zn  Zn134  1  0.30809904  0.56325452  0.56199482  1
  Zn  Zn135  1  0.81705331  0.06374381  0.06140431  1
  Zn  Zn136  1  0.80810967  0.06643182  0.56482120  1
  Zn  Zn137  1  0.80909128  0.56534184  0.06203224  1
  Zn  Zn138  1  0.80993931  0.56657267  0.55834708  1
  Zn  Zn139  1  0.43428979  0.43774572  0.18605290  1
  Zn  Zn140  1  0.43807733  0.43835454  0.69001994  1
  Zn  Zn141  1  0.44100392  0.94510355  0.18826086  1
  Zn  Zn142  1  0.45444777  0.90697419  0.67251921  1
  Zn  Zn143  1  0.93926565  0.43626145  0.18958112  1
  Zn  Zn144  1  0.93962766  0.43834088  0.68539137  1
  Zn  Zn145  1  0.93884463  0.93375159  0.18551217  1
  Zn  Zn146  1  0.94344482  0.93936675  0.68481500  1
  Zn  Zn147  1  0.06246881  0.06368646  0.31316014  1
  Zn  Zn148  1  0.06161851  0.06019436  0.81208373  1
  Zn  Zn149  1  0.05841927  0.56687317  0.30668688  1
  Zn  Zn150  1  0.05798216  0.56280590  0.81252945  1
  Zn  Zn151  1  0.56830290  0.06303760  0.30762895  1
  Zn  Zn152  1  0.55966387  0.05983522  0.81307568  1
  Zn  Zn153  1  0.55828304  0.56789102  0.31301011  1
  Zn  Zn154  1  0.55769182  0.56353518  0.81312385  1
  Zn  Zn155  1  0.43966477  0.18886960  0.43403384  1
  Zn  Zn156  1  0.43562150  0.18389442  0.93602025  1
  Zn  Zn157  1  0.44020801  0.69059049  0.43208974  1
  Zn  Zn158  1  0.43437879  0.68863057  0.93384722  1
  Zn  Zn159  1  0.93661334  0.18629407  0.43917141  1
  Zn  Zn160  1  0.94085896  0.18853675  0.94124821  1
  Zn  Zn161  1  0.93615778  0.68656867  0.43240141  1
  Zn  Zn162  1  0.93670672  0.68627999  0.93710039  1
  Zn  Zn163  1  0.06729960  0.30947291  0.05962123  1
  Zn  Zn164  1  0.06114637  0.31159452  0.55787057  1
  Zn  Zn165  1  0.06149641  0.81269510  0.06431679  1
  Zn  Zn166  1  0.06153006  0.81407184  0.56652015  1
  Zn  Zn167  1  0.56338647  0.31371459  0.05967639  1
  Zn  Zn168  1  0.56458089  0.31797825  0.56369606  1
  Zn  Zn169  1  0.56234932  0.81089977  0.06594081  1
  Zn  Zn170  1  0.56433858  0.81468579  0.56771556  1
  O  O171  1  0.11206407  0.11772848  0.12423120  1
  O  O172  1  0.11932393  0.12415067  0.61987607  1
  O  O173  1  0.11503259  0.61455491  0.12479581  1
  O  O174  1  0.12583772  0.61582956  0.61792961  1
  O  O175  1  0.62133567  0.11598147  0.12098153  1
  O  O176  1  0.62853257  0.12132567  0.61477323  1
  O  O177  1  0.62267693  0.61777742  0.11698525  1
  O  O178  1  0.62829155  0.61986831  0.61330507  1
  O  O179  1  0.38114893  0.38184523  0.38216305  1
  O  O180  1  0.38073690  0.37888751  0.87492085  1
  O  O181  1  0.38938541  0.87408473  0.38532510  1
  O  O182  1  0.38321564  0.87790393  0.87865309  1
  O  O183  1  0.88090923  0.38332359  0.37697442  1
  O  O184  1  0.87658269  0.37195974  0.88992796  1
  O  O185  1  0.87970526  0.86937930  0.38513476  1
  O  O186  1  0.87470202  0.88692950  0.87864361  1
  O  O187  1  0.24882406  0.02497138  0.39606030  1
  O  O188  1  0.25995523  0.00532710  0.88040095  1
  O  O189  1  0.25304777  0.50603602  0.37084490  1
  O  O190  1  0.24811638  0.50748299  0.86998451  1
  O  O191  1  0.74831531  0.01779790  0.38055558  1
  O  O192  1  0.76201716  0.00968670  0.87521027  1
  O  O193  1  0.75959618  0.49716781  0.37930526  1
  O  O194  1  0.74100711  0.51258212  0.87361048  1
  O  O195  1  0.23912243  0.49775545  0.13806742  1
  O  O196  1  0.24012015  0.49238062  0.62714553  1
  O  O197  1  0.23380732  1.00564934  0.12180271  1
  O  O198  1  0.23504941  1.00586787  0.61786759  1
  O  O199  1  0.73931280  0.48850707  0.11861461  1
  O  O200  1  0.74032082  0.49258020  0.61725442  1
  O  O201  1  0.73659388  1.00548469  0.11970905  1
  O  O202  1  0.73734272  1.00075921  0.62509723  1
  O  O203  1  -0.00380979  0.36062918  0.25971990  1
  O  O204  1  0.01279119  0.37485452  0.74949429  1
  O  O205  1  -0.00298918  0.85870219  0.24969534  1
  O  O206  1  0.01322404  0.86455167  0.74905972  1
  O  O207  1  0.51088431  0.37685592  0.25559539  1
  O  O208  1  0.50211608  0.37168235  0.76283064  1
  O  O209  1  0.49872333  0.86606076  0.24974019  1
  O  O210  1  0.51564842  0.88540097  0.76939005  1
  O  O211  1  0.49521506  0.12776228  0.24204086  1
  O  O212  1  0.48539556  0.12699756  0.75539489  1
  O  O213  1  0.48969802  0.63280580  0.24602675  1
  O  O214  1  0.48143063  0.62551378  0.75310513  1
  O  O215  1  0.99279612  0.13408991  0.24626128  1
  O  O216  1  0.99060830  0.12490429  0.74238839  1
  O  O217  1  0.99293788  0.63315291  0.23726828  1
  O  O218  1  0.98936986  0.63135989  0.75132823  1
  O  O219  1  0.35873436  0.24866318  -0.00760996  1
  O  O220  1  0.37178713  0.25408184  0.50605647  1
  O  O221  1  0.36467010  0.75763421  -0.00420330  1
  O  O222  1  0.36682051  0.75809576  0.49430585  1
  O  O223  1  0.86907002  0.25399978  0.00850076  1
  O  O224  1  0.86672322  0.25039543  0.51167899  1
  O  O225  1  0.87566778  0.75854482  0.00484490  1
  O  O226  1  0.86616300  0.74165301  0.50458885  1
  O  O227  1  0.12951480  0.24015295  0.49362914  1
  O  O228  1  0.13263580  0.24324598  0.98832157  1
  O  O229  1  0.12874403  0.74345156  0.49489443  1
  O  O230  1  0.13170321  0.74919290  0.99402471  1
  O  O231  1  0.63030282  0.24531974  0.49680103  1
  O  O232  1  0.63186755  0.24599182  0.98952233  1
  O  O233  1  0.62238069  0.74000623  0.50229356  1
  O  O234  1  0.62501355  0.74332670  0.99181435  1
  O  O235  1  0.50826515  0.23444118  0.12162359  1
  O  O236  1  0.48808032  0.25518367  0.62475042  1
  O  O237  1  0.49940233  0.74695446  0.13831293  1
  O  O238  1  0.48303218  0.79614334  0.64080446  1
  O  O239  1  0.99902333  0.24292546  0.13185513  1
  O  O240  1  0.99229335  0.23910898  0.61843191  1
  O  O241  1  0.99437916  0.74160828  0.12930393  1
  O  O242  1  0.99946788  0.74625380  0.63706166  1
  O  O243  1  0.00594545  0.25469708  0.36944596  1
  O  O244  1  0.01439042  0.25291906  0.87849405  1
  O  O245  1  0.00711774  0.74223240  0.36346436  1
  O  O246  1  0.01339344  0.74402548  0.87013381  1
  O  O247  1  0.50936517  0.26166463  0.37546673  1
  O  O248  1  0.50714685  0.25592772  0.87628143  1
  O  O249  1  0.50351283  0.74774957  0.35341170  1
  O  O250  1  0.51063759  0.75559395  0.87017529  1
  O  O251  1  0.24414319  0.13568672  0.49761859  1
  O  O252  1  0.25023138  0.13054248  0.98723778  1
  O  O253  1  0.24045064  0.63066396  0.49461923  1
  O  O254  1  0.24978559  0.63308903  0.99242035  1
  O  O255  1  0.74209277  0.13727762  0.49510556  1
  O  O256  1  0.74598630  0.13223590  0.99543271  1
  O  O257  1  0.73755399  0.63701665  0.49623642  1
  O  O258  1  0.74363024  0.62618778  0.98556117  1
  O  O259  1  0.24776321  0.35687432  -0.00479241  1
  O  O260  1  0.25691208  0.37017041  0.50498649  1
  O  O261  1  0.25998167  0.86226224  -0.00291420  1
  O  O262  1  0.25684866  0.86586548  0.49662998  1
  O  O263  1  0.75767287  0.36980061  0.00682819  1
  O  O264  1  0.74872102  0.36399138  0.51047989  1
  O  O265  1  0.76482123  0.87423169  -0.00515782  1
  O  O266  1  0.74088041  0.85724606  0.49837130  1
  O  O267  1  0.13362456  0.50433681  0.24147327  1
  O  O268  1  0.13145344  0.49195627  0.73789583  1
  O  O269  1  0.12084153  1.00236659  0.23811087  1
  O  O270  1  0.11941637  0.99141734  0.74136956  1
  O  O271  1  0.61733881  0.49551885  0.23781572  1
  O  O272  1  0.61693442  0.50287487  0.73551187  1
  O  O273  1  0.62466718  0.98901646  0.23601225  1
  O  O274  1  0.62724211  0.99730999  0.74306619  1
  O  O275  1  0.38358257  0.01055731  0.26648917  1
  O  O276  1  0.38235605  0.00045988  0.76182364  1
  O  O277  1  0.36836103  0.50796612  0.25847327  1
  O  O278  1  0.36734596  0.50597460  0.75648770  1
  O  O279  1  0.88045389  0.01384428  0.24366534  1
  O  O280  1  0.87930580  0.00991527  0.75947492  1
  O  O281  1  0.87664362  0.49618920  0.26555708  1
  O  O282  1  0.88294738  0.51245914  0.75357407  1
  O  O283  1  0.11770877  0.36276260  0.37996551  1
  O  O284  1  0.13688372  0.35625448  0.85891313  1
  O  O285  1  0.10897734  0.86077037  0.38188720  1
  O  O286  1  0.12885091  0.86710826  0.86921664  1
  O  O287  1  0.62329529  0.37433458  0.36829514  1
  O  O288  1  0.61844511  0.36682812  0.87433981  1
  O  O289  1  0.62772165  0.88159849  0.35319128  1
  O  O290  1  0.62059447  0.86728967  0.87461050  1
  O  O291  1  0.38459929  0.11451791  0.13498037  1
  O  O292  1  0.37033989  0.12951065  0.63154923  1
  O  O293  1  0.37220386  0.61633349  0.13648637  1
  O  O294  1  0.36645648  0.62129526  0.64099233  1
  O  O295  1  0.88501571  0.13078997  0.13039416  1
  O  O296  1  0.88142013  0.13268083  0.63327520  1
  O  O297  1  0.88106783  0.63049148  0.12287468  1
  O  O298  1  0.87458138  0.62544687  0.63942913  1
  O  O299  1  0.23905967  0.24607890  0.10681981  1
  O  O300  1  0.26103705  0.25384214  0.61999365  1
  O  O301  1  0.24445163  0.74329725  0.11374509  1
  O  O302  1  0.24354821  0.75176908  0.61088720  1
  O  O303  1  0.75295571  0.26133762  0.12015498  1
  O  O304  1  0.75732762  0.25593014  0.61964801  1
  O  O305  1  0.76192092  0.74384252  0.11771281  1
  O  O306  1  0.75273557  0.75278884  0.60955640  1
  O  O307  1  0.24323554  0.24689014  0.38008617  1
  O  O308  1  0.24332398  0.23845251  0.88102542  1
  O  O309  1  0.23910247  0.74192166  0.38325615  1
  O  O310  1  0.24041633  0.74273692  0.88244364  1
  O  O311  1  0.74444412  0.24950329  0.38475278  1
  O  O312  1  0.74351278  0.24542266  0.87909589  1
  O  O313  1  0.75107406  0.74401915  0.38801058  1
  O  O314  1  0.73828928  0.74308252  0.87497333  1
  O  O315  1  0.00014289  0.11504866  0.01053738  1
  O  O316  1  0.00855635  0.12152220  0.50642563  1
  O  O317  1  0.00103014  0.62731090  0.01314232  1
  O  O318  1  0.01163539  0.62485875  0.50171236  1
  O  O319  1  0.50566262  0.11890678  0.00482921  1
  O  O320  1  0.51234203  0.12053913  0.49408136  1
  O  O321  1  0.50422720  0.61816611  -0.00269497  1
  O  O322  1  0.50785681  0.62084645  0.49991731  1
  O  O323  1  0.49607340  0.38497502  0.49462251  1
  O  O324  1  0.49795718  0.37970092  0.98939497  1
  O  O325  1  0.49714468  0.88286648  0.49506631  1
  O  O326  1  0.49513309  0.87600137  0.99151002  1
  O  O327  1  0.99685784  0.37542495  0.48661205  1
  O  O328  1  0.98438587  0.36924025  1.00411061  1
  O  O329  1  1.00277874  0.89418600  0.50737316  1
  O  O330  1  0.99077167  0.88591977  1.00212300  1
  O  O331  1  0.49473726  0.49666827  0.38559377  1
  O  O332  1  0.49340401  0.49185419  0.88157316  1
  O  O333  1  0.51239068  0.99866852  0.38516251  1
  O  O334  1  0.49470132  0.99199654  0.88468365  1
  O  O335  1  0.99794200  0.49037229  0.37317422  1
  O  O336  1  1.04490166  0.48303151  0.88678912  1
  O  O337  1  1.00468276  1.00303625  0.39164535  1
  O  O338  1  0.99113765  1.00749586  0.88661536  1
  O  O339  1  0.00535654  0.00538913  0.11814931  1
  O  O340  1  0.00985729  0.01392109  0.61760418  1
  O  O341  1  0.01285614  0.50385058  0.13274944  1
  O  O342  1  0.01191495  0.50122419  0.61974024  1
  O  O343  1  0.51033253  0.01048519  0.11922007  1
  O  O344  1  0.51423769  -0.00540209  0.61061514  1
  O  O345  1  0.50672761  0.50223650  0.11580901  1
  O  O346  1  0.50547216  0.49490894  0.61357038  1
  O  O347  1  0.25137495  0.38673900  0.25632769  1
  O  O348  1  0.24484282  0.37867934  0.74182758  1
  O  O349  1  0.26325298  0.90558423  0.31565096  1
  O  O350  1  0.23659042  0.86865365  0.74696432  1
  O  O351  1  0.73842932  0.37176527  0.24218209  1
  O  O352  1  0.74811862  0.37227255  0.73847254  1
  O  O353  1  0.74153789  0.86458463  0.24428797  1
  O  O354  1  0.73713693  0.88077056  0.75971822  1
  O  O355  1  0.25928796  0.12914298  0.25970407  1
  O  O356  1  0.26371286  0.12489854  0.76252332  1
  O  O357  1  0.25604851  0.61767672  0.25680198  1
  O  O358  1  0.25500209  0.61967212  0.75687627  1
  O  O359  1  0.75925309  0.13288892  0.25943573  1
  O  O360  1  0.76447172  0.12417857  0.75575145  1
  O  O361  1  0.75034523  0.62339148  0.25233107  1
  O  O362  1  0.76272864  0.62857655  0.76028107  1
  O  O363  1  0.36614359  0.12883566  0.36782634  1
  O  O364  1  0.36988172  0.11392410  0.86843680  1
  O  O365  1  0.36755651  0.62026488  0.36891749  1
  O  O366  1  0.36261451  0.61760643  0.86959338  1
  O  O367  1  0.86597334  0.13418437  0.36545827  1
  O  O368  1  0.87402234  0.12303759  0.86947255  1
  O  O369  1  0.87421607  0.60828043  0.37243639  1
  O  O370  1  0.86204303  0.62517842  0.86920403  1
  O  O371  1  0.12791996  0.38510816  0.12516763  1
  O  O372  1  0.12961376  0.37763662  0.62747979  1
  O  O373  1  0.12326018  0.88767351  0.12469483  1
  O  O374  1  0.12827956  0.88520269  0.63231523  1
  O  O375  1  0.63040719  0.38134949  0.13101651  1
  O  O376  1  0.63287272  0.38417912  0.62895715  1
  O  O377  1  0.62267392  0.88808098  0.13080864  1
  O  O378  1  0.63304688  0.88500866  0.63581464  1
  O  O379  1  0.11641098  0.24240826  0.25984620  1
  O  O380  1  0.13058898  0.25412547  0.75416703  1
  O  O381  1  0.11674155  0.74335191  0.26040600  1
  O  O382  1  0.11856229  0.75504229  0.75854293  1
  O  O383  1  0.62198983  0.26054779  0.25535059  1
  O  O384  1  0.62372947  0.24797689  0.76242316  1
  O  O385  1  0.61500442  0.76690296  0.23886944  1
  O  O386  1  0.62398055  0.75739797  0.75457307  1
  O  O387  1  0.38069454  0.23730767  0.25158453  1
  O  O388  1  0.37617938  0.23939676  0.74084137  1
  O  O389  1  0.38175548  0.74190938  0.25040527  1
  O  O390  1  0.37097734  0.73443559  0.75702227  1
  O  O391  1  0.88281718  0.24531861  0.24240819  1
  O  O392  1  0.87341426  0.24549170  0.73913537  1
  O  O393  1  0.88095367  0.74562494  0.23940948  1
  O  O394  1  0.88613494  0.74096989  0.75600776  1
  O  O395  1  0.38109312  0.49857253  0.49663236  1
  O  O396  1  0.37918559  0.49698111  0.99246404  1
  O  O397  1  0.38263788  0.99432401  0.47805531  1
  O  O398  1  0.38076491  0.99172226  0.99013617  1
  O  O399  1  0.87675351  0.49887242  0.48813121  1
  O  O400  1  0.87249103  0.48587975  1.00445680  1
  O  O401  1  0.88982613  1.01160540  0.50649505  1
  O  O402  1  0.88240120  0.99402768  0.99514527  1
  O  O403  1  0.11682868  0.00126500  0.00531880  1
  O  O404  1  0.12091649  0.01241496  0.50438317  1
  O  O405  1  0.13901373  0.50454065  0.02321149  1
  O  O406  1  0.12510497  0.50820220  0.50612441  1
  O  O407  1  0.62035625  0.00281273  0.00827408  1
  O  O408  1  0.62199346  0.00926263  0.50426506  1
  O  O409  1  0.61693285  0.50395516  0.00863101  1
  O  O410  1  0.61645427  0.50827885  0.51044206  1
  O  O411  1  0.36583473  0.37610731  0.12448949  1
  O  O412  1  0.37108600  0.36825600  0.62039194  1
  O  O413  1  0.37987006  0.88439205  0.11212171  1
  O  O414  1  0.36289513  0.90044999  0.60367650  1
  O  O415  1  0.86741547  0.37178884  0.12021875  1
  O  O416  1  0.86962986  0.36961116  0.62383230  1
  O  O417  1  0.87922615  0.86392404  0.11546511  1
  O  O418  1  0.86696256  0.87292218  0.64190761  1
  O  O419  1  0.12992280  0.13556848  0.38199556  1
  O  O420  1  0.13323935  0.12882228  0.87206383  1
  O  O421  1  0.12863306  0.62899394  0.38271615  1
  O  O422  1  0.13634879  0.63347160  0.87525951  1
  O  O423  1  0.63246595  0.13415840  0.37943722  1
  O  O424  1  0.62977989  0.12968516  0.88153740  1
  O  O425  1  0.62352187  0.61608412  0.39400877  1
  O  O426  1  0.63177228  0.63106326  0.87509265  1
