# generated using pymatgen
data_V85Zn86O256
_symmetry_space_group_name_H-M   'P 1'
_cell_length_a   16.93954067
_cell_length_b   16.93871545
_cell_length_c   16.93961594
_cell_angle_alpha   90.05998893
_cell_angle_beta   89.96986022
_cell_angle_gamma   90.09608743
_symmetry_Int_Tables_number   1
_chemical_formula_structural   V85Zn86O256
_chemical_formula_sum   'V85 Zn86 O256'
_cell_volume   4860.54259638
_cell_formula_units_Z   1
loop_
 _symmetry_equiv_pos_site_id
 _symmetry_equiv_pos_as_xyz
  1  'x, y, z'
loop_
 _atom_site_type_symbol
 _atom_site_label
 _atom_site_symmetry_multiplicity
 _atom_site_fract_x
 _atom_site_fract_y
 _atom_site_fract_z
 _atom_site_occupancy
  V  V0  1  0.50564006  0.25371418  0.74410613  1
  V  V1  1  0.38297276  0.00149090  0.38088172  1
  V  V2  1  0.87399742  0.49840259  0.87421890  1
  V  V3  1  0.38020224  0.87930707  0.50819631  1
  V  V4  1  0.37512051  0.49812150  0.37988911  1
  V  V5  1  0.37682286  0.12600536  0.75050569  1
  V  V6  1  0.88088621  0.11493339  0.74862015  1
  V  V7  1  0.87425345  0.86892503  -0.00066519  1
  V  V8  1  0.12734045  0.75256603  0.37848073  1
  V  V9  1  0.87627697  -0.00833267  0.37733349  1
  V  V10  1  0.12608450  0.00114765  0.12515410  1
  V  V11  1  0.25309381  0.00349453  0.24998333  1
  V  V12  1  -0.00042459  0.62174960  0.62468998  1
  V  V13  1  0.25252667  -0.00395751  0.74880703  1
  V  V14  1  0.12667578  0.49837715  0.62848533  1
  V  V15  1  0.50120718  0.11361592  0.62086370  1
  V  V16  1  0.25119448  0.12373007  0.87661789  1
  V  V17  1  0.26218334  0.38308626  0.62940616  1
  V  V18  1  0.61823694  0.88024500  0.75363829  1
  V  V19  1  0.00894177  0.50552630  0.00574095  1
  V  V20  1  0.25253369  0.74939764  -0.00160409  1
  V  V21  1  0.37576334  0.38503085  -0.00136574  1
  V  V22  1  0.38291455  -0.01175647  0.88032904  1
  V  V23  1  0.24389695  0.37878077  0.12505006  1
  V  V24  1  0.12778412  0.62482700  0.50096858  1
  V  V25  1  0.87583075  0.37300228  -0.00061673  1
  V  V26  1  0.25003545  0.24890191  -0.00121759  1
  V  V27  1  0.12839718  0.87177393  0.74562892  1
  V  V28  1  0.12415442  0.24625379  0.86980627  1
  V  V29  1  0.62317186  0.87647240  0.24905430  1
  V  V30  1  0.60422972  0.75312344  0.87467453  1
  V  V31  1  0.12449857  0.37166518  0.74587595  1
  V  V32  1  0.75091155  0.12623648  0.37465236  1
  V  V33  1  0.11752099  0.25364091  0.37400901  1
  V  V34  1  0.62747503  0.48926307  0.62918482  1
  V  V35  1  0.62179476  0.11466507  0.49717341  1
  V  V36  1  0.62473328  0.74915007  0.37736441  1
  V  V37  1  0.62623714  0.24931003  0.86848830  1
  V  V38  1  0.87585000  0.36900722  0.49984337  1
  V  V39  1  0.38816735  0.12917302  0.24715870  1
  V  V40  1  0.38350181  0.75078270  0.63770493  1
  V  V41  1  0.87468950  0.75587092  0.62122055  1
  V  V42  1  0.25196021  0.12784091  0.37424604  1
  V  V43  1  -0.00099353  -0.00330096  0.50262792  1
  V  V44  1  0.00127315  0.74652210  0.74990365  1
  V  V45  1  0.38470767  0.24913818  0.12748288  1
  V  V46  1  0.87521524  0.24696254  0.12497101  1
  V  V47  1  0.62112485  0.24957600  0.36968695  1
  V  V48  1  0.74919598  -0.00005269  0.23993194  1
  V  V49  1  0.25542866  0.60742482  0.87339222  1
  V  V50  1  0.75266284  0.75911555  0.50196588  1
  V  V51  1  0.49140490  0.74761974  0.25326487  1
  V  V52  1  0.49819998  -0.00985029  0.01273528  1
  V  V53  1  0.26062506  0.62881760  0.37382136  1
  V  V54  1  0.74808096  0.24577327  -0.00206657  1
  V  V55  1  0.50294854  0.50476595  -0.00324491  1
  V  V56  1  0.12582395  0.00368731  0.62755225  1
  V  V57  1  0.12264807  0.12678647  0.50514678  1
  V  V58  1  0.25301329  0.25747718  0.49987944  1
  V  V59  1  0.88854974  0.24451270  0.63405830  1
  V  V60  1  0.87377817  0.49499197  0.37332066  1
  V  V61  1  0.62546271  0.51191403  0.12402142  1
  V  V62  1  0.00032115  -0.00174396  -0.00092325  1
  V  V63  1  0.73940854  0.62650604  0.88221284  1
  V  V64  1  0.86945581  0.62201063  0.74889300  1
  V  V65  1  0.87824536  0.12421111  0.24707533  1
  V  V66  1  0.00103702  0.87147586  0.87500256  1
  V  V67  1  0.12583466  0.87753808  0.25241938  1
  V  V68  1  0.25173002  0.50636735  0.24603338  1
  V  V69  1  0.87780401  0.74355160  0.12877309  1
  V  V70  1  -0.00110265  0.36972103  0.87090033  1
  V  V71  1  0.60981258  0.12626586  0.01357277  1
  V  V72  1  0.00018071  0.49499709  0.49145806  1
  V  V73  1  0.62402396  0.62525803  0.50584626  1
  V  V74  1  0.12665632  0.73863103  0.88137510  1
  V  V75  1  0.37571035  0.75669676  0.12139021  1
  V  V76  1  0.49451877  0.37143622  0.37973414  1
  V  V77  1  0.12121920  0.37947917  0.25202184  1
  V  V78  1  0.48690434  0.62286615  0.12982263  1
  V  V79  1  0.25197741  0.75700747  0.51362786  1
  V  V80  1  0.49990644  0.37633516  0.87179258  1
  V  V81  1  0.74568460  0.87142311  0.12436566  1
  V  V82  1  0.74723630  0.37643412  0.12685057  1
  V  V83  1  0.37765937  0.25045548  0.62135541  1
  V  V84  1  0.61688755  0.37515794  0.24919352  1
  Zn  Zn85  1  0.00261998  0.74662065  0.25141602  1
  Zn  Zn86  1  0.75070916  0.36666304  0.63430290  1
  Zn  Zn87  1  0.37328252  0.60076837  0.75072648  1
  Zn  Zn88  1  0.75561023  0.88516919  0.63717095  1
  Zn  Zn89  1  0.74118639  0.74369919  0.00304758  1
  Zn  Zn90  1  0.01450838  0.62487745  0.12855928  1
  Zn  Zn91  1  -0.00187964  0.25503222  0.25182112  1
  Zn  Zn92  1  0.12254998  0.12578830  0.00058708  1
  Zn  Zn93  1  0.50448859  0.62613658  0.63683837  1
  Zn  Zn94  1  0.87731787  0.62264883  0.25236083  1
  Zn  Zn95  1  0.50309676  0.87945500  0.38162042  1
  Zn  Zn96  1  0.63361788  0.00309914  0.63770150  1
  Zn  Zn97  1  0.25639785  0.87916900  0.11638290  1
  Zn  Zn98  1  0.75254493  0.62426942  0.37504694  1
  Zn  Zn99  1  0.86453504  -0.00849152  0.86508167  1
  Zn  Zn100  1  0.74203787  0.49342898  0.75429187  1
  Zn  Zn101  1  0.74971047  0.50280497  0.25126747  1
  Zn  Zn102  1  0.49902861  0.50043643  0.49920535  1
  Zn  Zn103  1  0.74376326  0.11404392  0.86460446  1
  Zn  Zn104  1  -0.00080401  0.12472146  0.12351369  1
  Zn  Zn105  1  -0.00187957  0.87218665  0.37895589  1
  Zn  Zn106  1  0.75149182  0.24942092  0.50171999  1
  Zn  Zn107  1  0.19009208  0.18824293  0.18710071  1
  Zn  Zn108  1  0.18971941  0.18782325  0.68848489  1
  Zn  Zn109  1  0.19127908  0.69184904  0.19113720  1
  Zn  Zn110  1  0.19249077  0.68284010  0.69296648  1
  Zn  Zn111  1  0.68692788  0.18913298  0.18791712  1
  Zn  Zn112  1  0.69573618  0.18418493  0.68455723  1
  Zn  Zn113  1  0.68889363  0.68653615  0.19267260  1
  Zn  Zn114  1  0.68589199  0.69106269  0.69242539  1
  Zn  Zn115  1  0.31121353  0.31476882  0.31010868  1
  Zn  Zn116  1  0.31452971  0.42724602  0.81273310  1
  Zn  Zn117  1  0.31213216  0.81791600  0.31579337  1
  Zn  Zn118  1  0.31064424  0.81273108  0.81668660  1
  Zn  Zn119  1  0.81030511  0.31590138  0.31239038  1
  Zn  Zn120  1  0.81087418  0.30740950  0.80784615  1
  Zn  Zn121  1  0.81094002  0.81007839  0.31180047  1
  Zn  Zn122  1  0.80697134  0.81025065  0.81040590  1
  Zn  Zn123  1  0.18908884  0.43766040  0.43729370  1
  Zn  Zn124  1  0.18254716  0.42936719  0.93859957  1
  Zn  Zn125  1  0.19412047  0.93868818  0.43991462  1
  Zn  Zn126  1  0.18852289  0.93300013  0.93503007  1
  Zn  Zn127  1  0.68993587  0.43632200  0.44066786  1
  Zn  Zn128  1  0.68448200  0.43515508  0.93668280  1
  Zn  Zn129  1  0.69177398  0.93791060  0.43793298  1
  Zn  Zn130  1  0.67927298  0.93559653  0.93699477  1
  Zn  Zn131  1  0.31670553  0.06451905  0.06230147  1
  Zn  Zn132  1  0.30912227  0.06371029  0.56321591  1
  Zn  Zn133  1  0.19060596  0.56525404  0.06125340  1
  Zn  Zn134  1  0.31456108  0.56586124  0.56239943  1
  Zn  Zn135  1  0.79391340  0.04409690  0.03342642  1
  Zn  Zn136  1  0.81425163  0.06438575  0.56502609  1
  Zn  Zn137  1  0.81542690  0.55981427  0.06088884  1
  Zn  Zn138  1  0.80839874  0.56357112  0.55969979  1
  Zn  Zn139  1  0.43323757  0.43834418  0.19027610  1
  Zn  Zn140  1  0.44683370  0.43764578  0.68244491  1
  Zn  Zn141  1  0.43876623  0.93789164  0.19025112  1
  Zn  Zn142  1  0.44039377  0.93141185  0.69262584  1
  Zn  Zn143  1  0.93778343  0.43687247  0.18662851  1
  Zn  Zn144  1  0.93677015  0.43391455  0.68604734  1
  Zn  Zn145  1  0.93873540  0.93357120  0.18683854  1
  Zn  Zn146  1  0.94321407  0.93875215  0.68615166  1
  Zn  Zn147  1  0.06187508  0.06515260  0.31458513  1
  Zn  Zn148  1  0.05773165  0.06232077  0.81253871  1
  Zn  Zn149  1  0.06590304  0.56608249  0.30992796  1
  Zn  Zn150  1  0.06194752  0.55838229  0.81244596  1
  Zn  Zn151  1  0.56394684  0.06095396  0.30850861  1
  Zn  Zn152  1  0.56140510  0.06472179  0.81580308  1
  Zn  Zn153  1  0.56240370  0.56351518  0.31241475  1
  Zn  Zn154  1  0.55775896  0.56449344  0.80940642  1
  Zn  Zn155  1  0.43974595  0.18839622  0.43716250  1
  Zn  Zn156  1  0.43504681  0.19106197  0.93526365  1
  Zn  Zn157  1  0.43912423  0.69077126  0.44377741  1
  Zn  Zn158  1  0.43159458  0.67979427  0.94075271  1
  Zn  Zn159  1  0.93884667  0.18341340  0.43921412  1
  Zn  Zn160  1  0.93633660  0.18206753  0.93147291  1
  Zn  Zn161  1  0.93907824  0.68397428  0.43833660  1
  Zn  Zn162  1  0.93412032  0.68522784  0.93636017  1
  Zn  Zn163  1  0.06184962  0.31360442  0.06131399  1
  Zn  Zn164  1  0.06124012  0.31374346  0.56019545  1
  Zn  Zn165  1  0.06539853  0.81055682  0.06483559  1
  Zn  Zn166  1  0.06236820  0.81531093  0.56457499  1
  Zn  Zn167  1  0.56317969  0.31571067  0.06037717  1
  Zn  Zn168  1  0.56515191  0.30838451  0.55434741  1
  Zn  Zn169  1  0.56402191  0.80740738  0.06029185  1
  Zn  Zn170  1  0.56201108  0.81683465  0.56785475  1
  O  O171  1  0.12349100  0.11314397  0.12405777  1
  O  O172  1  0.13022229  0.11860840  0.61668295  1
  O  O173  1  0.12723899  0.63062571  0.12457127  1
  O  O174  1  0.12376574  0.61600342  0.62125738  1
  O  O175  1  0.62163748  0.13194023  0.11258914  1
  O  O176  1  0.61904069  0.12477779  0.61429734  1
  O  O177  1  0.61827865  0.61482276  0.12910050  1
  O  O178  1  0.62569124  0.61988894  0.61954889  1
  O  O179  1  0.38273186  0.38289984  0.36937665  1
  O  O180  1  0.38781786  0.37172921  0.88472061  1
  O  O181  1  0.37684809  0.88586975  0.38372980  1
  O  O182  1  0.37372886  0.88993784  0.87477562  1
  O  O183  1  0.87471161  0.38406910  0.38279937  1
  O  O184  1  0.88310099  0.37623294  0.87911458  1
  O  O185  1  0.87601261  0.88822642  0.37038145  1
  O  O186  1  0.87997194  0.87150721  0.88323922  1
  O  O187  1  0.25954311  0.00871755  0.37015662  1
  O  O188  1  0.25915041  0.00508250  0.87241025  1
  O  O189  1  0.25619272  0.50911066  0.37244770  1
  O  O190  1  0.24684882  0.50254983  0.87777707  1
  O  O191  1  0.75787487  0.00587253  0.36453090  1
  O  O192  1  0.76172737  0.01002525  0.91656498  1
  O  O193  1  0.76029932  0.50069277  0.37542910  1
  O  O194  1  0.75197028  0.50906008  0.87593787  1
  O  O195  1  0.25031730  0.49158561  0.13240376  1
  O  O196  1  0.23972531  0.48994233  0.61092452  1
  O  O197  1  0.24479430  0.99928562  0.12898575  1
  O  O198  1  0.23936391  1.00361578  0.63633969  1
  O  O199  1  0.74154532  0.49427296  0.12322047  1
  O  O200  1  0.73714920  0.49909600  0.62448114  1
  O  O201  1  0.75555613  0.99087765  0.13365657  1
  O  O202  1  0.74250515  0.99430518  0.60853022  1
  O  O203  1  0.01672632  0.37444513  0.24280108  1
  O  O204  1  0.01158462  0.37721585  0.75806140  1
  O  O205  1  0.01478651  0.87514509  0.25517532  1
  O  O206  1  0.00740244  0.86661586  0.75556672  1
  O  O207  1  0.51108042  0.38015797  0.25798479  1
  O  O208  1  0.49876042  0.36184944  0.75623285  1
  O  O209  1  0.50957094  0.86934394  0.25300905  1
  O  O210  1  0.51659248  0.87273073  0.75310952  1
  O  O211  1  0.48761062  0.12437622  0.25152420  1
  O  O212  1  0.49730824  0.13443816  0.74211215  1
  O  O213  1  0.50652554  0.63671036  0.24271155  1
  O  O214  1  0.48495796  0.61902911  0.74862302  1
  O  O215  1  0.98951875  0.12770255  0.24744602  1
  O  O216  1  0.98282297  0.12533351  0.75578896  1
  O  O217  1  0.99606300  0.62755580  0.24687911  1
  O  O218  1  0.99408234  0.62861248  0.74449851  1
  O  O219  1  0.36803316  0.25666742  0.00915887  1
  O  O220  1  0.36608959  0.24179727  0.51102913  1
  O  O221  1  0.36616731  0.74569005  0.00916945  1
  O  O222  1  0.36813263  0.75845486  0.50878334  1
  O  O223  1  0.86679840  0.25109710  0.00484027  1
  O  O224  1  0.87684490  0.25415474  0.50459458  1
  O  O225  1  0.87542058  0.75849644  0.00718486  1
  O  O226  1  0.86716019  0.74242144  0.50977233  1
  O  O227  1  0.13086703  0.24475368  0.49449861  1
  O  O228  1  0.13169947  0.25000225  0.99154186  1
  O  O229  1  0.13360400  0.74909623  0.49746694  1
  O  O230  1  0.12787685  0.75317370  0.98577913  1
  O  O231  1  0.62967980  0.24017849  0.48507914  1
  O  O232  1  0.62781879  0.24300488  0.99499740  1
  O  O233  1  0.62976043  0.74707273  0.49549206  1
  O  O234  1  0.62651109  0.75175177  0.98189040  1
  O  O235  1  0.48291970  0.25863635  0.12251705  1
  O  O236  1  0.49661570  0.24630414  0.62726679  1
  O  O237  1  0.49682262  0.74426156  0.13158094  1
  O  O238  1  0.48639507  0.74739946  0.62373703  1
  O  O239  1  0.98633917  0.24805043  0.12322329  1
  O  O240  1  0.98743914  0.24812395  0.61869953  1
  O  O241  1  0.99165802  0.74958976  0.12724432  1
  O  O242  1  0.99503433  0.74180680  0.62837279  1
  O  O243  1  0.01412894  0.24550494  0.37386100  1
  O  O244  1  0.00890940  0.26156961  0.88410700  1
  O  O245  1  0.01526966  0.75155876  0.37954449  1
  O  O246  1  0.00758395  0.74988828  0.86945056  1
  O  O247  1  0.50775481  0.25760874  0.37414376  1
  O  O248  1  0.50521280  0.25440201  0.86452635  1
  O  O249  1  0.50697475  0.75263497  0.36929608  1
  O  O250  1  0.50641917  0.74301072  0.87978902  1
  O  O251  1  0.24111192  0.13541728  0.49578060  1
  O  O252  1  0.24779581  0.13254730  0.99556293  1
  O  O253  1  0.24503215  0.63546914  0.49363168  1
  O  O254  1  0.24202010  0.63436279  0.98235090  1
  O  O255  1  0.74479035  0.12498564  0.48416315  1
  O  O256  1  0.73638537  0.13957525  1.00651038  1
  O  O257  1  0.73856627  0.63541019  0.49765250  1
  O  O258  1  0.75318423  0.62287410  0.98575236  1
  O  O259  1  0.25661243  0.36938987  0.00552403  1
  O  O260  1  0.24458181  0.36237107  0.50914848  1
  O  O261  1  0.24501421  0.85726837  -0.00046931  1
  O  O262  1  0.26221938  0.86537932  0.49706134  1
  O  O263  1  0.75275787  0.36335247  0.00539987  1
  O  O264  1  0.76520139  0.37221667  0.50274538  1
  O  O265  1  0.75691592  0.87129103  0.00952507  1
  O  O266  1  0.74746380  0.86138883  0.50249502  1
  O  O267  1  0.13964299  0.49143134  0.26031607  1
  O  O268  1  0.12045789  0.49151133  0.73505093  1
  O  O269  1  0.13066434  0.99755771  0.24476462  1
  O  O270  1  0.13055849  0.99498358  0.74645866  1
  O  O271  1  0.62601867  0.49280989  0.24181924  1
  O  O272  1  0.62360650  0.50189643  0.73263685  1
  O  O273  1  0.63412814  0.98647315  0.25455825  1
  O  O274  1  0.62425531  0.98790981  0.75851680  1
  O  O275  1  0.37031255  0.00825379  0.25628452  1
  O  O276  1  0.36991695  0.00331293  0.75935050  1
  O  O277  1  0.35973053  0.49652492  0.26064334  1
  O  O278  1  0.36144010  0.48719971  0.73220208  1
  O  O279  1  0.86995200  0.00619174  0.25405838  1
  O  O280  1  0.87705332  0.00785924  0.74855812  1
  O  O281  1  0.87399435  0.49612637  0.26017724  1
  O  O282  1  0.87986153  0.51081816  0.75489687  1
  O  O283  1  0.13352849  0.36489136  0.36562133  1
  O  O284  1  0.11949161  0.36689182  0.86554380  1
  O  O285  1  0.12816106  0.86947370  0.37061995  1
  O  O286  1  0.12005289  0.86646975  0.86390199  1
  O  O287  1  0.62046635  0.36856970  0.36893951  1
  O  O288  1  0.61331360  0.35903708  0.88173816  1
  O  O289  1  0.62489025  0.86542863  0.36948277  1
  O  O290  1  0.62475353  0.86156601  0.86977166  1
  O  O291  1  0.37018430  0.14078394  0.13189226  1
  O  O292  1  0.38264405  0.12843052  0.62868137  1
  O  O293  1  0.38728031  0.63906671  0.13184098  1
  O  O294  1  0.37270483  0.64101347  0.62527790  1
  O  O295  1  0.87216679  0.13150412  0.13525878  1
  O  O296  1  0.87670538  0.13412615  0.63426066  1
  O  O297  1  0.87589899  0.63690273  0.12238646  1
  O  O298  1  0.87839800  0.62896796  0.63209550  1
  O  O299  1  0.25394608  0.25602241  0.11370395  1
  O  O300  1  0.25865804  0.25601342  0.61997839  1
  O  O301  1  0.25991707  0.75147186  0.11726284  1
  O  O302  1  0.25382438  0.74757411  0.61681784  1
  O  O303  1  0.75888267  0.25578791  0.12063911  1
  O  O304  1  0.76463383  0.24919729  0.61875393  1
  O  O305  1  0.75656610  0.75484436  0.12349389  1
  O  O306  1  0.75923391  0.74937541  0.61912973  1
  O  O307  1  0.24585098  0.24700427  0.38313910  1
  O  O308  1  0.24051180  0.24450443  0.88875261  1
  O  O309  1  0.24393301  0.74594747  0.38220948  1
  O  O310  1  0.24359640  0.74338016  0.87992648  1
  O  O311  1  0.74433029  0.24065939  0.37370805  1
  O  O312  1  0.74196517  0.24817251  0.88331626  1
  O  O313  1  0.74269353  0.74914669  0.38304004  1
  O  O314  1  0.75439678  0.73201134  0.87915931  1
  O  O315  1  0.00054101  0.11219099  0.00119258  1
  O  O316  1  0.01662405  0.11471510  0.49311968  1
  O  O317  1  -0.00418652  0.60733473  -0.00381758  1
  O  O318  1  0.00901810  0.61742103  0.50728990  1
  O  O319  1  0.50755380  0.12737750  -0.00042561  1
  O  O320  1  0.50859500  0.13056534  0.50948812  1
  O  O321  1  0.49547664  0.61038813  0.00965501  1
  O  O322  1  0.51395725  0.62556709  0.50276196  1
  O  O323  1  0.50409064  0.37757470  0.48356100  1
  O  O324  1  0.49359880  0.37929341  0.99261829  1
  O  O325  1  0.48596250  0.87241210  0.49920582  1
  O  O326  1  0.50621835  0.89125261  1.00574813  1
  O  O327  1  0.98937120  0.38334775  0.50241137  1
  O  O328  1  0.99579545  0.38299307  0.99319172  1
  O  O329  1  1.00757720  0.89127112  0.49730056  1
  O  O330  1  0.99497023  0.87679242  0.99495707  1
  O  O331  1  0.49154274  0.49418248  0.37388376  1
  O  O332  1  0.51226792  0.48826354  0.88521330  1
  O  O333  1  0.48652915  1.00078323  0.37179806  1
  O  O334  1  0.48580784  1.00672417  0.88364619  1
  O  O335  1  0.99783178  0.50373230  0.38749317  1
  O  O336  1  0.99709510  0.48814518  0.88248070  1
  O  O337  1  0.99291165  0.99962073  0.38145021  1
  O  O338  1  0.99765502  0.98927085  0.88430621  1
  O  O339  1  0.00956816  -0.00091626  0.11944360  1
  O  O340  1  0.01524902  -0.00115419  0.61807923  1
  O  O341  1  -0.00589900  0.50134508  0.10848942  1
  O  O342  1  0.00673812  0.50335174  0.61573248  1
  O  O343  1  0.48935005  0.00461082  0.11167521  1
  O  O344  1  0.50385141  0.01177314  0.63216191  1
  O  O345  1  0.50363783  0.50624214  0.12271155  1
  O  O346  1  0.51463378  0.50104075  0.61641293  1
  O  O347  1  0.24287556  0.38151283  0.24156136  1
  O  O348  1  0.23521579  0.37273439  0.73970230  1
  O  O349  1  0.24058256  0.88486258  0.25005743  1
  O  O350  1  0.24242105  0.88824964  0.75762597  1
  O  O351  1  0.73788275  0.37763603  0.24296916  1
  O  O352  1  0.75713579  0.38207621  0.74734014  1
  O  O353  1  0.74460977  0.88076983  0.24379518  1
  O  O354  1  0.73438701  0.87013747  0.75140470  1
  O  O355  1  0.25756304  0.12074959  0.25573985  1
  O  O356  1  0.25494707  0.11452574  0.75602160  1
  O  O357  1  0.24721299  0.61829737  0.26237523  1
  O  O358  1  0.25425008  0.62393235  0.76824362  1
  O  O359  1  0.75469529  0.11736253  0.25501005  1
  O  O360  1  0.76798401  0.12850897  0.75261732  1
  O  O361  1  0.75672990  0.62133159  0.25572224  1
  O  O362  1  0.75670325  0.61974024  0.75975075  1
  O  O363  1  0.37054981  0.12211458  0.36924639  1
  O  O364  1  0.36809038  0.12220542  0.86816175  1
  O  O365  1  0.36531704  0.62301479  0.37980367  1
  O  O366  1  0.35821401  0.61795973  0.87723175  1
  O  O367  1  0.86827309  0.12012859  0.36437307  1
  O  O368  1  0.87082527  0.12021828  0.86263687  1
  O  O369  1  0.87566950  0.60857203  0.37892315  1
  O  O370  1  0.86776748  0.61732645  0.86723003  1
  O  O371  1  0.13745965  0.36808841  0.13179097  1
  O  O372  1  0.13100634  0.37829377  0.62939187  1
  O  O373  1  0.12859239  0.88537066  0.13372770  1
  O  O374  1  0.12334692  0.88170383  0.63938993  1
  O  O375  1  0.62718611  0.38033173  0.13301376  1
  O  O376  1  0.62840944  0.38615962  0.61439273  1
  O  O377  1  0.63769476  0.86652180  0.13348518  1
  O  O378  1  0.62563215  0.87626356  0.64110963  1
  O  O379  1  0.12597888  0.25646261  0.25805394  1
  O  O380  1  0.12839075  0.25411085  0.76200899  1
  O  O381  1  0.12810753  0.76143924  0.26192007  1
  O  O382  1  0.12244979  0.75587014  0.75485159  1
  O  O383  1  0.62899989  0.25767903  0.26067079  1
  O  O384  1  0.61813925  0.24202638  0.75660952  1
  O  O385  1  0.62002446  0.75905769  0.25868485  1
  O  O386  1  0.62608424  0.75513251  0.76764297  1
  O  O387  1  0.36798370  0.24490914  0.23579367  1
  O  O388  1  0.38529697  0.24113242  0.73266343  1
  O  O389  1  0.38724887  0.75629263  0.24912152  1
  O  O390  1  0.36725923  0.75475054  0.73684100  1
  O  O391  1  0.87553238  0.24455658  0.24309460  1
  O  O392  1  0.88044093  0.24312011  0.73877250  1
  O  O393  1  0.87977820  0.75012196  0.24264222  1
  O  O394  1  0.88022454  0.73708899  0.74531852  1
  O  O395  1  0.37595235  0.50423040  0.48526386  1
  O  O396  1  0.38653441  0.48511080  1.00682156  1
  O  O397  1  0.36713520  0.99286795  0.49361416  1
  O  O398  1  0.38490792  1.00549618  0.98988007  1
  O  O399  1  0.88245203  0.49233158  0.49728136  1
  O  O400  1  0.88208169  0.49062523  0.99210746  1
  O  O401  1  0.88811176  1.01183086  0.48928847  1
  O  O402  1  0.88998857  0.98218411  1.01073989  1
  O  O403  1  0.11628587  -0.00348141  0.00679802  1
  O  O404  1  0.12622287  0.00742745  0.50841665  1
  O  O405  1  0.11332203  0.49562129  0.00056382  1
  O  O406  1  0.11798149  0.50174991  0.50663225  1
  O  O407  1  0.60780303  0.01528715  -0.00329821  1
  O  O408  1  0.62201650  0.01349409  0.48865739  1
  O  O409  1  0.61407245  0.48992781  0.01316502  1
  O  O410  1  0.62626626  0.50973757  0.50647275  1
  O  O411  1  0.36447065  0.36645938  0.12198991  1
  O  O412  1  0.36725617  0.36535227  0.62181867  1
  O  O413  1  0.37452169  0.86198431  0.13122072  1
  O  O414  1  0.37671152  0.86490695  0.62098718  1
  O  O415  1  0.86870748  0.36742057  0.11928227  1
  O  O416  1  0.87747870  0.36183741  0.61852010  1
  O  O417  1  0.86705222  0.86373041  0.12153655  1
  O  O418  1  0.87784802  0.85901973  0.63250315  1
  O  O419  1  0.13387265  0.13264576  0.38052511  1
  O  O420  1  0.13045406  0.13077259  0.87614432  1
  O  O421  1  0.13506023  0.63407611  0.38271186  1
  O  O422  1  0.13368236  0.63140498  0.86589763  1
  O  O423  1  0.63097923  0.13091635  0.37416128  1
  O  O424  1  0.62546915  0.13604395  0.88519446  1
  O  O425  1  0.62519348  0.63729153  0.38135122  1
  O  O426  1  0.63531499  0.63288967  0.86987632  1
