# generated using pymatgen
data_V85Zn86O256
_symmetry_space_group_name_H-M   'P 1'
_cell_length_a   16.94518339
_cell_length_b   16.93443766
_cell_length_c   16.94241436
_cell_angle_alpha   89.96201156
_cell_angle_beta   89.90429314
_cell_angle_gamma   90.06028723
_symmetry_Int_Tables_number   1
_chemical_formula_structural   V85Zn86O256
_chemical_formula_sum   'V85 Zn86 O256'
_cell_volume   4861.73642023
_cell_formula_units_Z   1
loop_
 _symmetry_equiv_pos_site_id
 _symmetry_equiv_pos_as_xyz
  1  'x, y, z'
loop_
 _atom_site_type_symbol
 _atom_site_label
 _atom_site_symmetry_multiplicity
 _atom_site_fract_x
 _atom_site_fract_y
 _atom_site_fract_z
 _atom_site_occupancy
  V  V0  1  0.36938147  0.75876268  0.12620070  1
  V  V1  1  -0.00191709  0.49753208  0.49874472  1
  V  V2  1  0.37529990  -0.00069808  0.87408191  1
  V  V3  1  -0.00158465  0.37221653  0.37309702  1
  V  V4  1  0.37512795  0.12764281  0.74643389  1
  V  V5  1  0.12643100  -0.00619428  0.62989897  1
  V  V6  1  0.87583604  0.75018897  0.62927157  1
  V  V7  1  0.50184518  0.37671408  0.37537496  1
  V  V8  1  0.12441920  0.24779700  0.87357717  1
  V  V9  1  0.63373827  0.50670387  0.12577480  1
  V  V10  1  0.37681042  0.49767496  0.37225969  1
  V  V11  1  0.24444088  0.61733942  0.87478155  1
  V  V12  1  -0.00063884  0.62191498  0.62907526  1
  V  V13  1  0.49977992  0.12964270  0.62286892  1
  V  V14  1  0.75841025  0.74591243  0.00081843  1
  V  V15  1  0.63516160  0.38212798  0.25096767  1
  V  V16  1  0.37338771  0.62712435  0.24744034  1
  V  V17  1  0.74847148  0.87377841  0.12169203  1
  V  V18  1  0.25066184  0.36829578  0.62715657  1
  V  V19  1  0.94906734  0.69946952  0.18797575  1
  V  V20  1  0.12451560  0.49752783  0.62586802  1
  V  V21  1  0.00451981  0.75312706  0.75669760  1
  V  V22  1  -0.00054123  0.24051212  0.24186638  1
  V  V23  1  0.50221237  0.62733559  0.12098529  1
  V  V24  1  0.36373062  0.00497991  0.38165482  1
  V  V25  1  -0.00495244  0.25288968  0.74949625  1
  V  V26  1  0.49814254  0.87068263  0.87770676  1
  V  V27  1  0.12408147  0.76109992  0.87493261  1
  V  V28  1  0.50251181  0.50277135  0.00187447  1
  V  V29  1  0.87665541  0.11584513  0.23865038  1
  V  V30  1  0.25484568  0.24609910  0.49663471  1
  V  V31  1  0.12134852  0.50825331  0.11491242  1
  V  V32  1  0.49912331  0.00030647  0.00095334  1
  V  V33  1  0.62311294  0.73835884  0.88449160  1
  V  V34  1  0.24911759  0.24956467  -0.00210354  1
  V  V35  1  0.86956879  0.24709660  0.62772764  1
  V  V36  1  0.09749667  -0.00428980  0.11998815  1
  V  V37  1  0.00037066  -0.00008636  0.50316198  1
  V  V38  1  0.50131943  0.25212602  0.25003186  1
  V  V39  1  0.12353123  0.37370757  0.24660284  1
  V  V40  1  0.24025929  0.74949063  0.00693404  1
  V  V41  1  0.63101406  0.51690094  0.61976230  1
  V  V42  1  0.86933435  0.50573179  0.36345796  1
  V  V43  1  0.49453776  0.25539804  0.74703098  1
  V  V44  1  0.12320193  0.62244065  0.49997295  1
  V  V45  1  0.49987548  0.12630018  0.12790100  1
  V  V46  1  0.12617539  0.38244605  0.75310173  1
  V  V47  1  0.87460313  -0.00374074  0.37582832  1
  V  V48  1  0.24740506  0.62483254  0.37212249  1
  V  V49  1  0.12752382  0.12466411  0.50061309  1
  V  V50  1  0.49917713  0.37751355  0.87368255  1
  V  V51  1  0.62711036  0.25009765  0.37417033  1
  V  V52  1  0.74697665  0.00192640  0.75274481  1
  V  V53  1  0.25116850  0.75056458  0.50211736  1
  V  V54  1  0.37251190  0.25177933  0.12550825  1
  V  V55  1  0.37892510  0.37171269  0.50850184  1
  V  V56  1  0.62592463  0.37343705  0.73655359  1
  V  V57  1  0.75275672  0.49483220  0.75404170  1
  V  V58  1  0.62079997  -0.00372883  0.62081417  1
  V  V59  1  0.62668420  0.75085492  0.38147534  1
  V  V60  1  0.88121389  0.89415387  -0.01767809  1
  V  V61  1  0.50633150  0.51360750  0.50130973  1
  V  V62  1  0.62659318  0.12894551  0.00133660  1
  V  V63  1  -0.01486339  0.50951938  0.00046825  1
  V  V64  1  0.24988327  -0.00060347  0.23243887  1
  V  V65  1  0.24700894  0.49995495  0.24742058  1
  V  V66  1  0.75618381  0.37449868  0.11738484  1
  V  V67  1  0.62186058  0.87086474  0.75066727  1
  V  V68  1  0.12212703  0.75111961  0.37184141  1
  V  V69  1  -0.01548166  0.37877982  0.88370643  1
  V  V70  1  0.75089033  0.12175417  0.37389034  1
  V  V71  1  -0.00199312  0.12632285  0.62885077  1
  V  V72  1  0.12793439  0.23945036  0.37208334  1
  V  V73  1  0.50748414  0.75970561  0.24987174  1
  V  V74  1  0.74812076  0.73657891  0.50099837  1
  V  V75  1  0.74170576  -0.01018936  0.25089531  1
  V  V76  1  0.87184848  0.37459756  0.50318301  1
  V  V77  1  0.25620579  0.87202383  0.63223329  1
  V  V78  1  0.00251567  0.87319530  0.37155862  1
  V  V79  1  0.49318369  0.73576090  0.74428467  1
  V  V80  1  0.74930807  0.12516013  0.87271198  1
  V  V81  1  0.24568273  -0.00416163  0.75478144  1
  V  V82  1  0.87448680  0.87264895  0.50195572  1
  V  V83  1  0.87457940  0.62056118  0.76351455  1
  V  V84  1  0.74852337  0.25079595  0.50182983  1
  Zn  Zn85  1  0.62060516  -0.00274360  0.13019021  1
  Zn  Zn86  1  0.29168907  0.53549474  0.71600404  1
  Zn  Zn87  1  0.75160629  0.61428299  0.88788738  1
  Zn  Zn88  1  0.62383228  0.12156181  0.49726954  1
  Zn  Zn89  1  0.49898365  -0.00360396  0.49652470  1
  Zn  Zn90  1  0.36493758  0.12933456  0.25765338  1
  Zn  Zn91  1  0.50106335  0.87957406  0.37586659  1
  Zn  Zn92  1  0.11127191  0.12484785  0.01280282  1
  Zn  Zn93  1  0.87976429  0.24979813  0.12042826  1
  Zn  Zn94  1  0.62296032  0.25271951  0.87485654  1
  Zn  Zn95  1  0.13067206  0.86944662  0.23797116  1
  Zn  Zn96  1  0.37377114  0.72409425  0.62811209  1
  Zn  Zn97  1  0.91084263  0.06703686  0.80830654  1
  Zn  Zn98  1  0.74875218  0.87315215  0.62707388  1
  Zn  Zn99  1  0.74437470  0.61893353  0.35895176  1
  Zn  Zn100  1  0.36976265  0.87798540  0.00576745  1
  Zn  Zn101  1  0.37881498  0.87158705  0.50155225  1
  Zn  Zn102  1  0.24998126  0.37532861  0.12415856  1
  Zn  Zn103  1  0.25399935  0.12667568  0.87573211  1
  Zn  Zn104  1  0.76189487  0.25312926  -0.00630326  1
  Zn  Zn105  1  0.37479253  0.37825530  0.00038280  1
  Zn  Zn106  1  0.37839669  0.50983326  0.87084099  1
  Zn  Zn107  1  0.18526980  0.17759622  0.18459867  1
  Zn  Zn108  1  0.18563754  0.18742508  0.68966613  1
  Zn  Zn109  1  0.17803649  0.68827976  0.18485608  1
  Zn  Zn110  1  0.18510331  0.68831900  0.69088200  1
  Zn  Zn111  1  0.68974827  0.18748336  0.18789198  1
  Zn  Zn112  1  0.68310813  0.18709289  0.68632373  1
  Zn  Zn113  1  0.68890880  0.68705651  0.18527175  1
  Zn  Zn114  1  0.69134495  0.68815912  0.69496597  1
  Zn  Zn115  1  0.31135445  0.31301456  0.31343250  1
  Zn  Zn116  1  0.31644809  0.32103467  0.81085358  1
  Zn  Zn117  1  0.31248119  0.81915676  0.31342738  1
  Zn  Zn118  1  0.31127250  0.80843672  0.81681338  1
  Zn  Zn119  1  0.81498814  0.31095176  0.31032546  1
  Zn  Zn120  1  0.80743841  0.31062604  0.81301645  1
  Zn  Zn121  1  0.80149647  0.77482298  0.28651406  1
  Zn  Zn122  1  0.80977163  0.81047575  0.81527765  1
  Zn  Zn123  1  0.18703614  0.43285518  0.43476919  1
  Zn  Zn124  1  0.18620553  0.43329350  0.93911539  1
  Zn  Zn125  1  0.19115615  0.93620432  0.44087907  1
  Zn  Zn126  1  0.18669870  0.93503038  0.94733692  1
  Zn  Zn127  1  0.69085150  0.43853174  0.43962128  1
  Zn  Zn128  1  0.68230753  0.43796733  0.93776679  1
  Zn  Zn129  1  0.68646488  0.92774989  0.43747584  1
  Zn  Zn130  1  0.68607637  0.93759227  0.93868645  1
  Zn  Zn131  1  0.31302954  0.06969905  0.05923439  1
  Zn  Zn132  1  0.31298367  0.06362954  0.56522359  1
  Zn  Zn133  1  0.31145211  0.56680728  0.05906796  1
  Zn  Zn134  1  0.31206686  0.55720801  0.55036758  1
  Zn  Zn135  1  0.81142057  0.05607206  0.05987559  1
  Zn  Zn136  1  0.80962680  0.06291936  0.56596029  1
  Zn  Zn137  1  0.81885442  0.57133488  0.07722885  1
  Zn  Zn138  1  0.81300107  0.56055546  0.56722487  1
  Zn  Zn139  1  0.44061599  0.43762517  0.18704848  1
  Zn  Zn140  1  0.44709789  0.54838634  0.68904460  1
  Zn  Zn141  1  0.43245609  0.94168559  0.19226868  1
  Zn  Zn142  1  0.43702038  0.93539171  0.68857280  1
  Zn  Zn143  1  0.94078341  0.43895444  0.18505464  1
  Zn  Zn144  1  0.93444945  0.43453364  0.68849008  1
  Zn  Zn145  1  0.92582462  0.90478983  0.19232871  1
  Zn  Zn146  1  0.94844636  0.94328240  0.70574428  1
  Zn  Zn147  1  0.06515739  0.05675364  0.30751606  1
  Zn  Zn148  1  0.06207202  0.05905387  0.85286334  1
  Zn  Zn149  1  0.05599595  0.56314071  0.30842366  1
  Zn  Zn150  1  0.06522574  0.56548854  0.82235028  1
  Zn  Zn151  1  0.55924260  0.06179161  0.31512109  1
  Zn  Zn152  1  0.56430302  0.06265280  0.81282449  1
  Zn  Zn153  1  0.56328101  0.56785063  0.30977223  1
  Zn  Zn154  1  0.57085679  0.55755857  0.81574965  1
  Zn  Zn155  1  0.43809825  0.18494316  0.43734972  1
  Zn  Zn156  1  0.43784473  0.18960239  0.93649502  1
  Zn  Zn157  1  0.43450883  0.68948133  0.43358146  1
  Zn  Zn158  1  0.42992981  0.68655074  0.93938205  1
  Zn  Zn159  1  0.93800141  0.18430584  0.43456981  1
  Zn  Zn160  1  0.93870060  0.18389184  0.94855750  1
  Zn  Zn161  1  0.93758014  0.68620514  0.43670587  1
  Zn  Zn162  1  0.93955367  0.69183377  0.94404840  1
  Zn  Zn163  1  0.06144329  0.31523506  0.06005651  1
  Zn  Zn164  1  0.06266249  0.31156759  0.56138357  1
  Zn  Zn165  1  0.05754649  0.81918093  0.05873571  1
  Zn  Zn166  1  0.06349976  0.81210505  0.56559976  1
  Zn  Zn167  1  0.56578726  0.31559160  0.06324448  1
  Zn  Zn168  1  0.56138621  0.31349061  0.56250302  1
  Zn  Zn169  1  0.56488464  0.81388475  0.06297654  1
  Zn  Zn170  1  0.55968198  0.80860067  0.56187932  1
  O  O171  1  0.11849598  0.10557467  0.12630892  1
  O  O172  1  0.11876167  0.11624520  0.62253261  1
  O  O173  1  0.12368450  0.60605975  0.12870937  1
  O  O174  1  0.12091497  0.61664880  0.62065690  1
  O  O175  1  0.61736700  0.12304705  0.12017484  1
  O  O176  1  0.61450220  0.11601699  0.62288037  1
  O  O177  1  0.61634682  0.61696711  0.13124362  1
  O  O178  1  0.63030079  0.61530571  0.62715199  1
  O  O179  1  0.38143932  0.38079358  0.37981502  1
  O  O180  1  0.38969410  0.37607998  0.88020770  1
  O  O181  1  0.37609520  0.88881992  0.37970459  1
  O  O182  1  0.38717195  0.87789878  0.87469323  1
  O  O183  1  0.87867827  0.38032725  0.38333148  1
  O  O184  1  0.88678734  0.37436065  0.87107766  1
  O  O185  1  0.88603444  0.87971066  0.38808798  1
  O  O186  1  0.86733975  0.87889919  0.88250471  1
  O  O187  1  0.26043039  0.00135844  0.37557173  1
  O  O188  1  0.25582744  0.00045276  0.87047184  1
  O  O189  1  0.25381966  0.50404710  0.36795755  1
  O  O190  1  0.24944650  0.51288270  0.88602034  1
  O  O191  1  0.75501386  -0.00111044  0.37049107  1
  O  O192  1  0.73844827  0.00941890  0.86394198  1
  O  O193  1  0.76341719  0.50160954  0.37614564  1
  O  O194  1  0.74078281  0.50090254  0.86108775  1
  O  O195  1  0.23938236  0.49792686  0.12828155  1
  O  O196  1  0.24087611  0.48592517  0.61995491  1
  O  O197  1  0.25948410  0.99787448  0.13255036  1
  O  O198  1  0.24621599  0.99168758  0.63170023  1
  O  O199  1  0.74126073  0.49358825  0.12195878  1
  O  O200  1  0.73846733  0.50055089  0.63267186  1
  O  O201  1  0.74491527  0.99293074  0.13381884  1
  O  O202  1  0.73305028  0.99906707  0.62856540  1
  O  O203  1  0.00601381  0.36600325  0.25435068  1
  O  O204  1  0.00521065  0.37188776  0.75824419  1
  O  O205  1  0.01229170  0.88734318  0.27050508  1
  O  O206  1  0.00250532  0.84962315  0.73740574  1
  O  O207  1  0.50988286  0.37042687  0.25548993  1
  O  O208  1  0.50836202  0.36551466  0.75675006  1
  O  O209  1  0.49502841  0.86180436  0.24963989  1
  O  O210  1  0.50721995  0.86555867  0.75676159  1
  O  O211  1  0.50049114  0.13184716  0.23869811  1
  O  O212  1  0.49552012  0.13234969  0.74451571  1
  O  O213  1  0.49198091  0.63409459  0.23941980  1
  O  O214  1  0.50444156  0.63270018  0.75378586  1
  O  O215  1  0.98897800  0.12946233  0.25812813  1
  O  O216  1  0.99428755  0.14692862  0.74584139  1
  O  O217  1  0.99230393  0.64057687  0.25936608  1
  O  O218  1  0.99330860  0.62626340  0.74714317  1
  O  O219  1  0.36762106  0.25051198  0.00821963  1
  O  O220  1  0.36588434  0.25821722  0.49111533  1
  O  O221  1  0.36531414  0.75158921  0.01142945  1
  O  O222  1  0.36221972  0.74403975  0.50641975  1
  O  O223  1  0.87471301  0.24800875  0.00823470  1
  O  O224  1  0.86930466  0.25457206  0.50413451  1
  O  O225  1  0.85979406  0.75930880  -0.00763527  1
  O  O226  1  0.87160252  0.75472181  0.50885849  1
  O  O227  1  0.13008168  0.24541447  0.49072749  1
  O  O228  1  0.12945962  0.24784749  0.99088113  1
  O  O229  1  0.13551821  0.74312460  0.49792620  1
  O  O230  1  0.13383714  0.75364354  0.99218921  1
  O  O231  1  0.63328101  0.24972876  0.49394967  1
  O  O232  1  0.62401855  0.23760273  1.00077504  1
  O  O233  1  0.63574764  0.75063196  0.49588944  1
  O  O234  1  0.63337429  0.75564663  0.99000916  1
  O  O235  1  0.49409860  0.24565604  0.12920721  1
  O  O236  1  0.50328889  0.24001079  0.63226686  1
  O  O237  1  0.49479098  0.74614434  0.13302051  1
  O  O238  1  0.49730965  0.74675735  0.64088179  1
  O  O239  1  1.00236051  0.25259013  0.13841852  1
  O  O240  1  0.99318738  0.24865061  0.63084180  1
  O  O241  1  1.02541350  0.74019723  0.13375493  1
  O  O242  1  0.99620585  0.73797557  0.62955312  1
  O  O243  1  0.00671807  0.25388836  0.36600825  1
  O  O244  1  0.00607451  0.26463821  0.86696124  1
  O  O245  1  0.01167721  0.75983559  0.38868038  1
  O  O246  1  0.01511818  0.74351007  0.87154481  1
  O  O247  1  0.50707473  0.25559884  0.37062375  1
  O  O248  1  0.50203001  0.25784953  0.86734444  1
  O  O249  1  0.50245001  0.74970279  0.36242438  1
  O  O250  1  0.50470542  0.75310210  0.87114234  1
  O  O251  1  0.24472704  0.13886127  0.50900050  1
  O  O252  1  0.24437395  0.13791928  0.99594557  1
  O  O253  1  0.24191155  0.62876299  0.49163431  1
  O  O254  1  0.25022477  0.64062792  0.99311824  1
  O  O255  1  0.74965202  0.13436943  0.49220019  1
  O  O256  1  0.74001073  0.12417655  0.99309759  1
  O  O257  1  0.75822811  0.63548941  0.49644730  1
  O  O258  1  0.75575723  0.64058137  1.00413513  1
  O  O259  1  0.25230790  0.36282315  0.00430190  1
  O  O260  1  0.25510594  0.36534365  0.50307547  1
  O  O261  1  0.25561761  0.85519477  -0.00600140  1
  O  O262  1  0.25271123  0.86406880  0.51052745  1
  O  O263  1  0.74256630  0.37404649  0.01386269  1
  O  O264  1  0.75834457  0.36023352  0.49454484  1
  O  O265  1  0.75400097  0.86940288  0.00183122  1
  O  O266  1  0.76449003  0.86942261  0.50613135  1
  O  O267  1  0.12431473  0.49067400  0.24363870  1
  O  O268  1  0.11934312  0.48899993  0.74657795  1
  O  O269  1  0.13479010  0.99773569  0.23677536  1
  O  O270  1  0.14300804  1.00739102  0.74259418  1
  O  O271  1  0.62006332  0.49254595  0.24036764  1
  O  O272  1  0.62979360  0.49419145  0.73728947  1
  O  O273  1  0.63883052  1.00224439  0.25337944  1
  O  O274  1  0.62626985  0.98933152  0.74314221  1
  O  O275  1  0.36281402  0.00316719  0.25940043  1
  O  O276  1  0.36908278  0.00651139  0.75573003  1
  O  O277  1  0.36948892  0.50526312  0.25259288  1
  O  O278  1  0.38188108  0.48678484  0.75861647  1
  O  O279  1  0.86555322  -0.00021854  0.25698151  1
  O  O280  1  0.84848215  -0.00048659  0.73041887  1
  O  O281  1  0.88057082  0.49514392  0.26528619  1
  O  O282  1  0.86406728  0.50713346  0.74187059  1
  O  O283  1  0.11935610  0.36608836  0.36366421  1
  O  O284  1  0.12174521  0.36702344  0.86714938  1
  O  O285  1  0.11785298  0.86575544  0.38617083  1
  O  O286  1  0.13010340  0.86051831  0.87594177  1
  O  O287  1  0.62279671  0.37227942  0.36845207  1
  O  O288  1  0.61307425  0.37600647  0.86566859  1
  O  O289  1  0.61955794  0.85893885  0.37464105  1
  O  O290  1  0.61298141  0.86853406  0.86962241  1
  O  O291  1  0.38258603  0.13719977  0.12791644  1
  O  O292  1  0.38620821  0.11888692  0.63729552  1
  O  O293  1  0.38072634  0.63440511  0.13096728  1
  O  O294  1  0.36221381  0.60927628  0.63641456  1
  O  O295  1  0.86838041  0.12297459  0.13681364  1
  O  O296  1  0.88350274  0.13657069  0.61846744  1
  O  O297  1  0.88845147  0.64322234  0.12859000  1
  O  O298  1  0.88040863  0.63379084  0.63236520  1
  O  O299  1  0.25655917  0.24857320  0.11968542  1
  O  O300  1  0.24159678  0.26152189  0.61479506  1
  O  O301  1  0.25310582  0.74437626  0.11567088  1
  O  O302  1  0.25053856  0.75505825  0.62172883  1
  O  O303  1  0.74809338  0.26552899  0.12459942  1
  O  O304  1  0.75786885  0.24215699  0.61532499  1
  O  O305  1  0.74068954  0.76224623  0.10853022  1
  O  O306  1  0.75891780  0.75024105  0.62120569  1
  O  O307  1  0.23895764  0.25391201  0.38300667  1
  O  O308  1  0.24499480  0.25513337  0.88220818  1
  O  O309  1  0.24570665  0.74609983  0.38512167  1
  O  O310  1  0.24037893  0.74296509  0.88161307  1
  O  O311  1  0.74668373  0.24333807  0.37985564  1
  O  O312  1  0.74031065  0.24310549  0.87613830  1
  O  O313  1  0.74230236  0.75691820  0.38868811  1
  O  O314  1  0.73990808  0.74702864  0.88578549  1
  O  O315  1  0.01971032  0.11132286  -0.05234656  1
  O  O316  1  0.00689386  0.11961103  0.50677047  1
  O  O317  1  0.00040954  0.60798399  -0.00757873  1
  O  O318  1  0.00510634  0.61777112  0.50762500  1
  O  O319  1  0.50306985  0.12247784  0.01095971  1
  O  O320  1  0.50188885  0.12268140  0.51086250  1
  O  O321  1  0.49586141  0.62183335  0.01363754  1
  O  O322  1  0.49372904  0.61230548  0.49527653  1
  O  O323  1  0.49376298  0.38000319  0.49426984  1
  O  O324  1  0.50122741  0.38345416  0.99337805  1
  O  O325  1  0.49530757  0.87615223  0.49813936  1
  O  O326  1  0.49663442  0.88075775  0.99323579  1
  O  O327  1  0.99320509  0.37639599  0.49203447  1
  O  O328  1  1.00035889  0.38049991  0.98761376  1
  O  O329  1  0.99136666  0.88030364  0.50096023  1
  O  O330  1  0.97911045  0.87243165  0.99752080  1
  O  O331  1  0.49886028  0.49498242  0.37948876  1
  O  O332  1  0.50276473  0.49587854  0.88548638  1
  O  O333  1  0.48678209  0.99851995  0.37470882  1
  O  O334  1  0.49519956  0.99137730  0.87861953  1
  O  O335  1  0.99253639  0.49177204  0.38077669  1
  O  O336  1  1.00425285  0.48772210  0.88726875  1
  O  O337  1  0.99720243  0.99455861  0.38610849  1
  O  O338  1  0.99103215  0.99248922  0.80400699  1
  O  O339  1  0.00004036  -0.01071563  0.13339435  1
  O  O340  1  0.00970437  0.00397104  0.62267550  1
  O  O341  1  0.01023068  0.49148352  0.11141051  1
  O  O342  1  0.00436274  0.50224152  0.61889215  1
  O  O343  1  0.49819833  0.00926360  0.12232898  1
  O  O344  1  0.50878731  0.00599795  0.62717268  1
  O  O345  1  0.50697264  0.50881874  0.12172494  1
  O  O346  1  0.51896591  0.50068982  0.61403804  1
  O  O347  1  0.24064632  0.38157464  0.24896659  1
  O  O348  1  0.24076939  0.37039950  0.73948313  1
  O  O349  1  0.24543672  0.89393745  0.25767438  1
  O  O350  1  0.25551904  0.88225892  0.74483650  1
  O  O351  1  0.73894817  0.37147926  0.24415552  1
  O  O352  1  0.73810188  0.38155483  0.75284134  1
  O  O353  1  0.75530473  0.87618813  0.23250670  1
  O  O354  1  0.73480959  0.87716248  0.74997424  1
  O  O355  1  0.24904526  0.10699510  0.24947665  1
  O  O356  1  0.26224638  0.11937779  0.74643885  1
  O  O357  1  0.25238598  0.61962046  0.25387318  1
  O  O358  1  0.24098655  0.62305941  0.76679436  1
  O  O359  1  0.75697018  0.11498967  0.25591705  1
  O  O360  1  0.73490048  0.11515329  0.75938589  1
  O  O361  1  0.76848259  0.66717292  0.25822236  1
  O  O362  1  0.75934336  0.61626625  0.75441294  1
  O  O363  1  0.37791930  0.11085090  0.37366556  1
  O  O364  1  0.37594307  0.11980984  0.86347351  1
  O  O365  1  0.36751079  0.61817227  0.36694713  1
  O  O366  1  0.35472170  0.62688559  0.87840143  1
  O  O367  1  0.86831325  0.11510149  0.36947009  1
  O  O368  1  0.85428651  0.13663274  0.87171576  1
  O  O369  1  0.87665133  0.60693599  0.38214201  1
  O  O370  1  0.87403316  0.62864153  0.86567923  1
  O  O371  1  0.12579367  0.37861336  0.13666359  1
  O  O372  1  0.12956305  0.37909675  0.63073102  1
  O  O373  1  0.12229242  0.88969031  0.12456108  1
  O  O374  1  0.13504681  0.88729672  0.62129903  1
  O  O375  1  0.63258231  0.38408335  0.13312569  1
  O  O376  1  0.62284647  0.38004223  0.63423190  1
  O  O377  1  0.64016397  0.88257661  0.11550088  1
  O  O378  1  0.62332990  0.87935372  0.63402340  1
  O  O379  1  0.12097734  0.25199503  0.25492692  1
  O  O380  1  0.11498419  0.26391141  0.75009636  1
  O  O381  1  0.13588035  0.75452805  0.26803384  1
  O  O382  1  0.11798349  0.74419551  0.76509319  1
  O  O383  1  0.62055641  0.25777690  0.25559891  1
  O  O384  1  0.61432862  0.25748369  0.74843551  1
  O  O385  1  0.60922811  0.75054398  0.25170122  1
  O  O386  1  0.61595412  0.75433271  0.75854197  1
  O  O387  1  0.38059421  0.24869307  0.24455111  1
  O  O388  1  0.38608180  0.24357757  0.75284011  1
  O  O389  1  0.37878652  0.74547928  0.24563271  1
  O  O390  1  0.39107486  0.75059622  0.75113128  1
  O  O391  1  0.88330438  0.23773712  0.24780847  1
  O  O392  1  0.87937970  0.26230053  0.73532886  1
  O  O393  1  0.90094729  0.78483184  0.23060540  1
  O  O394  1  0.87913368  0.74091260  0.74600099  1
  O  O395  1  0.38464131  0.48991436  0.49060147  1
  O  O396  1  0.38876417  0.49887186  1.00209100  1
  O  O397  1  0.37377478  0.99980204  0.49147961  1
  O  O398  1  0.38021306  1.00027525  0.99227907  1
  O  O399  1  0.87902261  0.48985291  0.49767863  1
  O  O400  1  0.88593824  0.50306605  1.00893154  1
  O  O401  1  0.87864868  0.99183553  0.49977221  1
  O  O402  1  0.87241126  0.99543057  0.98740062  1
  O  O403  1  0.12486900  0.00102407  0.01563506  1
  O  O404  1  0.12352519  0.00675861  0.50943177  1
  O  O405  1  0.12013313  0.49301482  0.01285785  1
  O  O406  1  0.11773313  0.50145672  0.50284939  1
  O  O407  1  0.61462431  0.01230943  0.00028621  1
  O  O408  1  0.62339697  -0.00106357  0.50764926  1
  O  O409  1  0.61277064  0.49873787  0.01218218  1
  O  O410  1  0.62240270  0.49762313  0.51105833  1
  O  O411  1  0.37511815  0.36272729  0.12545009  1
  O  O412  1  0.36430188  0.37632032  0.60933060  1
  O  O413  1  0.37843865  0.86177494  0.12681472  1
  O  O414  1  0.36351848  0.87304193  0.62425758  1
  O  O415  1  0.85750306  0.37640826  0.13488029  1
  O  O416  1  0.88015641  0.36530838  0.60973525  1
  O  O417  1  0.85406587  0.88564424  0.10458174  1
  O  O418  1  0.87817464  0.86037450  0.62287313  1
  O  O419  1  0.11977719  0.13461223  0.37902663  1
  O  O420  1  0.13884044  0.14612467  0.85111117  1
  O  O421  1  0.12741013  0.63080584  0.38054334  1
  O  O422  1  0.13744098  0.63414523  0.88008461  1
  O  O423  1  0.63233052  0.13167860  0.37555904  1
  O  O424  1  0.62829426  0.12802843  0.88422212  1
  O  O425  1  0.62821603  0.64157655  0.36711271  1
  O  O426  1  0.62893658  0.63536391  0.87540633  1
