# generated using pymatgen
data_V85Zn86O256
_symmetry_space_group_name_H-M   'P 1'
_cell_length_a   16.95821812
_cell_length_b   16.97026854
_cell_length_c   16.96717964
_cell_angle_alpha   90.01148672
_cell_angle_beta   90.03517670
_cell_angle_gamma   90.14115465
_symmetry_Int_Tables_number   1
_chemical_formula_structural   V85Zn86O256
_chemical_formula_sum   'V85 Zn86 O256'
_cell_volume   4882.89269937
_cell_formula_units_Z   1
loop_
 _symmetry_equiv_pos_site_id
 _symmetry_equiv_pos_as_xyz
  1  'x, y, z'
loop_
 _atom_site_type_symbol
 _atom_site_label
 _atom_site_symmetry_multiplicity
 _atom_site_fract_x
 _atom_site_fract_y
 _atom_site_fract_z
 _atom_site_occupancy
  V  V0  1  0.74559337  0.50359928  0.24839405  1
  V  V1  1  0.36766296  -0.00561455  0.37265330  1
  V  V2  1  -0.00171573  0.62920463  0.62517774  1
  V  V3  1  0.74703106  0.11892085  0.38428886  1
  V  V4  1  0.87152693  0.24863309  0.62866578  1
  V  V5  1  0.49473104  -0.00204259  -0.00151335  1
  V  V6  1  0.50520650  0.75650594  0.74569202  1
  V  V7  1  0.62552550  0.62315093  -0.00060189  1
  V  V8  1  0.36643606  0.12151838  0.75468120  1
  V  V9  1  0.36832304  0.86698395  -0.00111153  1
  V  V10  1  0.87622153  0.13136326  0.25634656  1
  V  V11  1  0.75473229  0.50272890  0.74948995  1
  V  V12  1  0.87782627  0.75116533  0.12560524  1
  V  V13  1  0.75956266  0.62252342  0.37873693  1
  V  V14  1  0.49760478  0.62626338  0.62606782  1
  V  V15  1  0.13157705  0.88365282  0.25294073  1
  V  V16  1  0.25630294  0.50787295  0.24359206  1
  V  V17  1  0.90406405  0.46284991  0.34843771  1
  V  V18  1  0.37109116  0.74813039  0.12998769  1
  V  V19  1  0.12831468  -0.00209982  0.12531314  1
  V  V20  1  0.37066988  0.75352916  0.61232767  1
  V  V21  1  0.25167012  0.50160773  0.75044657  1
  V  V22  1  0.62261008  -0.01234938  0.62651757  1
  V  V23  1  0.62724306  0.50009006  0.62698259  1
  V  V24  1  0.50335022  0.49966030  0.00724343  1
  V  V25  1  -0.00368938  0.37605553  0.88168097  1
  V  V26  1  0.62495230  0.24403753  0.38286923  1
  V  V27  1  0.25027928  0.37325654  0.62332701  1
  V  V28  1  0.62735168  0.37511891  0.24384157  1
  V  V29  1  0.37144634  0.24758981  0.61987100  1
  V  V30  1  0.50481329  0.87648795  0.87042289  1
  V  V31  1  0.18799090  0.32941177  0.19635706  1
  V  V32  1  0.49949777  0.24967323  0.75005291  1
  V  V33  1  0.13042578  0.75134406  0.37927555  1
  V  V34  1  0.18644594  0.18919549  0.93779052  1
  V  V35  1  0.87703570  0.87414413  -0.00187857  1
  V  V36  1  0.12195173  0.74932775  0.87145955  1
  V  V37  1  0.12717813  0.50070078  0.12524615  1
  V  V38  1  0.87126155  0.37539060  0.50453794  1
  V  V39  1  -0.00969626  0.88392756  0.37803667  1
  V  V40  1  0.00521260  0.00147286  0.00043479  1
  V  V41  1  0.25180693  0.13749288  0.38764389  1
  V  V42  1  0.75680653  0.37930805  0.12026514  1
  V  V43  1  0.14171441  0.87765289  0.75000616  1
  V  V44  1  0.74822700  0.75066435  -0.00379307  1
  V  V45  1  0.49543811  0.86931927  0.37712602  1
  V  V46  1  0.50402811  0.37600264  0.37547182  1
  V  V47  1  0.87416795  0.00021764  0.87575196  1
  V  V48  1  0.61947446  0.87139294  0.25073278  1
  V  V49  1  0.01970733  0.47409211  0.48270016  1
  V  V50  1  0.49790390  0.37608794  0.87779735  1
  V  V51  1  0.12781745  0.63187824  0.00223750  1
  V  V52  1  0.37543343  0.50183399  0.87602269  1
  V  V53  1  0.62460569  -0.00039034  0.12526453  1
  V  V54  1  -0.00983707  0.00234457  0.49921038  1
  V  V55  1  0.62483803  0.24949573  0.87645996  1
  V  V56  1  0.50226233  0.24886394  0.25018657  1
  V  V57  1  0.87403756  0.50065971  0.88481800  1
  V  V58  1  0.75563098  -0.00145821  0.25453852  1
  V  V59  1  0.12984199  0.62881033  0.49843031  1
  V  V60  1  0.62319399  0.12576456  0.00105742  1
  V  V61  1  0.36840293  0.37405996  0.50013002  1
  V  V62  1  0.76280952  0.76059737  0.50218897  1
  V  V63  1  0.25190662  0.63267783  0.87670350  1
  V  V64  1  0.87343319  0.12090684  0.75141856  1
  V  V65  1  0.37571874  0.25743192  0.12472001  1
  V  V66  1  0.36507945  0.12052010  0.24618868  1
  V  V67  1  0.50061891  0.00305304  0.49389975  1
  V  V68  1  0.12394034  0.50232312  0.62513652  1
  V  V69  1  0.75838010  0.25237911  0.00071206  1
  V  V70  1  0.25423083  0.87641082  0.60304026  1
  V  V71  1  0.00248952  0.24766991  0.75684080  1
  V  V72  1  0.25146992  0.62466860  0.37580087  1
  V  V73  1  0.62436989  0.74715887  0.37380185  1
  V  V74  1  0.36170878  0.37410039  0.00249999  1
  V  V75  1  0.74939103  0.87547108  0.12608682  1
  V  V76  1  0.50503024  0.63198333  0.13030534  1
  V  V77  1  -0.00061044  0.12886483  0.12565033  1
  V  V78  1  0.12479046  0.37259778  0.75605889  1
  V  V79  1  -0.00129649  0.87114977  0.86169522  1
  V  V80  1  0.49712347  0.12532086  0.12599440  1
  V  V81  1  0.50160421  0.49993286  0.49944337  1
  V  V82  1  0.50979347  0.12764310  0.61799515  1
  V  V83  1  0.00157151  0.74900616  0.25250943  1
  V  V84  1  0.13095302  0.00427261  0.62459255  1
  Zn  Zn85  1  0.38550437  0.63015362  0.25628547  1
  Zn  Zn86  1  0.87602300  0.62793300  0.25083323  1
  Zn  Zn87  1  0.62876621  0.75461199  0.86668430  1
  Zn  Zn88  1  0.36057977  -0.00906654  0.85889037  1
  Zn  Zn89  1  0.73610487  -0.00525413  0.75649773  1
  Zn  Zn90  1  0.74964013  0.12505003  0.87694080  1
  Zn  Zn91  1  0.89129465  0.76692753  0.63128232  1
  Zn  Zn92  1  0.88214321  0.63028795  0.75320686  1
  Zn  Zn93  1  0.24890532  0.87262897  0.12397349  1
  Zn  Zn94  1  0.62567291  0.37621432  0.75193570  1
  Zn  Zn95  1  0.75623371  0.87378329  0.63578471  1
  Zn  Zn96  1  0.74516713  0.24540317  0.50572066  1
  Zn  Zn97  1  -0.00166531  0.50031203  0.00274356  1
  Zn  Zn98  1  0.00361839  0.12359797  0.62690430  1
  Zn  Zn99  1  0.75195228  0.62764985  0.87301660  1
  Zn  Zn100  1  0.00146288  0.62613368  0.12471703  1
  Zn  Zn101  1  0.74659870  0.37347100  0.62813840  1
  Zn  Zn102  1  0.37382555  0.62787498  0.74861370  1
  Zn  Zn103  1  0.12790736  0.13911600  0.50328159  1
  Zn  Zn104  1  0.37589682  0.50204458  0.37322056  1
  Zn  Zn105  1  0.88028081  0.25257006  0.12346040  1
  Zn  Zn106  1  0.63039438  0.62575113  0.50051462  1
  Zn  Zn107  1  0.21428890  0.15482500  0.13714314  1
  Zn  Zn108  1  0.18843408  0.19008513  0.69005125  1
  Zn  Zn109  1  0.18834650  0.68940851  0.19068846  1
  Zn  Zn110  1  0.18803479  0.69211905  0.68884481  1
  Zn  Zn111  1  0.69011408  0.18803350  0.18802406  1
  Zn  Zn112  1  0.68829897  0.18177711  0.69249472  1
  Zn  Zn113  1  0.68721172  0.68793190  0.18622032  1
  Zn  Zn114  1  0.68962445  0.68638713  0.68499919  1
  Zn  Zn115  1  0.31966896  0.31291768  0.31659906  1
  Zn  Zn116  1  0.31110610  0.30916788  0.81340008  1
  Zn  Zn117  1  0.31205325  0.80972593  0.30945735  1
  Zn  Zn118  1  0.31990003  0.80786202  0.80854380  1
  Zn  Zn119  1  0.80719969  0.30521300  0.31106736  1
  Zn  Zn120  1  0.81224840  0.31598309  0.81327249  1
  Zn  Zn121  1  0.81143267  0.81274364  0.31507734  1
  Zn  Zn122  1  0.81259616  0.81354992  0.80065334  1
  Zn  Zn123  1  0.08242290  0.29400855  0.39245262  1
  Zn  Zn124  1  0.18502601  0.44141256  0.93711608  1
  Zn  Zn125  1  0.18011585  0.94764792  0.43493484  1
  Zn  Zn126  1  0.18692635  0.93511880  0.93374522  1
  Zn  Zn127  1  0.69194679  0.43673261  0.43581721  1
  Zn  Zn128  1  0.68724901  0.43784974  0.93703961  1
  Zn  Zn129  1  0.68277052  0.93791940  0.44039429  1
  Zn  Zn130  1  0.68682503  0.93654994  0.93683974  1
  Zn  Zn131  1  0.28828769  0.04503372  0.01397791  1
  Zn  Zn132  1  0.31909502  0.05862513  0.56179754  1
  Zn  Zn133  1  0.31355511  0.56621769  0.06085263  1
  Zn  Zn134  1  0.31244843  0.56175458  0.56018379  1
  Zn  Zn135  1  0.81366280  0.06439234  0.06298488  1
  Zn  Zn136  1  0.81150375  0.05900619  0.56606503  1
  Zn  Zn137  1  0.81069396  0.56510043  0.06461756  1
  Zn  Zn138  1  0.81857701  0.55760889  0.55484559  1
  Zn  Zn139  1  0.43887243  0.44054468  0.18711678  1
  Zn  Zn140  1  0.43785319  0.43723049  0.68877491  1
  Zn  Zn141  1  0.43690509  0.93561965  0.18813902  1
  Zn  Zn142  1  0.43593333  0.93803539  0.68235903  1
  Zn  Zn143  1  0.93680749  0.43920625  0.17893248  1
  Zn  Zn144  1  0.93854002  0.43959013  0.68751603  1
  Zn  Zn145  1  0.94079887  0.93829744  0.19113414  1
  Zn  Zn146  1  0.93901218  0.93831851  0.68423024  1
  Zn  Zn147  1  0.04581168  0.10731543  0.33533764  1
  Zn  Zn148  1  0.06862310  0.06143465  0.81226761  1
  Zn  Zn149  1  0.07358289  0.47130225  0.31796068  1
  Zn  Zn150  1  0.06225892  0.56143439  0.81183496  1
  Zn  Zn151  1  0.56261079  0.06067315  0.31046882  1
  Zn  Zn152  1  0.55445005  0.06431285  0.81116310  1
  Zn  Zn153  1  0.56786127  0.56283986  0.31345229  1
  Zn  Zn154  1  0.56422073  0.56606747  0.81336109  1
  Zn  Zn155  1  0.43546313  0.18568320  0.43626564  1
  Zn  Zn156  1  0.43131324  0.18886336  0.93889317  1
  Zn  Zn157  1  0.43948197  0.68732331  0.43848736  1
  Zn  Zn158  1  0.44012240  0.69011871  0.93798767  1
  Zn  Zn159  1  0.93636624  0.18835868  0.44225793  1
  Zn  Zn160  1  0.94358592  0.18494918  0.93763775  1
  Zn  Zn161  1  0.94548838  0.68424981  0.43894321  1
  Zn  Zn162  1  0.93999475  0.68633595  0.93636739  1
  Zn  Zn163  1  0.06216533  0.30910525  0.05751224  1
  Zn  Zn164  1  0.06391286  0.30753783  0.57091028  1
  Zn  Zn165  1  0.06353309  0.81373512  0.05843651  1
  Zn  Zn166  1  0.06620402  0.81689236  0.55972931  1
  Zn  Zn167  1  0.56379639  0.31501051  0.06243512  1
  Zn  Zn168  1  0.56121783  0.31554790  0.56319574  1
  Zn  Zn169  1  0.56034604  0.81065085  0.06049361  1
  Zn  Zn170  1  0.56164014  0.81049200  0.55362951  1
  O  O171  1  0.10989545  0.10955685  0.13808143  1
  O  O172  1  0.12680844  0.11813341  0.62552094  1
  O  O173  1  0.12631576  0.62182270  0.11717808  1
  O  O174  1  0.12262079  0.62099977  0.62069013  1
  O  O175  1  0.61816220  0.12090153  0.12105185  1
  O  O176  1  0.61232166  0.12475260  0.62440129  1
  O  O177  1  0.61832711  0.63296582  0.11101854  1
  O  O178  1  0.61719378  0.61382830  0.62202641  1
  O  O179  1  0.38566220  0.37887343  0.38396905  1
  O  O180  1  0.38015715  0.37903935  0.88256585  1
  O  O181  1  0.38483486  0.88115237  0.36262366  1
  O  O182  1  0.38396711  0.87400361  0.88254933  1
  O  O183  1  0.86613884  0.36980638  0.38723249  1
  O  O184  1  0.88468909  0.38742384  0.86815731  1
  O  O185  1  0.89136734  0.87579707  0.36848241  1
  O  O186  1  0.88308520  0.88142030  0.87657516  1
  O  O187  1  0.26578627  0.00209438  0.37877536  1
  O  O188  1  0.26188468  0.01171321  0.90717898  1
  O  O189  1  0.25052806  0.51673634  0.35887043  1
  O  O190  1  0.25457588  0.51065623  0.86921988  1
  O  O191  1  0.73922662  0.00657190  0.36606443  1
  O  O192  1  0.76349191  0.00093209  0.87921288  1
  O  O193  1  0.75821658  0.50720078  0.36770810  1
  O  O194  1  0.75778926  0.50062146  0.86855812  1
  O  O195  1  0.24694131  0.50622631  0.13466369  1
  O  O196  1  0.24504965  0.49466373  0.63173003  1
  O  O197  1  0.23218986  0.99937173  0.11326036  1
  O  O198  1  0.24754403  0.98567432  0.61920819  1
  O  O199  1  0.75356953  0.49240062  0.13395501  1
  O  O200  1  0.74340094  0.50149143  0.63022518  1
  O  O201  1  0.74332580  0.99350750  0.12941917  1
  O  O202  1  0.73000303  1.00099993  0.62182267  1
  O  O203  1  -0.02411885  0.41244781  0.28173785  1
  O  O204  1  0.00669999  0.36974360  0.75628921  1
  O  O205  1  0.01000291  0.86951765  0.25716001  1
  O  O206  1  0.01146521  0.88150971  0.76023382  1
  O  O207  1  0.50923211  0.37239400  0.25473707  1
  O  O208  1  0.49969644  0.36344059  0.75636450  1
  O  O209  1  0.51423685  0.88002729  0.25784187  1
  O  O210  1  0.49314792  0.86858610  0.75689011  1
  O  O211  1  0.49479433  0.13088015  0.24367715  1
  O  O212  1  0.49444052  0.13793866  0.74113270  1
  O  O213  1  0.50481679  0.61645612  0.23404649  1
  O  O214  1  0.49783075  0.62829338  0.73689718  1
  O  O215  1  0.97902612  0.10718731  0.24048334  1
  O  O216  1  0.99430806  0.13266626  0.75178814  1
  O  O217  1  0.99735920  0.64581672  0.24639837  1
  O  O218  1  1.00462436  0.61746773  0.72875333  1
  O  O219  1  0.38003282  0.26094184  0.01168360  1
  O  O220  1  0.38464833  0.25903462  0.51167289  1
  O  O221  1  0.38325267  0.75840592  0.01161819  1
  O  O222  1  0.37933696  0.74960511  0.51306853  1
  O  O223  1  0.86079434  0.24412718  -0.00126084  1
  O  O224  1  0.87266873  0.25396126  0.51297196  1
  O  O225  1  0.86936595  0.75479526  0.00558011  1
  O  O226  1  0.86419697  0.74586923  0.50226889  1
  O  O227  1  0.11875830  0.25214105  0.49359607  1
  O  O228  1  0.12720037  0.25703498  0.98274384  1
  O  O229  1  0.12341335  0.74501373  0.48740036  1
  O  O230  1  0.12547697  0.74449961  0.98654491  1
  O  O231  1  0.62470513  0.25650324  0.48696416  1
  O  O232  1  0.62879968  0.24506625  0.99321214  1
  O  O233  1  0.63315799  0.74696910  0.48702155  1
  O  O234  1  0.63400592  0.74574976  0.99723156  1
  O  O235  1  0.49385826  0.24741913  0.13023553  1
  O  O236  1  0.49583441  0.24589522  0.63151938  1
  O  O237  1  0.49244671  0.74039027  0.12206788  1
  O  O238  1  0.49588607  0.74417796  0.62595624  1
  O  O239  1  0.99955437  0.23441976  0.11891656  1
  O  O240  1  0.98678800  0.24854822  0.64117977  1
  O  O241  1  0.99254531  0.75442523  0.13092965  1
  O  O242  1  1.00493374  0.73382378  0.61428925  1
  O  O243  1  0.00802905  0.21458945  0.36148722  1
  O  O244  1  -0.00904314  0.25972459  0.86379011  1
  O  O245  1  0.00839816  0.75942416  0.37037568  1
  O  O246  1  0.00864821  0.76006050  0.87762627  1
  O  O247  1  0.50595676  0.25427560  0.36925875  1
  O  O248  1  0.50486302  0.25399302  0.86886245  1
  O  O249  1  0.51011188  0.75640974  0.37763116  1
  O  O250  1  0.49984920  0.75807760  0.86359759  1
  O  O251  1  0.25776525  0.12737019  0.49027665  1
  O  O252  1  0.23835957  0.14589300  1.02163356  1
  O  O253  1  0.23901268  0.61870666  0.49235145  1
  O  O254  1  0.23813085  0.62047079  0.98987793  1
  O  O255  1  0.75470495  0.12401339  0.48733671  1
  O  O256  1  0.74048093  0.13270823  0.99950799  1
  O  O257  1  0.75048542  0.62877560  0.49242777  1
  O  O258  1  0.74262595  0.63370208  0.99971555  1
  O  O259  1  0.26284620  0.38249857  -0.00309997  1
  O  O260  1  0.26810688  0.38247565  0.50846194  1
  O  O261  1  0.26511358  0.87275306  0.00281399  1
  O  O262  1  0.24503897  0.87456362  0.50553957  1
  O  O263  1  0.74067816  0.36663616  0.01050353  1
  O  O264  1  0.75820941  0.37167895  0.50678603  1
  O  O265  1  0.75544795  0.86905760  0.00558137  1
  O  O266  1  0.74842216  0.86163908  0.49777345  1
  O  O267  1  0.13729059  0.50389630  0.23392309  1
  O  O268  1  0.13090644  0.49552343  0.74121229  1
  O  O269  1  0.12068528  0.98377879  0.24237302  1
  O  O270  1  0.12281934  0.99179422  0.73625279  1
  O  O271  1  0.63788477  0.49014622  0.25581662  1
  O  O272  1  0.63043851  0.49937108  0.74306408  1
  O  O273  1  0.63331261  0.99249244  0.24295638  1
  O  O274  1  0.61619342  1.00803424  0.73070410  1
  O  O275  1  0.38361648  0.01028839  0.25804867  1
  O  O276  1  0.38162877  0.01647349  0.74671443  1
  O  O277  1  0.37029160  0.50586633  0.25108922  1
  O  O278  1  0.36978505  0.50191957  0.75734281  1
  O  O279  1  0.85932718  0.00379999  0.24354307  1
  O  O280  1  0.88094327  0.01136258  0.75881453  1
  O  O281  1  0.86295669  0.50664033  0.25259004  1
  O  O282  1  0.86866707  0.50605742  0.75582966  1
  O  O283  1  0.08208741  0.41013488  0.41262688  1
  O  O284  1  0.11630513  0.38724420  0.86115810  1
  O  O285  1  0.12249540  0.87174675  0.36531683  1
  O  O286  1  0.11994435  0.86892573  0.86882234  1
  O  O287  1  0.62321631  0.36767150  0.36563563  1
  O  O288  1  0.61712138  0.36398391  0.87538052  1
  O  O289  1  0.61892982  0.86743720  0.36835082  1
  O  O290  1  0.60928286  0.87402933  0.88017753  1
  O  O291  1  0.38071117  0.14036264  0.13156103  1
  O  O292  1  0.38489106  0.13225501  0.63016820  1
  O  O293  1  0.38480563  0.63632962  0.12225846  1
  O  O294  1  0.38149406  0.63179717  0.62433721  1
  O  O295  1  0.88014475  0.12625889  0.13425841  1
  O  O296  1  0.87592111  0.12991318  0.63557880  1
  O  O297  1  0.87671682  0.64001011  0.12599726  1
  O  O298  1  0.89480754  0.61869465  0.61815390  1
  O  O299  1  0.25356110  0.26446047  0.14520720  1
  O  O300  1  0.26238201  0.25895224  0.63009578  1
  O  O301  1  0.26667046  0.74872916  0.12580526  1
  O  O302  1  0.25709998  0.76568605  0.62922222  1
  O  O303  1  0.75009717  0.25804961  0.11621567  1
  O  O304  1  0.75890507  0.24835988  0.62767890  1
  O  O305  1  0.75654748  0.75623584  0.11592530  1
  O  O306  1  0.74416806  0.75045959  0.60741411  1
  O  O307  1  0.25738419  0.23620885  0.37342915  1
  O  O308  1  0.25232874  0.23911828  0.87845518  1
  O  O309  1  0.24242402  0.73828350  0.36707537  1
  O  O310  1  0.24637779  0.73752879  0.86947807  1
  O  O311  1  0.74034517  0.23838904  0.37750758  1
  O  O312  1  0.74089388  0.25128262  0.88188665  1
  O  O313  1  0.74601313  0.74494833  0.38531192  1
  O  O314  1  0.75038326  0.75160664  0.88742217  1
  O  O315  1  -0.00733217  0.11149270  0.01089376  1
  O  O316  1  0.00321759  0.11345542  0.50611403  1
  O  O317  1  0.01501144  0.62376191  0.00128581  1
  O  O318  1  0.01569317  0.61671122  0.50718017  1
  O  O319  1  0.50187738  0.11716823  0.00544735  1
  O  O320  1  0.49626818  0.11786780  0.50667651  1
  O  O321  1  0.50685168  0.61924861  0.00577338  1
  O  O322  1  0.50352375  0.61699334  0.50985101  1
  O  O323  1  0.49517696  0.38376800  0.49573138  1
  O  O324  1  0.49620316  0.38410974  0.99621417  1
  O  O325  1  0.50308433  0.88246952  0.48330304  1
  O  O326  1  0.49400526  0.88096510  0.99315450  1
  O  O327  1  0.98403217  0.37708437  0.51942248  1
  O  O328  1  1.00311769  0.37800461  0.98523833  1
  O  O329  1  1.01020029  0.88997680  0.49013089  1
  O  O330  1  0.99274163  0.88066204  0.99045235  1
  O  O331  1  0.50217508  0.49630856  0.38400737  1
  O  O332  1  0.49427989  0.49708876  0.88247108  1
  O  O333  1  0.49581466  0.99350860  0.37851310  1
  O  O334  1  0.49385521  0.99411203  0.88272842  1
  O  O335  1  0.98595237  0.52463057  0.38601081  1
  O  O336  1  0.99161107  0.49455481  0.87565463  1
  O  O337  1  1.00815633  0.99941787  0.39062155  1
  O  O338  1  0.99247300  0.99401593  0.88172261  1
  O  O339  1  0.00453864  0.00163469  0.11678709  1
  O  O340  1  0.01187768  0.00037661  0.61542997  1
  O  O341  1  0.01046215  0.50478126  0.12214164  1
  O  O342  1  0.01070961  0.50387003  0.61550739  1
  O  O343  1  0.50668082  0.00365862  0.11924849  1
  O  O344  1  0.50480945  0.00707816  0.61542443  1
  O  O345  1  0.49637482  0.50874736  0.11157467  1
  O  O346  1  0.50537337  0.50648051  0.62024841  1
  O  O347  1  0.25332797  0.38748774  0.25455382  1
  O  O348  1  0.24355855  0.38042516  0.74674235  1
  O  O349  1  0.23530080  0.87143365  0.24586706  1
  O  O350  1  0.24320022  0.87775585  0.75517054  1
  O  O351  1  0.74530290  0.38096508  0.24390215  1
  O  O352  1  0.74668046  0.38856469  0.74914410  1
  O  O353  1  0.74127681  0.88091896  0.24770479  1
  O  O354  1  0.74164760  0.88237132  0.74996498  1
  O  O355  1  0.26395110  0.12645185  0.24638859  1
  O  O356  1  0.26820739  0.12862567  0.74447397  1
  O  O357  1  0.25665022  0.62200792  0.25479949  1
  O  O358  1  0.25107343  0.61848893  0.75648806  1
  O  O359  1  0.75767889  0.11687052  0.25419756  1
  O  O360  1  0.75797623  0.11547338  0.75690658  1
  O  O361  1  0.74953577  0.61782129  0.25532145  1
  O  O362  1  0.74825047  0.61295280  0.75244606  1
  O  O363  1  0.36687130  0.11847178  0.36649254  1
  O  O364  1  0.38423056  0.12565603  0.85679183  1
  O  O365  1  0.36863313  0.62433054  0.37506006  1
  O  O366  1  0.36788401  0.62161391  0.87541245  1
  O  O367  1  0.86301580  0.12492989  0.36179140  1
  O  O368  1  0.87499189  0.11611065  0.87053125  1
  O  O369  1  0.86340457  0.63644727  0.37063204  1
  O  O370  1  0.87426182  0.61599839  0.87301133  1
  O  O371  1  0.12562065  0.38055162  0.12685511  1
  O  O372  1  0.12896947  0.38380931  0.63611571  1
  O  O373  1  0.12503684  0.87691588  0.13576585  1
  O  O374  1  0.13908151  0.87834553  0.63108701  1
  O  O375  1  0.63347692  0.36991163  0.13855225  1
  O  O376  1  0.62396970  0.38806352  0.62868300  1
  O  O377  1  0.62905588  0.87707484  0.13216504  1
  O  O378  1  0.61965128  0.88669415  0.62116170  1
  O  O379  1  0.13196590  0.28108260  0.25976137  1
  O  O380  1  0.11494730  0.26044428  0.74627153  1
  O  O381  1  0.11885436  0.75859519  0.25818115  1
  O  O382  1  0.12821581  0.75967526  0.76266644  1
  O  O383  1  0.62179775  0.25674751  0.25799533  1
  O  O384  1  0.61843537  0.25072422  0.75881742  1
  O  O385  1  0.63482005  0.75879922  0.26276271  1
  O  O386  1  0.61001322  0.74295126  0.74793404  1
  O  O387  1  0.38467674  0.24579522  0.24500887  1
  O  O388  1  0.38279110  0.24476688  0.74105796  1
  O  O389  1  0.37962220  0.74878169  0.23466138  1
  O  O390  1  0.38774223  0.74682009  0.73713632  1
  O  O391  1  0.86891321  0.23407809  0.24441629  1
  O  O392  1  0.87683692  0.23915662  0.74848285  1
  O  O393  1  0.88063317  0.75500643  0.24074399  1
  O  O394  1  0.87151022  0.74109521  0.74091117  1
  O  O395  1  0.38838718  0.49381448  0.50054080  1
  O  O396  1  0.38264219  0.49466770  0.99501552  1
  O  O397  1  0.38957007  1.00172740  0.48782516  1
  O  O398  1  0.38948116  0.98710598  1.01170797  1
  O  O399  1  0.88613045  0.48418085  0.49099539  1
  O  O400  1  0.87543713  0.50468380  0.98893160  1
  O  O401  1  0.89118872  1.00307240  0.50497149  1
  O  O402  1  0.88108503  0.99368349  0.99380497  1
  O  O403  1  0.11016190  -0.01324016  0.00870091  1
  O  O404  1  0.12167003  0.00632691  0.51346351  1
  O  O405  1  0.12594400  0.50740636  0.01200956  1
  O  O406  1  0.12395427  0.50938616  0.51618480  1
  O  O407  1  0.61457019  0.00440218  0.00447771  1
  O  O408  1  0.61150569  -0.00078681  0.51024694  1
  O  O409  1  0.61584806  0.50977626  -0.00562125  1
  O  O410  1  0.61686454  0.49903855  0.50634669  1
  O  O411  1  0.38191859  0.36561083  0.11860909  1
  O  O412  1  0.37430000  0.36690062  0.62024670  1
  O  O413  1  0.37620230  0.86312581  0.12041123  1
  O  O414  1  0.36114174  0.87052598  0.62442365  1
  O  O415  1  0.86261378  0.37027650  0.12619687  1
  O  O416  1  0.86943190  0.36628572  0.62426629  1
  O  O417  1  0.87051041  0.86709869  0.12063836  1
  O  O418  1  0.87055065  0.87731768  0.62348326  1
  O  O419  1  0.15203354  0.11180476  0.37741182  1
  O  O420  1  0.12731679  0.12512128  0.88458164  1
  O  O421  1  0.13281673  0.63568168  0.38443500  1
  O  O422  1  0.12986980  0.63170962  0.87836126  1
  O  O423  1  0.63297252  0.13389306  0.36682464  1
  O  O424  1  0.62240642  0.13516316  0.88012333  1
  O  O425  1  0.63743086  0.63194543  0.37555243  1
  O  O426  1  0.62656392  0.63146794  0.88663216  1
