# generated using pymatgen
data_V85Zn86O256
_symmetry_space_group_name_H-M   'P 1'
_cell_length_a   16.93023096
_cell_length_b   16.94422668
_cell_length_c   16.94506282
_cell_angle_alpha   89.99983328
_cell_angle_beta   89.95052965
_cell_angle_gamma   90.06242496
_symmetry_Int_Tables_number   1
_chemical_formula_structural   V85Zn86O256
_chemical_formula_sum   'V85 Zn86 O256'
_cell_volume   4861.01990117
_cell_formula_units_Z   1
loop_
 _symmetry_equiv_pos_site_id
 _symmetry_equiv_pos_as_xyz
  1  'x, y, z'
loop_
 _atom_site_type_symbol
 _atom_site_label
 _atom_site_symmetry_multiplicity
 _atom_site_fract_x
 _atom_site_fract_y
 _atom_site_fract_z
 _atom_site_occupancy
  V  V0  1  0.12635113  0.75007769  0.87614870  1
  V  V1  1  0.75327693  -0.00024263  0.25006053  1
  V  V2  1  0.37547112  0.87944448  -0.00641526  1
  V  V3  1  -0.00394894  0.87442506  0.88168987  1
  V  V4  1  0.37611064  0.38031624  0.00644759  1
  V  V5  1  0.11957251  0.12673652  0.00428204  1
  V  V6  1  0.88051274  0.00047426  0.38448335  1
  V  V7  1  0.75249812  0.24826525  0.50312104  1
  V  V8  1  0.24641313  0.87667290  0.12437848  1
  V  V9  1  0.12306259  0.00016591  0.62611821  1
  V  V10  1  0.62905420  0.85689536  0.75721789  1
  V  V11  1  0.25259411  0.74297767  0.49910733  1
  V  V12  1  0.87556505  0.62444371  0.74740588  1
  V  V13  1  0.00551532  0.62339075  0.61973086  1
  V  V14  1  0.12997406  0.74182225  0.37258497  1
  V  V15  1  0.74852968  0.63757127  0.87812777  1
  V  V16  1  0.50792245  0.86113471  0.87406586  1
  V  V17  1  0.23388436  0.37862119  0.12421334  1
  V  V18  1  0.63160374  0.64093354  -0.00059074  1
  V  V19  1  0.87239341  0.37555951  -0.00007526  1
  V  V20  1  0.86785246  0.50686637  0.36408923  1
  V  V21  1  0.74986757  0.37878165  0.62406342  1
  V  V22  1  0.50499693  0.62467084  0.12487541  1
  V  V23  1  -0.00459003  0.00052470  0.00936987  1
  V  V24  1  0.49856534  0.37302893  0.87223109  1
  V  V25  1  0.24777290  0.00114597  0.24817741  1
  V  V26  1  0.00227198  0.75207752  0.74764189  1
  V  V27  1  0.51268220  0.50055440  -0.00133571  1
  V  V28  1  0.00730376  0.49866859  0.00487663  1
  V  V29  1  0.62284361  0.74513612  0.38499074  1
  V  V30  1  0.37345844  0.74969921  0.12526036  1
  V  V31  1  0.50066722  0.37877125  0.38095608  1
  V  V32  1  0.62737795  0.12505894  -0.00098757  1
  V  V33  1  0.25037957  0.62526111  0.86895571  1
  V  V34  1  0.10995718  0.12204829  0.49783811  1
  V  V35  1  0.00571561  0.25215198  0.24511361  1
  V  V36  1  0.74850279  0.73888297  0.50058807  1
  V  V37  1  0.12377556  0.25113099  0.85998698  1
  V  V38  1  0.37070381  0.87978473  0.49912994  1
  V  V39  1  0.62705374  0.87442804  0.25046748  1
  V  V40  1  -0.01276936  0.74608789  0.25379650  1
  V  V41  1  0.12508733  0.25847593  0.37200377  1
  V  V42  1  0.75301418  0.87396848  0.62358945  1
  V  V43  1  0.61412968  0.11822058  0.50509585  1
  V  V44  1  0.75778323  0.12825614  0.87028987  1
  V  V45  1  0.24950456  0.74922133  -0.00107671  1
  V  V46  1  0.75245174  0.00281482  0.74898457  1
  V  V47  1  0.49980086  0.88092519  0.37397063  1
  V  V48  1  0.25471060  0.11128224  0.86959312  1
  V  V49  1  0.23673766  0.49782977  0.24557021  1
  V  V50  1  0.49773201  0.23358322  0.74728964  1
  V  V51  1  0.24699057  0.12618745  0.37437263  1
  V  V52  1  0.60956392  0.50160746  0.60950895  1
  V  V53  1  0.37039190  0.50044967  0.37324602  1
  V  V54  1  0.37477212  0.25317335  0.12456716  1
  V  V55  1  0.88332571  0.12255171  0.24580221  1
  V  V56  1  0.25047554  0.87919219  0.63076413  1
  V  V57  1  0.13208478  0.49034400  0.63079072  1
  V  V58  1  0.62590806  -0.00046619  0.12523068  1
  V  V59  1  0.87469692  0.49841212  0.87362373  1
  V  V60  1  -0.00133726  0.37850182  0.37222282  1
  V  V61  1  0.87651729  -0.00073166  0.87559999  1
  V  V62  1  0.50511525  0.25368659  0.25011643  1
  V  V63  1  0.87872913  0.24870674  0.63810530  1
  V  V64  1  0.00265358  0.87659205  0.38240329  1
  V  V65  1  0.87892722  0.24566070  0.12207742  1
  V  V66  1  0.62730234  0.25418358  0.37354642  1
  V  V67  1  0.24840824  0.25047794  -0.00239464  1
  V  V68  1  0.37831977  0.00324045  0.37501918  1
  V  V69  1  0.37453217  0.37695197  0.50539647  1
  V  V70  1  0.75933904  0.87344005  0.11243411  1
  V  V71  1  0.00174801  0.37131888  0.86057261  1
  V  V72  1  0.37013055  0.62089638  0.25015453  1
  V  V73  1  0.62528453  0.24869235  0.87256818  1
  V  V74  1  0.74427997  0.50215863  0.74904589  1
  V  V75  1  0.39366143  0.63263683  0.74984182  1
  V  V76  1  0.74215789  0.37555479  0.13694806  1
  V  V77  1  0.50060385  0.12511129  0.12397322  1
  V  V78  1  0.49759127  0.00143143  -0.00889782  1
  V  V79  1  0.37410541  0.12732931  0.24872844  1
  V  V80  1  0.37802209  0.23656890  0.62784586  1
  V  V81  1  0.75150194  0.12498569  0.37523832  1
  V  V82  1  0.87563100  0.74387325  0.10966383  1
  V  V83  1  -0.00649641  0.12323833  0.64215833  1
  V  V84  1  0.24810206  0.24951178  0.50197911  1
  Zn  Zn85  1  0.53593637  0.66434681  0.57400314  1
  Zn  Zn86  1  0.87685307  0.37809627  0.49905149  1
  Zn  Zn87  1  0.24352714  0.36415784  0.64052330  1
  Zn  Zn88  1  0.61825744  0.00771097  0.63303233  1
  Zn  Zn89  1  0.74833994  0.62336467  0.36167095  1
  Zn  Zn90  1  0.37386439  0.49997697  0.87281906  1
  Zn  Zn91  1  0.12365765  0.87433744  0.25086859  1
  Zn  Zn92  1  0.87809382  0.74927271  0.62072298  1
  Zn  Zn93  1  0.87686388  0.87558699  0.50282735  1
  Zn  Zn94  1  0.38868412  0.75678750  0.63746802  1
  Zn  Zn95  1  0.75034399  0.25056176  -0.00026695  1
  Zn  Zn96  1  0.00197957  0.61546858  0.13349277  1
  Zn  Zn97  1  0.25121029  0.49697144  0.75184123  1
  Zn  Zn98  1  0.11877296  0.00494590  0.12776985  1
  Zn  Zn99  1  0.12655623  0.88494310  0.75300223  1
  Zn  Zn100  1  0.61802992  0.37495575  0.74574064  1
  Zn  Zn101  1  0.13044141  0.61668806  0.00569165  1
  Zn  Zn102  1  0.37223155  0.09554095  0.74955776  1
  Zn  Zn103  1  0.13948256  0.61833426  0.49962168  1
  Zn  Zn104  1  0.00214247  0.50001773  0.49750978  1
  Zn  Zn105  1  0.49809058  0.75169093  0.24852133  1
  Zn  Zn106  1  0.68578730  0.52359335  0.21061172  1
  Zn  Zn107  1  0.18705018  0.18988954  0.18422195  1
  Zn  Zn108  1  0.18835293  0.17936495  0.68665315  1
  Zn  Zn109  1  0.18188982  0.68390634  0.18655615  1
  Zn  Zn110  1  0.19054746  0.68872694  0.68402201  1
  Zn  Zn111  1  0.69165199  0.19026295  0.18760344  1
  Zn  Zn112  1  0.68766208  0.18751327  0.68739349  1
  Zn  Zn113  1  0.69022705  0.69594319  0.18614577  1
  Zn  Zn114  1  0.68768382  0.68322195  0.68230797  1
  Zn  Zn115  1  0.31211199  0.31794289  0.30932630  1
  Zn  Zn116  1  0.31346705  0.30774016  0.81270977  1
  Zn  Zn117  1  0.30996786  0.81191890  0.31083674  1
  Zn  Zn118  1  0.31866371  0.82490713  0.80929654  1
  Zn  Zn119  1  0.81705353  0.31358362  0.31171548  1
  Zn  Zn120  1  0.81145820  0.31558499  0.81068171  1
  Zn  Zn121  1  0.81069221  0.81374321  0.31544908  1
  Zn  Zn122  1  0.81808009  0.81443187  0.81200037  1
  Zn  Zn123  1  0.18986711  0.43852753  0.44078909  1
  Zn  Zn124  1  0.18814565  0.43324378  0.92985333  1
  Zn  Zn125  1  0.18522959  0.93749244  0.44011900  1
  Zn  Zn126  1  0.18020539  0.93619631  0.94174256  1
  Zn  Zn127  1  0.68883953  0.43766075  0.43702655  1
  Zn  Zn128  1  0.68856369  0.43720300  0.93662749  1
  Zn  Zn129  1  0.69080532  0.93613397  0.43913038  1
  Zn  Zn130  1  0.68769479  0.93946030  0.93541568  1
  Zn  Zn131  1  0.31047933  0.06388508  0.05842712  1
  Zn  Zn132  1  0.30744641  0.06136634  0.56082592  1
  Zn  Zn133  1  0.31410758  0.56068213  0.06183500  1
  Zn  Zn134  1  0.36517848  0.58322473  0.54533526  1
  Zn  Zn135  1  0.81345125  0.06227998  0.05988405  1
  Zn  Zn136  1  0.81169956  0.06415084  0.56506666  1
  Zn  Zn137  1  0.81277235  0.56013655  0.06497869  1
  Zn  Zn138  1  0.81721701  0.56021696  0.55765406  1
  Zn  Zn139  1  0.48399213  0.45808519  0.20774605  1
  Zn  Zn140  1  0.42731101  0.43459149  0.69176604  1
  Zn  Zn141  1  0.43595159  0.93913895  0.18469621  1
  Zn  Zn142  1  0.44257346  0.95070686  0.68744766  1
  Zn  Zn143  1  0.93593913  0.43213480  0.18754149  1
  Zn  Zn144  1  0.93628022  0.44093602  0.68253466  1
  Zn  Zn145  1  0.93723465  0.93103036  0.19309051  1
  Zn  Zn146  1  0.93839330  0.94047910  0.69012052  1
  Zn  Zn147  1  0.06196434  0.06282130  0.31230276  1
  Zn  Zn148  1  0.06580928  0.06284958  0.81535808  1
  Zn  Zn149  1  0.05953624  0.56596699  0.31435780  1
  Zn  Zn150  1  0.06345767  0.56227500  0.81197478  1
  Zn  Zn151  1  0.56424936  0.06673827  0.31369354  1
  Zn  Zn152  1  0.56755893  0.05741872  0.81369494  1
  Zn  Zn153  1  0.55479793  0.56625439  0.32341334  1
  Zn  Zn154  1  0.56659855  0.56252512  0.81577188  1
  Zn  Zn155  1  0.43694982  0.19016967  0.43800818  1
  Zn  Zn156  1  0.43433510  0.18737405  0.93553368  1
  Zn  Zn157  1  0.43400245  0.69424199  0.42862311  1
  Zn  Zn158  1  0.43555268  0.68620429  0.93762067  1
  Zn  Zn159  1  0.93515839  0.19208032  0.43600524  1
  Zn  Zn160  1  0.94041758  0.18723816  0.93392032  1
  Zn  Zn161  1  0.93374636  0.68656990  0.43723886  1
  Zn  Zn162  1  0.93816532  0.68284413  0.93527550  1
  Zn  Zn163  1  0.05815799  0.31129777  0.05434003  1
  Zn  Zn164  1  0.05959204  0.31023116  0.56227155  1
  Zn  Zn165  1  0.06103381  0.80944289  0.06335805  1
  Zn  Zn166  1  0.06719821  0.81080603  0.55976210  1
  Zn  Zn167  1  0.56328991  0.31131429  0.05975912  1
  Zn  Zn168  1  0.56242449  0.31040616  0.56397072  1
  Zn  Zn169  1  0.56300212  0.81327760  0.06325816  1
  Zn  Zn170  1  0.54443175  0.85569695  0.57984722  1
  O  O171  1  0.12878247  0.12474294  0.10948535  1
  O  O172  1  0.11258504  0.12168165  0.61789964  1
  O  O173  1  0.11293858  0.63503186  0.11509056  1
  O  O174  1  0.12052341  0.61707919  0.62167642  1
  O  O175  1  0.62127139  0.12113070  0.12022439  1
  O  O176  1  0.62862673  0.12381416  0.61047260  1
  O  O177  1  0.61817859  0.62964333  0.11317303  1
  O  O178  1  0.62252868  0.60852750  0.62413469  1
  O  O179  1  0.38116469  0.37656811  0.38256133  1
  O  O180  1  0.38647304  0.37000451  0.88834664  1
  O  O181  1  0.37930757  0.88604734  0.37257665  1
  O  O182  1  0.38610421  0.87187981  0.88906782  1
  O  O183  1  0.88263408  0.38140996  0.37663259  1
  O  O184  1  0.87990152  0.37764789  0.88144323  1
  O  O185  1  0.88220338  0.88510223  0.37473296  1
  O  O186  1  0.88482787  0.88465309  0.87451994  1
  O  O187  1  0.25669552  0.00500468  0.36732010  1
  O  O188  1  0.24057476  0.01359132  0.88176501  1
  O  O189  1  0.26067775  0.48870565  0.35843944  1
  O  O190  1  0.25136671  0.51124326  0.87597962  1
  O  O191  1  0.75857151  0.00404898  0.36769992  1
  O  O192  1  0.75782183  0.00754393  0.87107799  1
  O  O193  1  0.76206264  0.49925477  0.37613965  1
  O  O194  1  0.75509242  0.50301537  0.86528313  1
  O  O195  1  0.25345338  0.49172012  0.13492433  1
  O  O196  1  0.23408494  0.49637071  0.62534400  1
  O  O197  1  0.24943188  0.99334382  0.12998710  1
  O  O198  1  0.23769019  0.99142890  0.61938803  1
  O  O199  1  0.75288412  0.48208364  0.12489197  1
  O  O200  1  0.74475879  0.49406414  0.62861203  1
  O  O201  1  0.74791957  0.99083163  0.12997711  1
  O  O202  1  0.75027068  0.99360861  0.63361267  1
  O  O203  1  -0.00155371  0.36435144  0.25973410  1
  O  O204  1  -0.00867372  0.37835725  0.76190306  1
  O  O205  1  0.00274527  0.86386137  0.26083942  1
  O  O206  1  0.00234159  0.86732737  0.75892973  1
  O  O207  1  0.49125803  0.35761694  0.26260158  1
  O  O208  1  0.49644644  0.36520717  0.76072819  1
  O  O209  1  0.50678900  0.87742201  0.25528170  1
  O  O210  1  0.52239892  0.87330072  0.76120252  1
  O  O211  1  0.49488391  0.13470516  0.24566285  1
  O  O212  1  0.49616538  0.13003480  0.75864065  1
  O  O213  1  0.48887576  0.62951433  0.23986607  1
  O  O214  1  0.49302815  0.62736963  0.75749552  1
  O  O215  1  0.98940133  0.13212333  0.25231841  1
  O  O216  1  0.99936821  0.12543951  0.74037718  1
  O  O217  1  1.00050720  0.64170509  0.24992437  1
  O  O218  1  0.99709663  0.63132654  0.74129026  1
  O  O219  1  0.36927873  0.25653843  0.00525457  1
  O  O220  1  0.36653127  0.25226662  0.50669863  1
  O  O221  1  0.36908124  0.75820693  0.00663095  1
  O  O222  1  0.36518486  0.76871637  0.48852010  1
  O  O223  1  0.87695134  0.25595957  0.00637241  1
  O  O224  1  0.86226156  0.25114779  0.50505465  1
  O  O225  1  0.88475456  0.75251253  0.01144280  1
  O  O226  1  0.86429383  0.75444269  0.50021309  1
  O  O227  1  0.13060746  0.24317100  0.49202593  1
  O  O228  1  0.12901254  0.24287522  0.99279366  1
  O  O229  1  0.13639650  0.74555951  0.49267055  1
  O  O230  1  0.12985298  0.75274967  0.98740903  1
  O  O231  1  0.63540372  0.24167417  0.49609792  1
  O  O232  1  0.62552430  0.24164068  0.99024375  1
  O  O233  1  0.63336425  0.75930938  0.49064869  1
  O  O234  1  0.62797369  0.73949340  1.00163725  1
  O  O235  1  0.49718857  0.24543327  0.13179474  1
  O  O236  1  0.49197121  0.25080057  0.63626859  1
  O  O237  1  0.49348813  0.74193608  0.12502849  1
  O  O238  1  0.50090438  0.75997888  0.61639220  1
  O  O239  1  0.98927757  0.25628955  0.13124524  1
  O  O240  1  0.99158933  0.23571785  0.61951055  1
  O  O241  1  0.98609793  0.75816375  0.13655662  1
  O  O242  1  1.00293865  0.74418604  0.63293716  1
  O  O243  1  0.00565563  0.25532089  0.36552792  1
  O  O244  1  0.01368329  0.25592313  0.87656251  1
  O  O245  1  0.00303574  0.75471884  0.36699435  1
  O  O246  1  0.00538017  0.75563464  0.87074076  1
  O  O247  1  0.50789252  0.25394520  0.36900160  1
  O  O248  1  0.50508399  0.25343681  0.86925096  1
  O  O249  1  0.50658968  0.76246370  0.36842029  1
  O  O250  1  0.50360355  0.76261098  0.88681044  1
  O  O251  1  0.24165132  0.13471694  0.49293686  1
  O  O252  1  0.24254526  0.13124172  0.99176185  1
  O  O253  1  0.26317607  0.64080602  0.50419950  1
  O  O254  1  0.25211242  0.63213461  0.98971289  1
  O  O255  1  0.74645632  0.13282395  0.49364781  1
  O  O256  1  0.74409958  0.12731157  0.99165408  1
  O  O257  1  0.75168027  0.63661372  0.49707536  1
  O  O258  1  0.73822224  0.61860351  0.99494768  1
  O  O259  1  0.25747518  0.37218356  0.00442200  1
  O  O260  1  0.25466793  0.35931012  0.50080569  1
  O  O261  1  0.25732255  0.87231638  0.00437282  1
  O  O262  1  0.25374294  0.87028408  0.50672354  1
  O  O263  1  0.76193184  0.37244241  0.00133947  1
  O  O264  1  0.74964386  0.36746545  0.51138117  1
  O  O265  1  0.74723647  0.88096433  0.01467736  1
  O  O266  1  0.75230799  0.86909420  0.51004742  1
  O  O267  1  0.13859669  0.50494347  0.25386710  1
  O  O268  1  0.12511595  0.50339871  0.73483120  1
  O  O269  1  0.13289563  0.99899075  0.24660460  1
  O  O270  1  0.11942636  1.00218896  0.73364722  1
  O  O271  1  0.58934747  0.48860479  0.25045789  1
  O  O272  1  0.63543438  0.49781784  0.74593107  1
  O  O273  1  0.63016994  0.99363254  0.24548023  1
  O  O274  1  0.63991777  0.99277725  0.75145986  1
  O  O275  1  0.36721193  0.00763747  0.25353077  1
  O  O276  1  0.37141448  -0.01603869  0.75760223  1
  O  O277  1  0.37784890  0.50538038  0.25575300  1
  O  O278  1  0.37438336  0.51660459  0.75385141  1
  O  O279  1  0.87306643  0.00730258  0.25573017  1
  O  O280  1  0.86438349  -0.00284760  0.76264275  1
  O  O281  1  0.87980855  0.49532966  0.26507699  1
  O  O282  1  0.86304237  0.50473404  0.75152322  1
  O  O283  1  0.12104806  0.36290989  0.37716385  1
  O  O284  1  0.11730325  0.35969769  0.87644694  1
  O  O285  1  0.11760258  0.86746093  0.37488936  1
  O  O286  1  0.11841789  0.86771984  0.87122853  1
  O  O287  1  0.61643158  0.36200434  0.38447817  1
  O  O288  1  0.61438586  0.36746289  0.87459813  1
  O  O289  1  0.61756351  0.87529674  0.36805250  1
  O  O290  1  0.62466012  0.87432668  0.86672042  1
  O  O291  1  0.38093312  0.13192776  0.12803103  1
  O  O292  1  0.36996319  0.13216549  0.62724811  1
  O  O293  1  0.38136413  0.63215021  0.12738659  1
  O  O294  1  0.37139949  0.63496711  0.64672753  1
  O  O295  1  0.86963271  0.13325404  0.13334016  1
  O  O296  1  0.88681402  0.13114296  0.62219843  1
  O  O297  1  0.87936989  0.63960131  0.11944027  1
  O  O298  1  0.88412614  0.62500041  0.63166665  1
  O  O299  1  0.25561421  0.25875052  0.11894381  1
  O  O300  1  0.25414463  0.24638431  0.61711052  1
  O  O301  1  0.25366248  0.75840053  0.11977629  1
  O  O302  1  0.25114234  0.76055459  0.61451989  1
  O  O303  1  0.76242989  0.25661126  0.12214567  1
  O  O304  1  0.75484907  0.25659351  0.61964170  1
  O  O305  1  0.76471317  0.76215950  0.12561521  1
  O  O306  1  0.75342891  0.75465743  0.61726090  1
  O  O307  1  0.24254228  0.24697788  0.37769328  1
  O  O308  1  0.23906775  0.24459644  0.88083278  1
  O  O309  1  0.23934477  0.75750688  0.38273925  1
  O  O310  1  0.24284931  0.74824740  0.87840410  1
  O  O311  1  0.74500052  0.24819183  0.38161730  1
  O  O312  1  0.74424499  0.24426471  0.87390655  1
  O  O313  1  0.74091658  0.74972032  0.38170879  1
  O  O314  1  0.76196920  0.73601613  0.87462911  1
  O  O315  1  0.00783649  0.11425972  -0.00648662  1
  O  O316  1  0.00840903  0.12895963  0.49867342  1
  O  O317  1  -0.00129012  0.60439743  -0.00484908  1
  O  O318  1  0.00083251  0.62867757  0.51360879  1
  O  O319  1  0.50450190  0.11871034  0.00258707  1
  O  O320  1  0.51569547  0.12921762  0.49449820  1
  O  O321  1  0.51178575  0.62090073  0.00217088  1
  O  O322  1  0.46715967  0.61682016  0.50116009  1
  O  O323  1  0.48722805  0.36161327  0.49093949  1
  O  O324  1  0.49575691  0.38184650  0.99627563  1
  O  O325  1  0.48686891  0.87698200  0.47818433  1
  O  O326  1  0.49515982  0.88253213  0.99857910  1
  O  O327  1  0.99907212  0.37096804  0.48376824  1
  O  O328  1  0.98925259  0.38243131  0.99124326  1
  O  O329  1  0.99691364  0.86803126  0.48687996  1
  O  O330  1  1.00685965  0.88351882  0.98825975  1
  O  O331  1  0.48513571  0.48558222  0.37781001  1
  O  O332  1  0.49966968  0.48936230  0.88107940  1
  O  O333  1  0.48604987  0.99871510  0.36591132  1
  O  O334  1  0.50900561  0.99033076  0.88895970  1
  O  O335  1  0.99458030  0.49296182  0.37463537  1
  O  O336  1  0.99461686  0.49130200  0.87986060  1
  O  O337  1  0.99243808  0.99034059  0.36951293  1
  O  O338  1  0.99452075  0.99361020  0.87981270  1
  O  O339  1  -0.00348592  -0.00839433  0.11293769  1
  O  O340  1  0.00148332  0.01502149  0.62497659  1
  O  O341  1  -0.00750092  0.49621319  0.10917426  1
  O  O342  1  0.00855889  0.50728780  0.62184247  1
  O  O343  1  0.50672839  0.00628728  0.11780216  1
  O  O344  1  0.51686311  -0.03598910  0.61035623  1
  O  O345  1  0.49161087  0.51753206  0.11084135  1
  O  O346  1  0.51211677  0.48842132  0.62890341  1
  O  O347  1  0.25309963  0.38725638  0.23750260  1
  O  O348  1  0.26144197  0.38272230  0.75093963  1
  O  O349  1  0.24945597  0.88285634  0.24000849  1
  O  O350  1  0.24337630  0.86662151  0.73446383  1
  O  O351  1  0.75012773  0.36843794  0.23684033  1
  O  O352  1  0.74690957  0.38255744  0.73880976  1
  O  O353  1  0.74320823  0.88133763  0.24420686  1
  O  O354  1  0.74654998  0.88076063  0.74894616  1
  O  O355  1  0.25405816  0.12164953  0.25418797  1
  O  O356  1  0.25126344  0.12477964  0.76550050  1
  O  O357  1  0.26029455  0.61009565  0.23960838  1
  O  O358  1  0.24893174  0.62614044  0.76287781  1
  O  O359  1  0.76044099  0.12087307  0.25559293  1
  O  O360  1  0.74560116  0.11663397  0.75840553  1
  O  O361  1  0.73524681  0.61647332  0.24806497  1
  O  O362  1  0.75348593  0.61838009  0.75653418  1
  O  O363  1  0.36869576  0.12062309  0.37073881  1
  O  O364  1  0.35782610  0.12568050  0.87750610  1
  O  O365  1  0.37550843  0.61383259  0.36103564  1
  O  O366  1  0.36813937  0.62520792  0.86743135  1
  O  O367  1  0.87109394  0.11992979  0.36765767  1
  O  O368  1  0.86382848  0.12119974  0.87664820  1
  O  O369  1  0.87286648  0.61127066  0.37441950  1
  O  O370  1  0.86984592  0.61631313  0.86813686  1
  O  O371  1  0.13499188  0.36928573  0.11821828  1
  O  O372  1  0.12357072  0.38531899  0.62117953  1
  O  O373  1  0.13733926  0.87672579  0.12383992  1
  O  O374  1  0.12887792  0.88482917  0.62385827  1
  O  O375  1  0.64363165  0.36482880  0.11932346  1
  O  O376  1  0.63253305  0.38279178  0.62594824  1
  O  O377  1  0.63448788  0.87825984  0.13213726  1
  O  O378  1  0.64422439  0.87275522  0.64311789  1
  O  O379  1  0.11346835  0.24203813  0.25657619  1
  O  O380  1  0.12754757  0.24510612  0.76160563  1
  O  O381  1  0.11772057  0.75299269  0.25847715  1
  O  O382  1  0.11510326  0.74827761  0.76004431  1
  O  O383  1  0.61766162  0.24297471  0.26094125  1
  O  O384  1  0.61604597  0.25075783  0.75510972  1
  O  O385  1  0.62368592  0.76562819  0.25544582  1
  O  O386  1  0.63719199  0.75852151  0.75451833  1
  O  O387  1  0.38005920  0.24437612  0.24452169  1
  O  O388  1  0.38254678  0.24205399  0.74281261  1
  O  O389  1  0.37261611  0.74120819  0.24304409  1
  O  O390  1  0.37455340  0.73820210  0.75589291  1
  O  O391  1  0.88456672  0.24254930  0.24342332  1
  O  O392  1  0.86952548  0.25046245  0.73715043  1
  O  O393  1  0.88471801  0.75456716  0.24653330  1
  O  O394  1  0.88904621  0.74367074  0.74900906  1
  O  O395  1  0.35894478  0.48225536  0.49046852  1
  O  O396  1  0.38453508  0.49309677  0.99491727  1
  O  O397  1  0.36594022  0.99137354  0.48726975  1
  O  O398  1  0.38563275  0.99155130  1.00755348  1
  O  O399  1  0.88164068  0.49615132  0.48822808  1
  O  O400  1  0.88042200  0.49172291  0.99335124  1
  O  O401  1  0.87047593  1.00004389  0.48711630  1
  O  O402  1  0.88217682  1.00527358  0.98691128  1
  O  O403  1  0.11364494  0.00820938  0.00296638  1
  O  O404  1  0.12722402  0.01223609  0.50883651  1
  O  O405  1  0.10981500  0.49431471  -0.00578232  1
  O  O406  1  0.12322236  0.50253717  0.50843890  1
  O  O407  1  0.61919422  0.00595051  0.00697220  1
  O  O408  1  0.63170492  0.01732185  0.49508119  1
  O  O409  1  0.61511002  0.50301968  -0.00150054  1
  O  O410  1  0.62059765  0.49491617  0.51050799  1
  O  O411  1  0.37246646  0.36992813  0.11249676  1
  O  O412  1  0.37222081  0.36114939  0.61719604  1
  O  O413  1  0.36593169  0.87075428  0.11770992  1
  O  O414  1  0.36522081  0.87394411  0.61219859  1
  O  O415  1  0.86781591  0.36616691  0.11710966  1
  O  O416  1  0.86827419  0.36770479  0.62146131  1
  O  O417  1  0.86383074  0.86897220  0.12726254  1
  O  O418  1  0.86585106  0.87374305  0.62706056  1
  O  O419  1  0.12789123  0.13340662  0.38070676  1
  O  O420  1  0.13105787  0.13425989  0.88182741  1
  O  O421  1  0.12204801  0.63741569  0.38075284  1
  O  O422  1  0.13117518  0.63287018  0.88020022  1
  O  O423  1  0.63178009  0.13516629  0.38198145  1
  O  O424  1  0.63569372  0.12866225  0.87950496  1
  O  O425  1  0.62002686  0.64150201  0.37625415  1
  O  O426  1  0.63412579  0.62177798  0.88958417  1
