# generated using pymatgen
data_V85Zn86O256
_symmetry_space_group_name_H-M   'P 1'
_cell_length_a   16.95288299
_cell_length_b   16.95467052
_cell_length_c   16.95433756
_cell_angle_alpha   89.99558221
_cell_angle_beta   90.07985588
_cell_angle_gamma   89.94708625
_symmetry_Int_Tables_number   1
_chemical_formula_structural   V85Zn86O256
_chemical_formula_sum   'V85 Zn86 O256'
_cell_volume   4873.18766869
_cell_formula_units_Z   1
loop_
 _symmetry_equiv_pos_site_id
 _symmetry_equiv_pos_as_xyz
  1  'x, y, z'
loop_
 _atom_site_type_symbol
 _atom_site_label
 _atom_site_symmetry_multiplicity
 _atom_site_fract_x
 _atom_site_fract_y
 _atom_site_fract_z
 _atom_site_occupancy
  V  V0  1  0.62901653  0.75142849  0.38080663  1
  V  V1  1  0.49862562  0.13031309  0.12739985  1
  V  V2  1  0.75573488  -0.00221256  0.74310601  1
  V  V3  1  0.75037314  0.62851761  0.37840002  1
  V  V4  1  0.01009872  0.37116255  0.37792466  1
  V  V5  1  0.62859242  0.61812018  0.00512650  1
  V  V6  1  0.25085404  -0.01052109  0.73857218  1
  V  V7  1  0.37878153  0.49131848  0.87887145  1
  V  V8  1  0.50128572  0.75051782  0.75235122  1
  V  V9  1  0.62809374  0.87313601  0.74960400  1
  V  V10  1  0.87175895  0.12479120  0.74676048  1
  V  V11  1  0.25156741  0.62883582  0.87643188  1
  V  V12  1  0.12563943  0.74427790  0.37973066  1
  V  V13  1  0.11411473  -0.00826825  0.61254697  1
  V  V14  1  0.74493404  0.38230001  0.12762017  1
  V  V15  1  0.00358947  0.25166014  0.74875902  1
  V  V16  1  0.37236376  0.75820630  0.62738447  1
  V  V17  1  0.75175353  0.25651851  -0.00125883  1
  V  V18  1  0.87382200  0.76085350  0.12664508  1
  V  V19  1  0.87488895  0.12557717  0.25382838  1
  V  V20  1  0.75236514  0.49579851  0.74065047  1
  V  V21  1  0.24967319  0.75105522  0.50401832  1
  V  V22  1  0.87873452  0.50098274  0.87335364  1
  V  V23  1  -0.01160580  0.89101150  0.88677536  1
  V  V24  1  0.75517346  0.75770084  0.00756403  1
  V  V25  1  0.37456387  0.62617720  0.25117950  1
  V  V26  1  0.50519737  0.61948286  0.12719439  1
  V  V27  1  0.61549343  0.36369951  0.25427583  1
  V  V28  1  0.00383699  0.61814881  0.12950712  1
  V  V29  1  0.37754346  0.75107343  0.12534632  1
  V  V30  1  0.11216589  0.75065553  0.87251596  1
  V  V31  1  0.37291853  0.49305092  0.37459430  1
  V  V32  1  0.01022021  0.24952529  0.25257392  1
  V  V33  1  0.87812908  0.25170998  0.12690871  1
  V  V34  1  0.36876975  0.34511773  0.53910577  1
  V  V35  1  0.11504170  0.87223096  0.74848804  1
  V  V36  1  0.24773813  0.00617159  0.25011762  1
  V  V37  1  0.63414665  0.24818682  0.87338158  1
  V  V38  1  0.37600865  0.87642604  0.00189749  1
  V  V39  1  0.01090721  0.50129335  0.50123415  1
  V  V40  1  0.12485861  0.87635817  0.25034982  1
  V  V41  1  0.12466528  0.14443385  0.49389667  1
  V  V42  1  0.11796672  0.11989815  -0.00062357  1
  V  V43  1  0.12656020  0.62187994  0.00492190  1
  V  V44  1  0.37551974  0.13228322  0.25072457  1
  V  V45  1  0.62794164  0.75191318  0.87896407  1
  V  V46  1  0.76758117  0.09027176  0.90178769  1
  V  V47  1  0.62477040  0.87658619  0.24645728  1
  V  V48  1  0.00054951  0.74873957  0.25233956  1
  V  V49  1  0.74537828  0.13893017  0.37864721  1
  V  V50  1  0.24910216  0.75223771  0.00010856  1
  V  V51  1  0.87502818  0.62358183  0.25121558  1
  V  V52  1  0.49696285  0.00158851  0.49476144  1
  V  V53  1  0.00064526  0.87999304  0.38271831  1
  V  V54  1  0.00501170  0.49901306  0.00185497  1
  V  V55  1  0.75446471  0.62599347  0.87619585  1
  V  V56  1  0.50237271  0.00315725  -0.00041731  1
  V  V57  1  0.86087322  0.25514474  0.62067136  1
  V  V58  1  0.87914254  0.37886275  0.00084976  1
  V  V59  1  0.50786848  0.37411127  0.87964021  1
  V  V60  1  0.74990783  0.86240440  0.61335366  1
  V  V61  1  0.24966162  0.87778115  0.12631931  1
  V  V62  1  0.87548369  0.49821081  0.37694341  1
  V  V63  1  0.24033675  0.37870736  0.11861251  1
  V  V64  1  0.24848323  0.25386215  -0.01250082  1
  V  V65  1  0.62841881  -0.00063080  0.12741896  1
  V  V66  1  0.01349036  0.37239049  0.86975304  1
  V  V67  1  0.37404297  -0.00035550  0.87098509  1
  V  V68  1  0.49252765  0.49933429  0.50300825  1
  V  V69  1  0.24298663  0.11821068  0.87465421  1
  V  V70  1  0.01021078  0.62970242  0.62267325  1
  V  V71  1  0.62224728  0.14289210  0.49542193  1
  V  V72  1  0.74802573  -0.00346477  0.25412058  1
  V  V73  1  0.37715433  0.62635116  0.75110829  1
  V  V74  1  0.49655967  0.87467461  0.37698579  1
  V  V75  1  0.62677845  0.62483850  0.50229009  1
  V  V76  1  0.49546395  0.12593978  0.63384505  1
  V  V77  1  0.88133400  0.63387821  0.74683347  1
  V  V78  1  0.86087608  0.37278484  0.50048219  1
  V  V79  1  0.62521636  -0.00147044  0.61836566  1
  V  V80  1  0.37817259  0.25872044  0.11376967  1
  V  V81  1  0.24789945  0.61996058  0.37891722  1
  V  V82  1  0.87613389  0.00228058  0.38587355  1
  V  V83  1  0.73771934  0.50210270  0.24978620  1
  V  V84  1  0.24521344  0.49851723  0.74671477  1
  Zn  Zn85  1  -0.00333388  0.11840151  0.12268908  1
  Zn  Zn86  1  0.50251645  0.49781652  0.00430824  1
  Zn  Zn87  1  0.50281398  0.87703945  0.87657234  1
  Zn  Zn88  1  0.18625039  0.33198290  0.68662108  1
  Zn  Zn89  1  0.12753084  0.37881221  0.25191220  1
  Zn  Zn90  1  -0.00636484  0.12128493  0.61549865  1
  Zn  Zn91  1  0.62393777  0.12966381  0.00212954  1
  Zn  Zn92  1  0.50229707  0.25622213  0.74697799  1
  Zn  Zn93  1  0.34190646  0.17142731  0.71448114  1
  Zn  Zn94  1  0.87744955  0.74735150  0.61653667  1
  Zn  Zn95  1  0.62992049  0.49316359  0.61870286  1
  Zn  Zn96  1  0.24779235  0.14267754  0.37804581  1
  Zn  Zn97  1  0.24174978  0.50532938  0.23872215  1
  Zn  Zn98  1  0.50263820  0.62483040  0.62668979  1
  Zn  Zn99  1  0.37126048  0.87839193  0.50585382  1
  Zn  Zn100  1  0.13209621  0.49603440  0.61771294  1
  Zn  Zn101  1  0.63246282  0.36985354  0.74249298  1
  Zn  Zn102  1  0.87303936  0.86862529  0.49716616  1
  Zn  Zn103  1  0.50196191  0.74986556  0.25082998  1
  Zn  Zn104  1  0.37177255  0.00334971  0.37474207  1
  Zn  Zn105  1  0.11037839  -0.00578571  0.11956711  1
  Zn  Zn106  1  0.49662068  0.36252963  0.38048557  1
  Zn  Zn107  1  0.18982676  0.18939540  0.17884296  1
  Zn  Zn108  1  0.17674972  0.16722362  0.68953110  1
  Zn  Zn109  1  0.18788905  0.68927321  0.18900928  1
  Zn  Zn110  1  0.18750957  0.68802180  0.68891129  1
  Zn  Zn111  1  0.69215919  0.18615636  0.18422265  1
  Zn  Zn112  1  0.68563449  0.18403307  0.68655305  1
  Zn  Zn113  1  0.68720753  0.68992119  0.18984301  1
  Zn  Zn114  1  0.68794309  0.68122719  0.68943141  1
  Zn  Zn115  1  0.31443715  0.31093018  0.30163082  1
  Zn  Zn116  1  0.31416929  0.30760600  0.80041476  1
  Zn  Zn117  1  0.31182443  0.81135090  0.31342227  1
  Zn  Zn118  1  0.30931194  0.81537180  0.81409270  1
  Zn  Zn119  1  0.81549990  0.31637169  0.31088185  1
  Zn  Zn120  1  0.82041209  0.31487890  0.81224219  1
  Zn  Zn121  1  0.81282421  0.81329397  0.31395139  1
  Zn  Zn122  1  0.81431273  0.81317607  0.81108064  1
  Zn  Zn123  1  0.19998745  0.32061301  0.44725583  1
  Zn  Zn124  1  0.19123685  0.43976913  0.93380690  1
  Zn  Zn125  1  0.19208899  0.93414324  0.43371372  1
  Zn  Zn126  1  0.18253803  0.93607472  0.93543105  1
  Zn  Zn127  1  0.68203642  0.43808973  0.43299837  1
  Zn  Zn128  1  0.69085033  0.43853435  0.93254240  1
  Zn  Zn129  1  0.68431360  0.94289967  0.43380548  1
  Zn  Zn130  1  0.69892638  0.93820891  0.94460462  1
  Zn  Zn131  1  0.31143685  0.06421834  0.06151976  1
  Zn  Zn132  1  0.30856506  0.06377125  0.55874508  1
  Zn  Zn133  1  0.31706724  0.56359629  0.06072759  1
  Zn  Zn134  1  0.31244215  0.56724998  0.56311711  1
  Zn  Zn135  1  0.81236548  0.06212116  0.07035621  1
  Zn  Zn136  1  0.80733938  0.06604862  0.56102017  1
  Zn  Zn137  1  0.81588429  0.56596199  0.06480768  1
  Zn  Zn138  1  0.81692243  0.56647309  0.56016724  1
  Zn  Zn139  1  0.43243359  0.43966156  0.18555300  1
  Zn  Zn140  1  0.44351849  0.43933499  0.69412845  1
  Zn  Zn141  1  0.43941804  0.94305953  0.19037308  1
  Zn  Zn142  1  0.44111205  0.93832950  0.68863648  1
  Zn  Zn143  1  0.93913754  0.43785656  0.19160868  1
  Zn  Zn144  1  0.93962940  0.43764419  0.68428782  1
  Zn  Zn145  1  0.93878577  0.94059785  0.19320822  1
  Zn  Zn146  1  0.93678331  0.93294613  0.68872829  1
  Zn  Zn147  1  0.06290634  0.06394231  0.31506788  1
  Zn  Zn148  1  0.05979992  0.05882451  0.80998741  1
  Zn  Zn149  1  0.06829644  0.55573702  0.31414516  1
  Zn  Zn150  1  0.06189759  0.56564465  0.81299404  1
  Zn  Zn151  1  0.55724134  0.18815903  0.31301786  1
  Zn  Zn152  1  0.57619692  0.06108896  0.81639545  1
  Zn  Zn153  1  0.55902240  0.56002946  0.31716075  1
  Zn  Zn154  1  0.56629779  0.56314680  0.81394020  1
  Zn  Zn155  1  0.42662253  0.18937156  0.44244591  1
  Zn  Zn156  1  0.42416931  0.19865914  0.90975108  1
  Zn  Zn157  1  0.43865226  0.68717257  0.43899898  1
  Zn  Zn158  1  0.44123450  0.68657216  0.93874076  1
  Zn  Zn159  1  0.93955915  0.18861942  0.43950146  1
  Zn  Zn160  1  0.93669309  0.18951720  0.93296361  1
  Zn  Zn161  1  0.93752367  0.68963895  0.44291240  1
  Zn  Zn162  1  0.93713731  0.68926420  0.94178573  1
  Zn  Zn163  1  0.06440106  0.30461913  0.05576249  1
  Zn  Zn164  1  0.04755529  0.31542586  0.56759112  1
  Zn  Zn165  1  0.05920624  0.81110863  0.06225616  1
  Zn  Zn166  1  0.06414178  0.81009240  0.56081922  1
  Zn  Zn167  1  0.56498694  0.31599198  0.06185541  1
  Zn  Zn168  1  0.55549138  0.31728093  0.56715157  1
  Zn  Zn169  1  0.56365700  0.81136364  0.06327943  1
  Zn  Zn170  1  0.55980328  0.81002101  0.56219868  1
  O  O171  1  0.12238646  0.12391277  0.10989615  1
  O  O172  1  0.11886885  0.10896108  0.61179927  1
  O  O173  1  0.11668042  0.63257231  0.11661403  1
  O  O174  1  0.11317693  0.61894560  0.62989194  1
  O  O175  1  0.61724831  0.11912834  0.12391718  1
  O  O176  1  0.61915169  0.11661763  0.61364846  1
  O  O177  1  0.61744377  0.63035192  0.11832897  1
  O  O178  1  0.62373100  0.61910062  0.61593140  1
  O  O179  1  0.37732790  0.39172776  0.35783014  1
  O  O180  1  0.38367932  0.38829328  0.87121733  1
  O  O181  1  0.38854740  0.87606190  0.37199468  1
  O  O182  1  0.37676620  0.88437132  0.88302451  1
  O  O183  1  0.88088085  0.38282075  0.37944137  1
  O  O184  1  0.88142425  0.38446758  0.88457328  1
  O  O185  1  0.88228910  0.88407036  0.37410805  1
  O  O186  1  0.89024256  0.87113147  0.87045389  1
  O  O187  1  0.25159847  -0.00098586  0.35880325  1
  O  O188  1  0.25514427  0.00014166  0.86812341  1
  O  O189  1  0.25870797  0.51581586  0.37150271  1
  O  O190  1  0.26309862  0.50877196  0.87096526  1
  O  O191  1  0.75455526  0.00969533  0.36971599  1
  O  O192  1  0.72661810  -0.00180673  0.84703981  1
  O  O193  1  0.75607708  0.50636065  0.36710030  1
  O  O194  1  0.76139158  0.50817954  0.87011942  1
  O  O195  1  0.26034340  0.48144813  0.11580517  1
  O  O196  1  0.25134472  0.50915425  0.64219074  1
  O  O197  1  0.24907152  0.99291755  0.13430883  1
  O  O198  1  0.24226038  0.99971711  0.63586240  1
  O  O199  1  0.75918006  0.49271763  0.13665906  1
  O  O200  1  0.75394454  0.50523565  0.63833522  1
  O  O201  1  0.73608368  1.00604756  0.13765705  1
  O  O202  1  0.74214467  0.99214530  0.62760191  1
  O  O203  1  0.00053038  0.36771281  0.25941206  1
  O  O204  1  -0.00972669  0.36580979  0.75860579  1
  O  O205  1  0.00593577  0.86678866  0.26036586  1
  O  O206  1  0.01026922  0.87872544  0.76072420  1
  O  O207  1  0.51601454  0.38112401  0.24242153  1
  O  O208  1  0.50715215  0.37465807  0.76603832  1
  O  O209  1  0.50803777  0.87633009  0.25881084  1
  O  O210  1  0.51041699  0.86932269  0.75382888  1
  O  O211  1  0.49197378  0.12650877  0.23559069  1
  O  O212  1  0.51181503  0.11498665  0.73418853  1
  O  O213  1  0.49415800  0.62603744  0.24489969  1
  O  O214  1  0.49401671  0.63163089  0.75189067  1
  O  O215  1  0.99242494  0.13421593  0.25165692  1
  O  O216  1  0.98413038  0.12983654  0.75273787  1
  O  O217  1  0.99742998  0.62863939  0.24537250  1
  O  O218  1  0.99265166  0.61709516  0.73575810  1
  O  O219  1  0.35908219  0.24157265  0.00059879  1
  O  O220  1  0.36774955  0.24593543  0.52226974  1
  O  O221  1  0.37082167  0.75642675  0.00432341  1
  O  O222  1  0.37124926  0.74942973  0.51164305  1
  O  O223  1  0.87127950  0.25771863  0.00724007  1
  O  O224  1  0.87602203  0.25687689  0.51206859  1
  O  O225  1  0.86737424  0.74311333  0.01389546  1
  O  O226  1  0.87073697  0.75419550  0.50221350  1
  O  O227  1  0.12628299  0.24750023  0.50688743  1
  O  O228  1  0.13961513  0.23661598  0.99855935  1
  O  O229  1  0.13316546  0.75277130  0.48772620  1
  O  O230  1  0.12943851  0.74087800  0.99391705  1
  O  O231  1  0.61701660  0.24055989  0.50241906  1
  O  O232  1  0.63835309  0.25196467  0.99678360  1
  O  O233  1  0.61978163  0.73981371  0.49136608  1
  O  O234  1  0.63204203  0.74185542  0.99563044  1
  O  O235  1  0.49151438  0.24093144  0.10982469  1
  O  O236  1  0.50336992  0.23005396  0.63048968  1
  O  O237  1  0.49373710  0.74049535  0.12680485  1
  O  O238  1  0.49267861  0.74674665  0.63422323  1
  O  O239  1  0.98926978  0.24962290  0.12965019  1
  O  O240  1  0.98406624  0.24413358  0.63398643  1
  O  O241  1  0.99400333  0.74016268  0.13211441  1
  O  O242  1  1.00168251  0.73388233  0.62118766  1
  O  O243  1  -0.00915536  0.26000950  0.36401062  1
  O  O244  1  -0.00968372  0.26140367  0.86273745  1
  O  O245  1  0.00916078  0.75260537  0.37046379  1
  O  O246  1  0.01050978  0.74909825  0.87707098  1
  O  O247  1  0.48922789  0.25065243  0.37433360  1
  O  O248  1  0.52217015  0.25637011  0.88526888  1
  O  O249  1  0.50975441  0.75752084  0.37405088  1
  O  O250  1  0.51082186  0.75304279  0.87185473  1
  O  O251  1  0.23006224  0.12036215  0.49880306  1
  O  O252  1  0.24177552  0.13068798  0.99323632  1
  O  O253  1  0.25505784  0.63727982  0.48971272  1
  O  O254  1  0.24414800  0.63129065  0.99748165  1
  O  O255  1  0.73070597  0.12213545  0.49342126  1
  O  O256  1  0.75106765  0.14635776  1.00355802  1
  O  O257  1  0.73569431  0.61561946  0.49235989  1
  O  O258  1  0.74587487  0.63017772  0.99532395  1
  O  O259  1  0.24682284  0.36146429  0.00003129  1
  O  O260  1  0.27804890  0.37959359  0.50827864  1
  O  O261  1  0.25377199  0.87152659  0.00641245  1
  O  O262  1  0.25681318  0.85724156  0.49014447  1
  O  O263  1  0.75573283  0.37366979  0.00916047  1
  O  O264  1  0.76177150  0.38073599  0.49083778  1
  O  O265  1  0.74568040  0.85637162  0.00710652  1
  O  O266  1  0.74578887  0.88009273  0.51193147  1
  O  O267  1  0.12928111  0.49313738  0.24727906  1
  O  O268  1  0.14409218  0.50945876  0.75476323  1
  O  O269  1  0.13141494  0.99447843  0.24709666  1
  O  O270  1  0.13175007  0.99291754  0.73994670  1
  O  O271  1  0.63503443  0.49400595  0.25442142  1
  O  O272  1  0.64491163  0.50569129  0.75209060  1
  O  O273  1  0.63127283  0.99104439  0.24397063  1
  O  O274  1  0.62765348  0.99226388  0.73272122  1
  O  O275  1  0.36767359  0.01424863  0.24734614  1
  O  O276  1  0.36209528  -0.01147368  0.75687140  1
  O  O277  1  0.37024257  0.51275069  0.25363210  1
  O  O278  1  0.37079612  0.50983606  0.75971793  1
  O  O279  1  0.86437394  0.00630515  0.25993055  1
  O  O280  1  0.86539565  0.00801130  0.74194594  1
  O  O281  1  0.86823422  0.50303324  0.26175298  1
  O  O282  1  0.86822032  0.50770069  0.75386700  1
  O  O283  1  0.11224349  0.37199899  0.37999145  1
  O  O284  1  0.11280483  0.37856864  0.87684238  1
  O  O285  1  0.11917876  0.86854344  0.36788915  1
  O  O286  1  0.11520204  0.86827168  0.86948337  1
  O  O287  1  0.61903511  0.37518251  0.35880718  1
  O  O288  1  0.62428653  0.36797301  0.87005545  1
  O  O289  1  0.61617583  0.86984298  0.37055177  1
  O  O290  1  0.62893749  0.86317168  0.87338330  1
  O  O291  1  0.38217579  0.13175332  0.12607377  1
  O  O292  1  0.39003337  0.11198228  0.62930035  1
  O  O293  1  0.38048654  0.63196373  0.13172523  1
  O  O294  1  0.37661575  0.63446458  0.63988415  1
  O  O295  1  0.87384165  0.13501880  0.13273524  1
  O  O296  1  0.87424825  0.13311750  0.62814310  1
  O  O297  1  0.88546872  0.62960393  0.13464199  1
  O  O298  1  0.88439576  0.62581528  0.63201182  1
  O  O299  1  0.25707331  0.25871754  0.10989608  1
  O  O300  1  0.25827577  0.24738534  0.69195449  1
  O  O301  1  0.25709358  0.75749997  0.11973321  1
  O  O302  1  0.25782485  0.74339148  0.61612677  1
  O  O303  1  0.76079637  0.26013180  0.12076482  1
  O  O304  1  0.76204996  0.24719672  0.62764751  1
  O  O305  1  0.76229678  0.74045141  0.11984885  1
  O  O306  1  0.74504880  0.76158273  0.62692231  1
  O  O307  1  0.25075139  0.25574003  0.37213168  1
  O  O308  1  0.25300359  0.23788531  0.88263288  1
  O  O309  1  0.24425282  0.74099949  0.37812261  1
  O  O310  1  0.24284855  0.74672777  0.88318268  1
  O  O311  1  0.75607837  0.23748667  0.36907880  1
  O  O312  1  0.74564854  0.25985286  0.88480791  1
  O  O313  1  0.73662836  0.74505518  0.37002728  1
  O  O314  1  0.74681264  0.74489066  0.88274461  1
  O  O315  1  0.01497717  0.13425136  -0.00406646  1
  O  O316  1  0.01745871  0.12834190  0.49953006  1
  O  O317  1  0.00813267  0.62053514  0.00919089  1
  O  O318  1  -0.00457210  0.61570095  0.51353280  1
  O  O319  1  0.50082258  0.11150534  0.00668773  1
  O  O320  1  0.50723558  0.11807230  0.50819619  1
  O  O321  1  0.51163162  0.62591367  0.00854598  1
  O  O322  1  0.51014073  0.61719731  0.49986273  1
  O  O323  1  0.47394399  0.37878568  0.50296875  1
  O  O324  1  0.50926701  0.38245914  0.98674003  1
  O  O325  1  0.49666294  0.88111392  0.49408039  1
  O  O326  1  0.49664714  0.88652583  1.00051931  1
  O  O327  1  0.98651774  0.38276319  0.49203529  1
  O  O328  1  0.99809031  0.37989545  0.99478479  1
  O  O329  1  0.99982931  0.87139573  0.48556899  1
  O  O330  1  1.00247888  0.87172419  0.98570198  1
  O  O331  1  0.49181184  0.49483092  0.38609366  1
  O  O332  1  0.49340684  0.49552404  0.87485860  1
  O  O333  1  0.49939306  0.99158472  0.38924027  1
  O  O334  1  0.49544286  1.00090521  0.88129273  1
  O  O335  1  0.99156889  0.49394033  0.38075028  1
  O  O336  1  0.99559686  0.49496704  0.87950316  1
  O  O337  1  0.98888063  0.99112557  0.36763129  1
  O  O338  1  0.99844630  0.99095061  0.87812395  1
  O  O339  1  -0.00339050  0.00478161  0.12543848  1
  O  O340  1  0.01083737  0.00007861  0.62685894  1
  O  O341  1  -0.00469702  0.51167301  0.12090668  1
  O  O342  1  -0.00168051  0.50881889  0.61551537  1
  O  O343  1  0.50953510  0.00745763  0.12012172  1
  O  O344  1  0.50676203  0.00304791  0.61499241  1
  O  O345  1  0.49273213  0.51511542  0.12191996  1
  O  O346  1  0.49476204  0.50462989  0.61321093  1
  O  O347  1  0.24814985  0.37448688  0.22746866  1
  O  O348  1  0.25157671  0.39603951  0.76319511  1
  O  O349  1  0.24510665  0.88084641  0.24498683  1
  O  O350  1  0.23582941  0.88523256  0.75706971  1
  O  O351  1  0.74157262  0.38172011  0.24553247  1
  O  O352  1  0.75434980  0.39306966  0.75599718  1
  O  O353  1  0.74083479  0.88822272  0.25936506  1
  O  O354  1  0.74606435  0.87873273  0.73802186  1
  O  O355  1  0.25428975  0.11993015  0.24708338  1
  O  O356  1  0.24903330  0.10330505  0.75918108  1
  O  O357  1  0.25912429  0.62648882  0.25467623  1
  O  O358  1  0.25905366  0.62107360  0.75877603  1
  O  O359  1  0.75316256  0.11713253  0.25800504  1
  O  O360  1  0.75962120  0.11485653  0.74696871  1
  O  O361  1  0.75332462  0.61770594  0.25672973  1
  O  O362  1  0.76035174  0.61792517  0.75716428  1
  O  O363  1  0.36893827  0.12281600  0.36400476  1
  O  O364  1  0.36048663  0.10470187  0.88427460  1
  O  O365  1  0.37116982  0.62271593  0.36600222  1
  O  O366  1  0.37344263  0.62293446  0.86626988  1
  O  O367  1  0.86791777  0.11956107  0.37393313  1
  O  O368  1  0.85932242  0.13053385  0.86727858  1
  O  O369  1  0.87115043  0.61775952  0.37079928  1
  O  O370  1  0.87638693  0.62051851  0.86721305  1
  O  O371  1  0.13880371  0.37068596  0.11692133  1
  O  O372  1  0.11413222  0.38423789  0.62548183  1
  O  O373  1  0.13048853  0.87283243  0.13268183  1
  O  O374  1  0.11840186  0.88236792  0.63310539  1
  O  O375  1  0.63838638  0.37262434  0.13492949  1
  O  O376  1  0.61847450  0.38159288  0.63066111  1
  O  O377  1  0.61857087  0.88243914  0.13778649  1
  O  O378  1  0.63309008  0.87916760  0.62614275  1
  O  O379  1  0.11241924  0.25364387  0.24003720  1
  O  O380  1  0.10489160  0.24334952  0.74351460  1
  O  O381  1  0.12184925  0.75661329  0.25951818  1
  O  O382  1  0.13169934  0.75968524  0.76048319  1
  O  O383  1  0.62606868  0.25927539  0.24652908  1
  O  O384  1  0.62588643  0.24776922  0.76039505  1
  O  O385  1  0.62357646  0.76047682  0.25720410  1
  O  O386  1  0.62357344  0.75265141  0.75940283  1
  O  O387  1  0.37060610  0.23761608  0.23031569  1
  O  O388  1  0.39890340  0.23168091  0.79254362  1
  O  O389  1  0.37788895  0.74105499  0.24537404  1
  O  O390  1  0.37832655  0.74602339  0.74840304  1
  O  O391  1  0.88065339  0.24693518  0.24128128  1
  O  O392  1  0.87497304  0.24354730  0.73939191  1
  O  O393  1  0.87984278  0.74169467  0.24826311  1
  O  O394  1  0.87060392  0.73639565  0.74422928  1
  O  O395  1  0.38130347  0.51144541  0.48877378  1
  O  O396  1  0.38114632  0.51090310  0.98128993  1
  O  O397  1  0.38070895  0.99759354  0.49707729  1
  O  O398  1  0.38232528  0.99368627  0.99596992  1
  O  O399  1  0.87782332  0.49557323  0.48899180  1
  O  O400  1  0.88426829  0.49843504  0.99477159  1
  O  O401  1  0.86902866  0.99751039  0.48851380  1
  O  O402  1  0.79935783  1.01234192  0.96984163  1
  O  O403  1  0.13255999  0.01535571  0.00271704  1
  O  O404  1  0.12898392  -0.01118919  0.51314922  1
  O  O405  1  0.12237664  0.51469647  -0.00616375  1
  O  O406  1  0.10946848  0.50025025  0.49712542  1
  O  O407  1  0.61970504  0.00036399  0.00949362  1
  O  O408  1  0.61677464  0.00285425  0.50760482  1
  O  O409  1  0.62770286  0.51504931  -0.00583789  1
  O  O410  1  0.61283362  0.50511029  0.49712630  1
  O  O411  1  0.37151662  0.36230323  0.12305052  1
  O  O412  1  0.37790458  0.36310177  0.63785666  1
  O  O413  1  0.37181374  0.87108652  0.12199420  1
  O  O414  1  0.37771740  0.86208687  0.62789246  1
  O  O415  1  0.86854488  0.37031617  0.12203122  1
  O  O416  1  0.87513193  0.36357763  0.61657826  1
  O  O417  1  0.87708358  0.85950988  0.13788405  1
  O  O418  1  0.86097550  0.87236081  0.62347411  1
  O  O419  1  0.12641430  0.12458660  0.39036330  1
  O  O420  1  0.13498655  0.11618150  0.88211608  1
  O  O421  1  0.13425944  0.63467771  0.37022451  1
  O  O422  1  0.12987415  0.63342467  0.88200713  1
  O  O423  1  0.62831220  0.12858717  0.38755397  1
  O  O424  1  0.64755337  0.12943994  0.88269906  1
  O  O425  1  0.62801491  0.63330092  0.37995706  1
  O  O426  1  0.63159603  0.63621216  0.88251029  1
