# generated using pymatgen
data_V85Zn86O256
_symmetry_space_group_name_H-M   'P 1'
_cell_length_a   16.95952103
_cell_length_b   16.95897310
_cell_length_c   16.96577083
_cell_angle_alpha   89.96078842
_cell_angle_beta   90.04176442
_cell_angle_gamma   90.07101144
_symmetry_Int_Tables_number   1
_chemical_formula_structural   V85Zn86O256
_chemical_formula_sum   'V85 Zn86 O256'
_cell_volume   4879.62199135
_cell_formula_units_Z   1
loop_
 _symmetry_equiv_pos_site_id
 _symmetry_equiv_pos_as_xyz
  1  'x, y, z'
loop_
 _atom_site_type_symbol
 _atom_site_label
 _atom_site_symmetry_multiplicity
 _atom_site_fract_x
 _atom_site_fract_y
 _atom_site_fract_z
 _atom_site_occupancy
  V  V0  1  0.38119526  0.12866237  0.74923631  1
  V  V1  1  0.49056378  0.74422545  0.25453653  1
  V  V2  1  0.74682272  0.87372412  0.61814521  1
  V  V3  1  0.00368208  0.26295306  0.24944051  1
  V  V4  1  0.24760231  0.74551535  -0.00315217  1
  V  V5  1  0.86910980  0.62181780  0.25343688  1
  V  V6  1  0.37412923  0.24615658  0.13146877  1
  V  V7  1  0.25536385  0.25808544  0.51366588  1
  V  V8  1  0.37227257  0.74733283  0.63357811  1
  V  V9  1  0.87801755  0.12245473  0.26073659  1
  V  V10  1  0.62653870  -0.00235847  0.12703275  1
  V  V11  1  -0.00276441  -0.00423586  -0.00578051  1
  V  V12  1  0.62482826  0.50021254  0.12788989  1
  V  V13  1  0.24639284  0.37413809  0.13408218  1
  V  V14  1  0.87598161  0.24875655  0.12599535  1
  V  V15  1  0.37393633  0.37462620  0.00084807  1
  V  V16  1  0.25260717  0.87334969  0.12650608  1
  V  V17  1  0.25649555  0.62451627  0.36612628  1
  V  V18  1  0.49536431  0.88341277  0.38268451  1
  V  V19  1  0.75507074  0.12045576  0.87457784  1
  V  V20  1  0.38369220  0.37819642  0.51091536  1
  V  V21  1  0.00319834  0.61857451  0.62085238  1
  V  V22  1  0.12251700  0.61560275  0.49543931  1
  V  V23  1  0.62285123  0.38188645  0.75132368  1
  V  V24  1  0.74974341  0.37600676  0.12510581  1
  V  V25  1  0.24799537  0.24925477  -0.00109741  1
  V  V26  1  0.62515754  0.73422512  0.37943132  1
  V  V27  1  0.88416418  0.37717789  -0.00065257  1
  V  V28  1  0.12206200  0.49672756  0.12605646  1
  V  V29  1  0.75229812  0.62480068  0.87633212  1
  V  V30  1  0.12150218  0.62293785  -0.00616346  1
  V  V31  1  0.62432138  0.87149863  0.25376166  1
  V  V32  1  0.50177344  0.24817858  0.73685226  1
  V  V33  1  0.50030356  0.50028938  0.00038368  1
  V  V34  1  0.49663311  0.37328073  0.87554683  1
  V  V35  1  0.62066973  0.87180501  0.74488731  1
  V  V36  1  0.75438641  -0.00162505  0.26314842  1
  V  V37  1  -0.00622247  0.00880412  0.49780651  1
  V  V38  1  0.87623732  0.74981983  0.62104136  1
  V  V39  1  -0.00009243  0.12452448  0.12727716  1
  V  V40  1  0.38118207  0.49961669  0.36995767  1
  V  V41  1  -0.01016482  0.88126066  0.37482246  1
  V  V42  1  0.44954578  0.05941480  0.56827408  1
  V  V43  1  0.49569316  0.12329394  0.13050426  1
  V  V44  1  0.37669387  -0.00244010  0.87492188  1
  V  V45  1  0.26476551  0.12746084  0.37129398  1
  V  V46  1  0.49138904  0.62138896  0.62034127  1
  V  V47  1  0.88365076  0.62577881  0.75044819  1
  V  V48  1  0.36688793  0.51370284  0.87174622  1
  V  V49  1  0.62290409  0.51113850  0.61067530  1
  V  V50  1  0.87680339  0.87821414  -0.01317050  1
  V  V51  1  0.00564480  0.36784034  0.86557827  1
  V  V52  1  0.24143666  -0.00483396  0.75215729  1
  V  V53  1  0.12108583  0.76691848  0.87024852  1
  V  V54  1  0.75125471  0.87542059  0.12644419  1
  V  V55  1  0.24175106  0.87316860  0.62747501  1
  V  V56  1  -0.00096869  0.75079250  0.25045516  1
  V  V57  1  0.25263680  0.75140934  0.49678596  1
  V  V58  1  0.25122765  0.12611646  0.87439923  1
  V  V59  1  0.74802039  0.50125137  0.75355899  1
  V  V60  1  0.13099009  0.25352070  0.36946599  1
  V  V61  1  0.75099502  0.75123064  -0.00011269  1
  V  V62  1  0.12431030  0.75088288  0.37492618  1
  V  V63  1  0.74974333  0.24916165  -0.00090863  1
  V  V64  1  -0.00114504  0.62092070  0.12050118  1
  V  V65  1  0.62524404  0.01002026  0.61864547  1
  V  V66  1  0.00197037  0.76775215  0.74926141  1
  V  V67  1  0.62523798  0.74833655  0.87510789  1
  V  V68  1  0.62814518  0.12759438  0.48958499  1
  V  V69  1  0.12569791  0.00209868  0.12888232  1
  V  V70  1  0.14298853  0.37289627  0.73632736  1
  V  V71  1  0.49947328  0.87204992  0.87706497  1
  V  V72  1  0.12523886  0.87780369  0.25304291  1
  V  V73  1  0.75433317  0.00036508  0.75179661  1
  V  V74  1  0.49941867  -0.00233101  0.00135891  1
  V  V75  1  0.26384034  0.00485029  0.25543780  1
  V  V76  1  0.00594575  0.38397956  0.39016427  1
  V  V77  1  0.50723440  0.37487808  0.38032701  1
  V  V78  1  0.88892932  0.50157796  0.87823574  1
  V  V79  1  0.49094587  0.62194564  0.13004502  1
  V  V80  1  0.50732956  0.25053324  0.25354755  1
  V  V81  1  0.87500298  0.75028566  0.12471851  1
  V  V82  1  0.87305594  0.49812168  0.38612792  1
  V  V83  1  0.74738497  0.73396899  0.49731147  1
  V  V84  1  0.62479841  0.12456481  0.00003929  1
  Zn  Zn85  1  0.76333811  0.37888864  0.61656878  1
  Zn  Zn86  1  0.12427548  0.12349992  0.00045499  1
  Zn  Zn87  1  0.62300134  0.25016292  0.87418323  1
  Zn  Zn88  1  0.25187147  0.50196045  0.24789464  1
  Zn  Zn89  1  0.76184814  0.27720268  0.48442775  1
  Zn  Zn90  1  0.11548361  0.24100477  0.86850222  1
  Zn  Zn91  1  0.37490819  0.88433943  0.49966651  1
  Zn  Zn92  1  0.89135923  0.25767902  0.62467266  1
  Zn  Zn93  1  0.36960777  0.74200876  0.12829000  1
  Zn  Zn94  1  0.88665823  0.13344178  0.75296032  1
  Zn  Zn95  1  0.12043248  -0.00347710  0.62422242  1
  Zn  Zn96  1  0.48997650  0.74171920  0.75523654  1
  Zn  Zn97  1  0.12515147  0.12701571  0.49997010  1
  Zn  Zn98  1  0.37543727  0.87031753  0.00162926  1
  Zn  Zn99  1  0.00788417  0.13075844  0.64186447  1
  Zn  Zn100  1  0.63329042  0.36872910  0.25740776  1
  Zn  Zn101  1  0.25924118  0.51418159  0.73710879  1
  Zn  Zn102  1  0.13094919  0.49364808  0.61647155  1
  Zn  Zn103  1  0.75092798  0.50271653  0.25210018  1
  Zn  Zn104  1  0.86941037  0.87975549  0.49385195  1
  Zn  Zn105  1  0.74924812  0.13779248  0.37482937  1
  Zn  Zn106  1  0.62530527  0.62617451  0.00236827  1
  Zn  Zn107  1  0.18759994  0.18680156  0.19100085  1
  Zn  Zn108  1  0.17925552  0.18667896  0.68877331  1
  Zn  Zn109  1  0.18359017  0.68682947  0.18629575  1
  Zn  Zn110  1  0.18974579  0.68528918  0.68569980  1
  Zn  Zn111  1  0.69001209  0.18497700  0.18928850  1
  Zn  Zn112  1  0.71896620  0.20598698  0.69651546  1
  Zn  Zn113  1  0.68327938  0.68663135  0.18914765  1
  Zn  Zn114  1  0.68778925  0.68562878  0.68759873  1
  Zn  Zn115  1  0.32084837  0.31312005  0.31402374  1
  Zn  Zn116  1  0.31479840  0.31159121  0.80953074  1
  Zn  Zn117  1  0.31435293  0.81534160  0.31340611  1
  Zn  Zn118  1  0.30712204  0.80993865  0.81513214  1
  Zn  Zn119  1  0.81801701  0.31500651  0.31574545  1
  Zn  Zn120  1  0.81466924  0.31395788  0.80886897  1
  Zn  Zn121  1  0.80911599  0.80684588  0.31349711  1
  Zn  Zn122  1  0.81198804  0.81291810  0.80681311  1
  Zn  Zn123  1  0.19280245  0.43487435  0.43430156  1
  Zn  Zn124  1  0.18572274  0.43822516  0.94172822  1
  Zn  Zn125  1  0.18466680  0.94050892  0.43842663  1
  Zn  Zn126  1  0.18840399  0.93893547  0.94291782  1
  Zn  Zn127  1  0.68827620  0.44560186  0.43494746  1
  Zn  Zn128  1  0.68878440  0.43885646  0.93897442  1
  Zn  Zn129  1  0.67966351  0.93457795  0.43877440  1
  Zn  Zn130  1  0.68741391  0.93610539  0.93700938  1
  Zn  Zn131  1  0.31398778  0.06093160  0.06282938  1
  Zn  Zn132  1  0.28761519  0.07021587  0.56678836  1
  Zn  Zn133  1  0.30928710  0.56054621  0.05796316  1
  Zn  Zn134  1  0.31177708  0.55916635  0.55443088  1
  Zn  Zn135  1  0.81414546  0.06039345  0.06616445  1
  Zn  Zn136  1  0.82125276  0.07998970  0.55755372  1
  Zn  Zn137  1  0.81325315  0.56167177  0.06087556  1
  Zn  Zn138  1  0.81350829  0.55472057  0.56499020  1
  Zn  Zn139  1  0.43671529  0.43392765  0.19215818  1
  Zn  Zn140  1  0.43983874  0.44381462  0.69041499  1
  Zn  Zn141  1  0.43854226  0.93244854  0.19117635  1
  Zn  Zn142  1  0.42807035  0.92715072  0.69427856  1
  Zn  Zn143  1  0.93737507  0.44077301  0.18621435  1
  Zn  Zn144  1  0.94386416  0.43910718  0.68872771  1
  Zn  Zn145  1  0.93611350  0.93799855  0.18589263  1
  Zn  Zn146  1  0.93047080  0.94520244  0.67826168  1
  Zn  Zn147  1  0.06586681  0.06684313  0.31655652  1
  Zn  Zn148  1  0.06248740  0.05740951  0.81551472  1
  Zn  Zn149  1  0.06303571  0.56225054  0.30706728  1
  Zn  Zn150  1  0.09770127  0.58138082  0.79140523  1
  Zn  Zn151  1  0.55923673  0.05924007  0.30910387  1
  Zn  Zn152  1  0.56658619  0.06108349  0.81011758  1
  Zn  Zn153  1  0.56067299  0.55739517  0.31090736  1
  Zn  Zn154  1  0.55513493  0.56726783  0.81111776  1
  Zn  Zn155  1  0.43958640  0.19697378  0.44014586  1
  Zn  Zn156  1  0.43747653  0.18888511  0.93804557  1
  Zn  Zn157  1  0.43743383  0.68493246  0.44206841  1
  Zn  Zn158  1  0.43762202  0.68718676  0.94407338  1
  Zn  Zn159  1  0.93683407  0.19779205  0.44170336  1
  Zn  Zn160  1  0.93639843  0.18439500  0.93852717  1
  Zn  Zn161  1  0.93579307  0.68681171  0.43690659  1
  Zn  Zn162  1  0.94255643  0.69295227  0.93543230  1
  Zn  Zn163  1  0.06419732  0.31205193  0.06008868  1
  Zn  Zn164  1  0.06677158  0.30767533  0.56028007  1
  Zn  Zn165  1  0.06269918  0.81306342  0.06264894  1
  Zn  Zn166  1  0.06067387  0.81146986  0.55779274  1
  Zn  Zn167  1  0.56316190  0.31180654  0.06466538  1
  Zn  Zn168  1  0.59973936  0.29836314  0.58011823  1
  Zn  Zn169  1  0.56183213  0.80843474  0.06538914  1
  Zn  Zn170  1  0.55879960  0.80568457  0.55992555  1
  O  O171  1  0.12051307  0.11700549  0.12479275  1
  O  O172  1  0.12695050  0.11608979  0.61856784  1
  O  O173  1  0.11588329  0.62189070  0.11696062  1
  O  O174  1  0.11678074  0.63165054  0.60913418  1
  O  O175  1  0.61991550  0.11878056  0.11594935  1
  O  O176  1  0.62265268  0.11010206  0.61575566  1
  O  O177  1  0.61657629  0.61594396  0.12411194  1
  O  O178  1  0.61832560  0.61502739  0.62936168  1
  O  O179  1  0.38566727  0.38151780  0.37937223  1
  O  O180  1  0.38479917  0.37682389  0.88139884  1
  O  O181  1  0.38987672  0.86922273  0.37967503  1
  O  O182  1  0.38394244  0.87747316  0.87599733  1
  O  O183  1  0.89250231  0.38898200  0.36911723  1
  O  O184  1  0.88208980  0.37823176  0.87943838  1
  O  O185  1  0.88678448  0.87011513  0.37180543  1
  O  O186  1  0.86793768  0.87200956  0.88787611  1
  O  O187  1  0.24576599  0.01713880  0.36957063  1
  O  O188  1  0.25692826  0.00447361  0.87187308  1
  O  O189  1  0.25642663  0.50825972  0.36993420  1
  O  O190  1  0.26724755  0.49530401  0.88320874  1
  O  O191  1  0.74694393  -0.00393204  0.36426882  1
  O  O192  1  0.73976394  0.00696173  0.86496888  1
  O  O193  1  0.76909782  0.49854207  0.36898997  1
  O  O194  1  0.75796331  0.50669330  0.87100305  1
  O  O195  1  0.24572383  0.49006477  0.12537419  1
  O  O196  1  0.24284230  0.51015131  0.62468799  1
  O  O197  1  0.24415768  0.99501435  0.13152553  1
  O  O198  1  0.24841349  0.98997668  0.63514432  1
  O  O199  1  0.74232185  0.49269014  0.12348229  1
  O  O200  1  0.73670908  0.50397258  0.63604027  1
  O  O201  1  0.74380050  0.99258547  0.13207978  1
  O  O202  1  0.73680285  0.99264103  0.62970173  1
  O  O203  1  -0.00115305  0.36429102  0.24702627  1
  O  O204  1  0.00537100  0.37093541  0.76483416  1
  O  O205  1  0.00535817  0.87275715  0.25577176  1
  O  O206  1  -0.00923459  0.86631283  0.74034091  1
  O  O207  1  0.50470406  0.36573857  0.25673711  1
  O  O208  1  0.50236243  0.37060955  0.75921792  1
  O  O209  1  0.50538966  0.86379457  0.25711674  1
  O  O210  1  0.50561697  0.86771305  0.75770978  1
  O  O211  1  0.50483427  0.13022342  0.23701661  1
  O  O212  1  0.49418892  0.13464761  0.75777194  1
  O  O213  1  0.50448027  0.63245879  0.24213357  1
  O  O214  1  0.50347228  0.63056913  0.73233285  1
  O  O215  1  0.99433154  0.13062064  0.24532042  1
  O  O216  1  0.99937703  0.12397158  0.75822909  1
  O  O217  1  0.99287724  0.63104775  0.23850102  1
  O  O218  1  1.00121538  0.63570312  0.73959970  1
  O  O219  1  0.36684654  0.25352357  0.00942709  1
  O  O220  1  0.36421365  0.26249352  0.49761364  1
  O  O221  1  0.36280367  0.75065129  0.00438215  1
  O  O222  1  0.36120484  0.74871132  0.50800725  1
  O  O223  1  0.86856075  0.25619317  0.00662881  1
  O  O224  1  0.86197386  0.23212197  0.51354183  1
  O  O225  1  0.87041472  0.75755938  0.00539491  1
  O  O226  1  0.86508846  0.75364966  0.50295535  1
  O  O227  1  0.14289144  0.25413136  0.48811941  1
  O  O228  1  0.13874939  0.24562015  0.99857103  1
  O  O229  1  0.13577093  0.74646769  0.49151909  1
  O  O230  1  0.12816474  0.74695529  0.99351899  1
  O  O231  1  0.61087327  0.22592712  0.48996838  1
  O  O232  1  0.63057451  0.24017602  1.00155596  1
  O  O233  1  0.63085270  0.75113040  0.48650492  1
  O  O234  1  0.63305592  0.75113961  0.99241784  1
  O  O235  1  0.49253679  0.24199012  0.12741715  1
  O  O236  1  0.50783733  0.25496855  0.63828496  1
  O  O237  1  0.49890777  0.73963494  0.13473956  1
  O  O238  1  0.48784827  0.74566031  0.62912118  1
  O  O239  1  0.99773189  0.24446445  0.13071297  1
  O  O240  1  1.00533910  0.24299659  0.62180940  1
  O  O241  1  0.99443916  0.74540379  0.13217346  1
  O  O242  1  0.99397424  0.74638621  0.62928348  1
  O  O243  1  0.00645848  0.26350709  0.36949121  1
  O  O244  1  -0.00048433  0.26280986  0.88270794  1
  O  O245  1  0.00496258  0.75774703  0.36889678  1
  O  O246  1  0.00977338  0.75452764  0.86501196  1
  O  O247  1  0.49451460  0.25889169  0.36246701  1
  O  O248  1  0.50200888  0.26002763  0.87229792  1
  O  O249  1  0.50824403  0.75092407  0.37073024  1
  O  O250  1  0.50615522  0.75396055  0.87594276  1
  O  O251  1  0.25016080  0.14031758  0.48691368  1
  O  O252  1  0.25256753  0.13117885  0.99233225  1
  O  O253  1  0.24182823  0.63399872  0.48658428  1
  O  O254  1  0.23788406  0.63837617  1.00805883  1
  O  O255  1  0.73366827  0.11709503  0.49461595  1
  O  O256  1  0.74269402  0.12583231  0.99595283  1
  O  O257  1  0.75340779  0.63533313  0.50648153  1
  O  O258  1  0.74903725  0.63283580  0.99384075  1
  O  O259  1  0.25516599  0.36521615  0.00721773  1
  O  O260  1  0.26290015  0.36396371  0.49486636  1
  O  O261  1  0.24981072  0.86593739  0.01074844  1
  O  O262  1  0.25343628  0.86888370  0.50392160  1
  O  O263  1  0.75661788  0.36952622  0.00797422  1
  O  O264  1  0.75084834  0.38875335  0.50416918  1
  O  O265  1  0.75594729  0.87165923  0.00682973  1
  O  O266  1  0.74702718  0.86984949  0.50885546  1
  O  O267  1  0.13137579  0.50788748  0.23121246  1
  O  O268  1  0.11933648  0.47460236  0.75113392  1
  O  O269  1  0.13195886  0.99780474  0.24221319  1
  O  O270  1  0.13928827  0.99797486  0.75179862  1
  O  O271  1  0.63001314  0.49665705  0.23816813  1
  O  O272  1  0.63389200  0.49988526  0.75605574  1
  O  O273  1  0.63272923  0.99232517  0.24406333  1
  O  O274  1  0.62533277  0.98705091  0.73864401  1
  O  O275  1  0.36255357  -0.00255055  0.24685820  1
  O  O276  1  0.37077058  0.00957034  0.75706956  1
  O  O277  1  0.37075508  0.49525547  0.26336081  1
  O  O278  1  0.37379841  0.49884377  0.76700123  1
  O  O279  1  0.86563121  0.00973563  0.24292571  1
  O  O280  1  0.85579433  -0.00028702  0.74806192  1
  O  O281  1  0.87480876  0.50896084  0.25328310  1
  O  O282  1  0.86959963  0.50784233  0.75980758  1
  O  O283  1  0.11617847  0.36836484  0.37338284  1
  O  O284  1  0.11107572  0.37343812  0.88070272  1
  O  O285  1  0.11883248  0.86907671  0.36906145  1
  O  O286  1  0.12409904  0.86501915  0.88188420  1
  O  O287  1  0.61154282  0.38592159  0.37295624  1
  O  O288  1  0.61271999  0.38007903  0.86926670  1
  O  O289  1  0.61300073  0.86658947  0.37024075  1
  O  O290  1  0.61876232  0.86813044  0.86758887  1
  O  O291  1  0.38498640  0.13270660  0.11950835  1
  O  O292  1  0.38529149  0.11508728  0.62846428  1
  O  O293  1  0.38686263  0.62141626  0.12174616  1
  O  O294  1  0.38346979  0.63036751  0.61937953  1
  O  O295  1  0.88060402  0.13163233  0.13222529  1
  O  O296  1  0.88597415  0.12044234  0.63608048  1
  O  O297  1  0.88154964  0.62983813  0.12830334  1
  O  O298  1  0.88377753  0.62898986  0.62989001  1
  O  O299  1  0.25616159  0.25236879  0.12020501  1
  O  O300  1  0.25055267  0.24492692  0.61093870  1
  O  O301  1  0.24843659  0.75805557  0.12055585  1
  O  O302  1  0.25298969  0.75364289  0.61786639  1
  O  O303  1  0.75521091  0.25619919  0.11974062  1
  O  O304  1  0.71024205  0.27144394  0.60611795  1
  O  O305  1  0.75317472  0.75534620  0.11997393  1
  O  O306  1  0.75273775  0.75591205  0.61824169  1
  O  O307  1  0.24669459  0.24354343  0.37046280  1
  O  O308  1  0.25484287  0.24128349  0.88399434  1
  O  O309  1  0.24688743  0.74655166  0.38018576  1
  O  O310  1  0.23471689  0.75393829  0.88482408  1
  O  O311  1  0.74786721  0.25164911  0.37271096  1
  O  O312  1  0.74334838  0.24194147  0.88463725  1
  O  O313  1  0.73475554  0.75226174  0.38227741  1
  O  O314  1  0.74532467  0.74484637  0.87840611  1
  O  O315  1  0.00009411  0.11648189  0.00934469  1
  O  O316  1  0.00359281  0.11195799  0.48715562  1
  O  O317  1  0.00421957  0.63318767  0.01380740  1
  O  O318  1  0.01104827  0.63498708  0.50744982  1
  O  O319  1  0.50656695  0.12012405  0.00895807  1
  O  O320  1  0.50198267  0.11725363  0.50070382  1
  O  O321  1  0.50419859  0.61767822  0.01025310  1
  O  O322  1  0.50543800  0.63687965  0.52084568  1
  O  O323  1  0.48805968  0.36414714  0.49136837  1
  O  O324  1  0.49552310  0.37964187  0.99522424  1
  O  O325  1  0.49725258  0.87163175  0.48704041  1
  O  O326  1  0.49962671  0.87940717  0.99599703  1
  O  O327  1  1.00730837  0.37970599  0.48794727  1
  O  O328  1  0.98747744  0.37230964  0.99511999  1
  O  O329  1  0.99701592  0.88230307  0.48920510  1
  O  O330  1  0.98743883  0.88307874  1.01168476  1
  O  O331  1  0.49224647  0.49105177  0.37252210  1
  O  O332  1  0.49151794  0.49374962  0.88105880  1
  O  O333  1  0.49981374  0.98158389  0.36819043  1
  O  O334  1  0.49750267  0.99220752  0.88047467  1
  O  O335  1  0.99870209  0.48788040  0.36726616  1
  O  O336  1  0.98922316  0.48627525  0.87497278  1
  O  O337  1  1.00568631  0.99051444  0.38193918  1
  O  O338  1  1.01028473  0.99619653  0.89610643  1
  O  O339  1  0.00949453  0.00564914  0.12430864  1
  O  O340  1  0.00266337  -0.00143246  0.60805385  1
  O  O341  1  0.00739293  0.50948624  0.12535005  1
  O  O342  1  0.00872934  0.51494483  0.62916327  1
  O  O343  1  0.50431627  0.00501245  0.12303470  1
  O  O344  1  0.50533998  -0.00503054  0.62831825  1
  O  O345  1  0.50583831  0.50316776  0.12328920  1
  O  O346  1  0.50803100  0.51379578  0.62681799  1
  O  O347  1  0.25347406  0.37131455  0.23593427  1
  O  O348  1  0.24433393  0.38201069  0.75278343  1
  O  O349  1  0.24476045  0.88227923  0.24664332  1
  O  O350  1  0.25821112  0.88441579  0.74114964  1
  O  O351  1  0.75312148  0.37632552  0.23466917  1
  O  O352  1  0.73890624  0.39127666  0.75683375  1
  O  O353  1  0.74551979  0.87962010  0.24627815  1
  O  O354  1  0.74054448  0.88005250  0.73970572  1
  O  O355  1  0.25022554  0.11928017  0.26168541  1
  O  O356  1  0.25867521  0.11896153  0.75733800  1
  O  O357  1  0.24808264  0.62990167  0.26275517  1
  O  O358  1  0.20695628  0.61181487  0.76488663  1
  O  O359  1  0.75781142  0.11533282  0.25188117  1
  O  O360  1  0.72798432  0.11147858  0.76338520  1
  O  O361  1  0.76556147  0.62592395  0.24302177  1
  O  O362  1  0.75875984  0.61806304  0.75634757  1
  O  O363  1  0.36313585  0.13185789  0.37616893  1
  O  O364  1  0.36877015  0.11964942  0.86913645  1
  O  O365  1  0.36793150  0.61446617  0.38282887  1
  O  O366  1  0.37768416  0.61234909  0.88057255  1
  O  O367  1  0.87615478  0.12874625  0.36205960  1
  O  O368  1  0.85823920  0.12735314  0.87442176  1
  O  O369  1  0.88824297  0.61073721  0.36344853  1
  O  O370  1  0.87506833  0.61865639  0.87220594  1
  O  O371  1  0.13378177  0.38446726  0.11598367  1
  O  O372  1  0.12927791  0.37399111  0.63390858  1
  O  O373  1  0.13508159  0.88134913  0.13195696  1
  O  O374  1  0.13846379  0.87288163  0.62001874  1
  O  O375  1  0.63425981  0.38189418  0.12450506  1
  O  O376  1  0.61313131  0.39941504  0.64340646  1
  O  O377  1  0.63076754  0.87668446  0.13346511  1
  O  O378  1  0.62756287  0.87621005  0.62962218  1
  O  O379  1  0.11547879  0.24683666  0.25694564  1
  O  O380  1  0.13603854  0.26713334  0.75758930  1
  O  O381  1  0.11824712  0.75674197  0.25505873  1
  O  O382  1  0.11798928  0.75472705  0.76384072  1
  O  O383  1  0.61179391  0.25106919  0.23992213  1
  O  O384  1  0.62014239  0.26540850  0.75504795  1
  O  O385  1  0.61883460  0.75328668  0.26118302  1
  O  O386  1  0.62800195  0.76114653  0.75576556  1
  O  O387  1  0.38574421  0.25358222  0.23572041  1
  O  O388  1  0.38287749  0.23636752  0.75215565  1
  O  O389  1  0.38725805  0.75157714  0.24871622  1
  O  O390  1  0.36807657  0.74910685  0.73781717  1
  O  O391  1  0.88470937  0.24318643  0.24317444  1
  O  O392  1  0.82981910  0.23442819  0.73338860  1
  O  O393  1  0.88001471  0.74270722  0.24556016  1
  O  O394  1  0.88148435  0.74384715  0.74342411  1
  O  O395  1  0.37105300  0.48440017  0.48662596  1
  O  O396  1  0.38157046  0.49330302  0.99375436  1
  O  O397  1  0.38080708  1.00621042  0.51546795  1
  O  O398  1  0.38221825  0.99566761  0.99363323  1
  O  O399  1  0.88035584  0.50881091  0.48423212  1
  O  O400  1  0.86814740  0.48873180  0.99002982  1
  O  O401  1  0.88856046  0.99809759  0.49837617  1
  O  O402  1  0.88426106  0.99022156  1.00736859  1
  O  O403  1  0.12085448  -0.00027087  0.01594853  1
  O  O404  1  0.11279019  0.00236539  0.50019141  1
  O  O405  1  0.13074102  0.51312177  0.01078153  1
  O  O406  1  0.12835720  0.51284118  0.49348416  1
  O  O407  1  0.61948641  0.00436203  0.00750947  1
  O  O408  1  0.62059662  0.00036119  0.51417484  1
  O  O409  1  0.61889299  0.50002217  0.01115243  1
  O  O410  1  0.62532690  0.50697424  0.51310139  1
  O  O411  1  0.36904424  0.36722924  0.11865275  1
  O  O412  1  0.38440888  0.38366182  0.60963470  1
  O  O413  1  0.36189960  0.87279667  0.12560604  1
  O  O414  1  0.36454194  0.86441715  0.62014882  1
  O  O415  1  0.86988934  0.37168181  0.11647737  1
  O  O416  1  0.87202931  0.37140534  0.64259328  1
  O  O417  1  0.86636076  0.86714979  0.12290816  1
  O  O418  1  0.86111175  0.86867085  0.62097876  1
  O  O419  1  0.13274031  0.14122997  0.37638473  1
  O  O420  1  0.14044645  0.12421245  0.87929689  1
  O  O421  1  0.12883109  0.63269020  0.37745224  1
  O  O422  1  0.10949810  0.63749110  0.89304696  1
  O  O423  1  0.62454169  0.10911537  0.38781926  1
  O  O424  1  0.62680277  0.12360013  0.89028560  1
  O  O425  1  0.62305294  0.63571890  0.37054685  1
  O  O426  1  0.62971146  0.63464538  0.87662218  1
