# generated using pymatgen
data_V85Zn86O256
_symmetry_space_group_name_H-M   'P 1'
_cell_length_a   16.92449379
_cell_length_b   16.92138629
_cell_length_c   16.92682687
_cell_angle_alpha   90.04131823
_cell_angle_beta   89.96692448
_cell_angle_gamma   89.94393974
_symmetry_Int_Tables_number   1
_chemical_formula_structural   V85Zn86O256
_chemical_formula_sum   'V85 Zn86 O256'
_cell_volume   4847.60010748
_cell_formula_units_Z   1
loop_
 _symmetry_equiv_pos_site_id
 _symmetry_equiv_pos_as_xyz
  1  'x, y, z'
loop_
 _atom_site_type_symbol
 _atom_site_label
 _atom_site_symmetry_multiplicity
 _atom_site_fract_x
 _atom_site_fract_y
 _atom_site_fract_z
 _atom_site_occupancy
  V  V0  1  0.01060331  0.87441153  0.36841405  1
  V  V1  1  0.62766136  0.74930923  0.37819801  1
  V  V2  1  0.00585657  0.75222111  0.74996067  1
  V  V3  1  -0.00357900  0.38104302  0.87095394  1
  V  V4  1  -0.00787193  0.61854750  0.11291321  1
  V  V5  1  0.62193663  0.24885229  0.87673258  1
  V  V6  1  0.62710408  0.87456510  0.25017824  1
  V  V7  1  0.36671358  0.87107578  0.00158634  1
  V  V8  1  0.75671798  0.37040386  0.62820886  1
  V  V9  1  0.37253461  0.12359849  0.24053711  1
  V  V10  1  0.63034230  0.62938387  0.50312142  1
  V  V11  1  0.75465015  0.49753650  0.75330727  1
  V  V12  1  0.13525429  0.75195287  0.87630296  1
  V  V13  1  0.49853131  0.24640990  0.24313366  1
  V  V14  1  0.50124452  0.62634232  0.62904309  1
  V  V15  1  0.87667958  0.87977158  0.00589590  1
  V  V16  1  0.24879182  0.25080289  0.00762470  1
  V  V17  1  0.75053137  0.12559864  0.37358297  1
  V  V18  1  0.49972775  0.25285837  0.75403424  1
  V  V19  1  0.75468537  0.62963972  0.38004602  1
  V  V20  1  0.75839806  -0.00230286  0.75856501  1
  V  V21  1  0.12718929  0.37348841  0.24769271  1
  V  V22  1  0.24459739  0.12329045  0.88177597  1
  V  V23  1  0.00921595  0.37403503  0.37104300  1
  V  V24  1  0.62430788  0.12437628  0.00560825  1
  V  V25  1  0.88472048  0.37640651  0.50342933  1
  V  V26  1  -0.00013457  0.75518383  0.23596786  1
  V  V27  1  0.49827262  0.00351469  0.00490661  1
  V  V28  1  0.37513186  0.37403281  0.00117572  1
  V  V29  1  0.25135789  0.50744959  0.75658115  1
  V  V30  1  0.24862759  0.23581726  0.49507697  1
  V  V31  1  0.12300562  0.24477187  0.87427932  1
  V  V32  1  0.75253580  0.87116580  0.62220157  1
  V  V33  1  0.12716589  0.37541165  0.74810111  1
  V  V34  1  0.75550760  0.25040341  0.50325075  1
  V  V35  1  0.87812826  0.62254478  0.75174490  1
  V  V36  1  -0.00278967  0.24676262  0.73324179  1
  V  V37  1  0.87573273  0.74695638  0.61832528  1
  V  V38  1  0.37253177  0.75070555  0.62658254  1
  V  V39  1  0.75250545  0.25080811  0.00216708  1
  V  V40  1  0.50155113  0.49431542  -0.00884576  1
  V  V41  1  0.12963439  0.49785162  0.11896500  1
  V  V42  1  0.75460009  0.62314690  0.87827441  1
  V  V43  1  0.24723229  0.50543849  0.25107565  1
  V  V44  1  0.49750650  0.74688666  0.24970402  1
  V  V45  1  0.37058765  0.87503484  0.50044355  1
  V  V46  1  0.37074148  0.37263776  0.49846606  1
  V  V47  1  0.88101628  0.12276313  0.74149901  1
  V  V48  1  0.62231322  0.25217450  0.37667728  1
  V  V49  1  0.74927765  0.37011364  0.12605633  1
  V  V50  1  0.74993129  0.50004537  0.25258737  1
  V  V51  1  0.36656696  0.50741035  0.37666981  1
  V  V52  1  0.23523935  0.00227550  0.25288903  1
  V  V53  1  0.50133454  0.00241709  0.50272991  1
  V  V54  1  0.62073659  0.49955020  0.12810184  1
  V  V55  1  0.87424791  0.87262141  0.49563639  1
  V  V56  1  0.00419043  0.62070611  0.61292110  1
  V  V57  1  0.00277384  0.01198144  -0.00083820  1
  V  V58  1  0.12539967  0.23616670  0.37519342  1
  V  V59  1  0.62517033  0.62636379  0.00237930  1
  V  V60  1  0.62499872  0.37456483  0.75506688  1
  V  V61  1  0.25195696  0.37175769  0.62675803  1
  V  V62  1  0.37669258  0.24835100  0.62553647  1
  V  V63  1  0.90742717  0.35428350  0.03225605  1
  V  V64  1  0.87582107  0.00022169  0.36971285  1
  V  V65  1  0.12512326  0.50170277  0.61099443  1
  V  V66  1  0.50125736  0.87330894  0.87697960  1
  V  V67  1  0.14042936  0.62284883  -0.00652904  1
  V  V68  1  0.37634701  0.12432925  0.75262373  1
  V  V69  1  -0.00545765  0.87638018  0.87277649  1
  V  V70  1  0.36686414  0.75002585  0.12502500  1
  V  V71  1  0.24158248  -0.00370272  0.75063903  1
  V  V72  1  0.00212695  0.01217334  0.50047910  1
  V  V73  1  0.87996162  0.14229134  0.24277379  1
  V  V74  1  0.50109690  0.49679708  0.50074604  1
  V  V75  1  0.49835665  0.87500237  0.37666351  1
  V  V76  1  0.37289998  -0.00061534  0.87581677  1
  V  V77  1  0.62712683  0.87495671  0.75095939  1
  V  V78  1  0.62315196  0.00052497  0.12740392  1
  V  V79  1  0.23510472  0.87244422  0.62586536  1
  V  V80  1  0.11976999  0.01551976  0.62229139  1
  V  V81  1  0.23622074  0.87761025  0.12570734  1
  V  V82  1  0.36774072  0.00810197  0.37437666  1
  V  V83  1  0.88233199  0.50049044  0.37788726  1
  V  V84  1  0.76050793  0.74629880  0.00951078  1
  Zn  Zn85  1  0.62876539  0.00055628  0.62450501  1
  Zn  Zn86  1  0.75343703  0.87061150  0.12862073  1
  Zn  Zn87  1  -0.01002346  0.16721384  0.11129883  1
  Zn  Zn88  1  0.88076767  0.49672186  0.89256962  1
  Zn  Zn89  1  0.13045609  0.73712877  0.37251872  1
  Zn  Zn90  1  0.87300501  0.62928178  0.24149404  1
  Zn  Zn91  1  0.62605122  0.12465297  0.50330461  1
  Zn  Zn92  1  0.62896283  0.75111253  0.87854887  1
  Zn  Zn93  1  0.36172313  0.63322368  0.25710425  1
  Zn  Zn94  1  0.37303325  0.25237503  0.12730455  1
  Zn  Zn95  1  0.50175639  0.74971004  0.75292163  1
  Zn  Zn96  1  0.50510592  0.12384561  0.62772779  1
  Zn  Zn97  1  0.49660639  0.37395129  0.37390810  1
  Zn  Zn98  1  0.12005127  0.02817353  0.11994821  1
  Zn  Zn99  1  0.37316248  0.50257357  0.87816144  1
  Zn  Zn100  1  0.62715116  0.49907839  0.62728255  1
  Zn  Zn101  1  0.61992997  0.37532311  0.25329896  1
  Zn  Zn102  1  0.75460678  0.11924617  0.87726740  1
  Zn  Zn103  1  0.24227717  0.73074458  0.48879948  1
  Zn  Zn104  1  0.49360907  0.62290303  0.12602960  1
  Zn  Zn105  1  0.75159693  0.00059096  0.24736385  1
  Zn  Zn106  1  0.37113633  0.63130424  0.75990161  1
  Zn  Zn107  1  0.18053768  0.18408965  0.19033500  1
  Zn  Zn108  1  0.18980935  0.18679825  0.69060289  1
  Zn  Zn109  1  0.18125027  0.68823849  0.18601550  1
  Zn  Zn110  1  0.18455541  0.68666165  0.68339657  1
  Zn  Zn111  1  0.68736507  0.18646265  0.18882819  1
  Zn  Zn112  1  0.69091020  0.18359171  0.68645911  1
  Zn  Zn113  1  0.68771934  0.68560581  0.18881520  1
  Zn  Zn114  1  0.69041373  0.68976911  0.68954649  1
  Zn  Zn115  1  0.30699976  0.31566289  0.31353077  1
  Zn  Zn116  1  0.31454177  0.31628532  0.82067114  1
  Zn  Zn117  1  0.30470528  0.81819252  0.31160356  1
  Zn  Zn118  1  0.31308130  0.81525786  0.80934548  1
  Zn  Zn119  1  0.81086677  0.31705952  0.31639767  1
  Zn  Zn120  1  0.81501570  0.30262394  0.81280430  1
  Zn  Zn121  1  0.81759703  0.80921911  0.30874751  1
  Zn  Zn122  1  0.81630354  0.80839563  0.81477379  1
  Zn  Zn123  1  0.18431122  0.56749216  0.43744264  1
  Zn  Zn124  1  0.18673608  0.43377300  0.93796823  1
  Zn  Zn125  1  0.18581017  0.93395798  0.44004261  1
  Zn  Zn126  1  0.17946385  0.93514846  0.93908895  1
  Zn  Zn127  1  0.68949070  0.43812784  0.43992262  1
  Zn  Zn128  1  0.68874974  0.43580539  0.93796735  1
  Zn  Zn129  1  0.68974867  0.93701719  0.43782038  1
  Zn  Zn130  1  0.68963404  0.93517571  0.94026494  1
  Zn  Zn131  1  0.30902572  0.06117345  0.06531471  1
  Zn  Zn132  1  0.31368036  0.06047709  0.56684130  1
  Zn  Zn133  1  0.31293973  0.56101273  0.06617861  1
  Zn  Zn134  1  0.31706771  0.55760850  0.57331501  1
  Zn  Zn135  1  0.81389429  0.06059506  0.06435159  1
  Zn  Zn136  1  0.81388711  0.05948785  0.56317738  1
  Zn  Zn137  1  0.81678999  0.54403055  0.05848195  1
  Zn  Zn138  1  0.81409351  0.55823024  0.56362098  1
  Zn  Zn139  1  0.43280715  0.43336282  0.18753893  1
  Zn  Zn140  1  0.43875894  0.43598169  0.68933775  1
  Zn  Zn141  1  0.43539532  0.93641824  0.18805988  1
  Zn  Zn142  1  0.43587341  0.93607234  0.68814383  1
  Zn  Zn143  1  0.94149490  0.44002660  0.19222332  1
  Zn  Zn144  1  0.94032847  0.43837337  0.68715135  1
  Zn  Zn145  1  0.93967134  0.94061408  0.18402000  1
  Zn  Zn146  1  0.94052081  0.93721754  0.68652840  1
  Zn  Zn147  1  0.05525488  0.06580744  0.30834937  1
  Zn  Zn148  1  0.05823079  0.05938790  0.81138289  1
  Zn  Zn149  1  0.05761157  0.56547097  0.30170870  1
  Zn  Zn150  1  0.06645991  0.56536661  0.80829251  1
  Zn  Zn151  1  0.55924900  0.06489612  0.31474723  1
  Zn  Zn152  1  0.56598020  0.06132883  0.81480077  1
  Zn  Zn153  1  0.56023376  0.56375091  0.31645122  1
  Zn  Zn154  1  0.56513010  0.56304921  0.81491642  1
  Zn  Zn155  1  0.43713109  0.18498476  0.43461751  1
  Zn  Zn156  1  0.43755416  0.18719920  0.93890869  1
  Zn  Zn157  1  0.43558071  0.68765981  0.44194155  1
  Zn  Zn158  1  0.43513978  0.68537115  0.93927635  1
  Zn  Zn159  1  0.93753561  0.19133003  0.43346136  1
  Zn  Zn160  1  0.93298845  0.18879379  0.92202949  1
  Zn  Zn161  1  0.94734604  0.68797660  0.43070136  1
  Zn  Zn162  1  0.93976532  0.68970751  0.93832649  1
  Zn  Zn163  1  0.07603442  0.31287724  0.06077881  1
  Zn  Zn164  1  0.06821147  0.31380026  0.55597797  1
  Zn  Zn165  1  0.06022248  0.80729733  0.05557524  1
  Zn  Zn166  1  0.05975174  0.81228618  0.55619113  1
  Zn  Zn167  1  0.56147731  0.31386071  0.06495558  1
  Zn  Zn168  1  0.56500377  0.31145934  0.56660712  1
  Zn  Zn169  1  0.56040201  0.81163973  0.06422126  1
  Zn  Zn170  1  0.56196179  0.81244074  0.56375931  1
  O  O171  1  0.09971897  0.14155637  0.12635830  1
  O  O172  1  0.12859130  0.11410115  0.62432295  1
  O  O173  1  0.11848857  0.62074469  0.10954018  1
  O  O174  1  0.11623611  0.61485883  0.62631759  1
  O  O175  1  0.62696434  0.11719087  0.11424337  1
  O  O176  1  0.62373467  0.11878544  0.62154366  1
  O  O177  1  0.62476023  0.61710077  0.11665024  1
  O  O178  1  0.62216238  0.62494098  0.61921585  1
  O  O179  1  0.37534796  0.38490152  0.38398786  1
  O  O180  1  0.37575931  0.38180478  0.89216988  1
  O  O181  1  0.38005959  0.88392312  0.38334882  1
  O  O182  1  0.38061801  0.87954657  0.88230738  1
  O  O183  1  0.88283877  0.38117428  0.38083124  1
  O  O184  1  0.89207736  0.37263459  0.86613599  1
  O  O185  1  0.87753513  0.88256673  0.37934491  1
  O  O186  1  0.88710498  0.86941516  0.88423123  1
  O  O187  1  0.25618521  -0.00813156  0.36496019  1
  O  O188  1  0.24852514  0.00345985  0.86909486  1
  O  O189  1  0.25797625  0.50224690  0.36737264  1
  O  O190  1  0.24759843  0.49460803  0.85925698  1
  O  O191  1  0.75686133  0.00900482  0.37394445  1
  O  O192  1  0.74799138  -0.00366724  0.86222197  1
  O  O193  1  0.75524378  0.50744853  0.36917382  1
  O  O194  1  0.75678433  0.50489834  0.87287814  1
  O  O195  1  0.23735908  0.50202959  0.13145741  1
  O  O196  1  0.24490335  0.48905468  0.63695953  1
  O  O197  1  0.23896916  0.99663823  0.13023218  1
  O  O198  1  0.23942403  0.99557534  0.63086718  1
  O  O199  1  0.73848244  0.49508924  0.13288232  1
  O  O200  1  0.74854533  0.48757995  0.63292545  1
  O  O201  1  0.73663071  0.99537740  0.12656366  1
  O  O202  1  0.75209284  0.98470899  0.63377534  1
  O  O203  1  0.01201467  0.37627468  0.25692534  1
  O  O204  1  0.00861060  0.36688242  0.75256392  1
  O  O205  1  -0.00658553  0.86499090  0.25248537  1
  O  O206  1  -0.00616767  0.86194244  0.75667894  1
  O  O207  1  0.49966015  0.36457022  0.25467985  1
  O  O208  1  0.50930573  0.36213796  0.74744983  1
  O  O209  1  0.50876538  0.86698786  0.25503339  1
  O  O210  1  0.50882981  0.87644384  0.75858711  1
  O  O211  1  0.48748639  0.13419097  0.25803205  1
  O  O212  1  0.49631420  0.13429125  0.75320256  1
  O  O213  1  0.50132716  0.63860713  0.24921247  1
  O  O214  1  0.50695025  0.62616346  0.73821064  1
  O  O215  1  0.98133945  0.13215497  0.25196960  1
  O  O216  1  0.98970136  0.13022409  0.74926592  1
  O  O217  1  0.99486480  0.63305310  0.23044449  1
  O  O218  1  0.99431262  0.63394158  0.74370416  1
  O  O219  1  0.36942659  0.25694054  0.00025966  1
  O  O220  1  0.37274804  0.25491197  0.50296211  1
  O  O221  1  0.38098566  0.76136481  0.01044602  1
  O  O222  1  0.37360496  0.75826498  0.51125032  1
  O  O223  1  0.85999180  0.26132384  -0.01408018  1
  O  O224  1  0.86244245  0.25958649  0.49200418  1
  O  O225  1  0.86996051  0.76174828  -0.00207961  1
  O  O226  1  0.88260554  0.75672179  0.51035892  1
  O  O227  1  0.13589746  0.25331732  0.48669652  1
  O  O228  1  0.13534242  0.25428440  0.98280534  1
  O  O229  1  0.13358038  0.76892274  0.48761994  1
  O  O230  1  0.12341553  0.73776580  0.98561645  1
  O  O231  1  0.63602780  0.24977101  0.49456256  1
  O  O232  1  0.62763755  0.24239266  0.99611945  1
  O  O233  1  0.61992828  0.73799801  0.49457418  1
  O  O234  1  0.63184702  0.74098723  1.00106979  1
  O  O235  1  0.49931706  0.25029759  0.13943695  1
  O  O236  1  0.49480735  0.24694232  0.63504704  1
  O  O237  1  0.48944749  0.75131783  0.13419265  1
  O  O238  1  0.49253791  0.74321715  0.62672005  1
  O  O239  1  0.97087310  0.28358162  0.09102652  1
  O  O240  1  1.00978200  0.25397908  0.63470342  1
  O  O241  1  1.00136973  0.73904754  0.12836125  1
  O  O242  1  0.99596210  0.74530864  0.63109752  1
  O  O243  1  0.01555380  0.25794371  0.38031774  1
  O  O244  1  0.00871813  0.25758182  0.86331979  1
  O  O245  1  0.00050085  0.76132096  0.36253148  1
  O  O246  1  0.00574781  0.75488285  0.86643524  1
  O  O247  1  0.50809408  0.25122419  0.37036102  1
  O  O248  1  0.51296377  0.24565938  0.87055269  1
  O  O249  1  0.50378917  0.75561457  0.36994095  1
  O  O250  1  0.50282951  0.76347321  0.87690625  1
  O  O251  1  0.25867429  0.13677446  0.50248691  1
  O  O252  1  0.25590236  0.12960055  0.98691072  1
  O  O253  1  0.25594902  0.61973859  0.50639382  1
  O  O254  1  0.23916259  0.62522821  1.00070949  1
  O  O255  1  0.75268580  0.13190846  0.49014115  1
  O  O256  1  0.74445582  0.13187578  0.99998908  1
  O  O257  1  0.74116987  0.61900139  0.49369832  1
  O  O258  1  0.74859939  0.62640975  0.99814989  1
  O  O259  1  0.25955551  0.36350337  -0.00493269  1
  O  O260  1  0.26584731  0.36443193  0.50990873  1
  O  O261  1  0.26164368  0.88459585  0.00583144  1
  O  O262  1  0.26295400  0.88271118  0.51077754  1
  O  O263  1  0.74275846  0.36462064  0.01167657  1
  O  O264  1  0.75718227  0.36931361  0.50821825  1
  O  O265  1  0.76161854  0.86636813  -0.00066690  1
  O  O266  1  0.76391700  0.87827905  0.50675165  1
  O  O267  1  0.12926156  0.49501647  0.24006899  1
  O  O268  1  0.13549474  0.49265810  0.74480404  1
  O  O269  1  0.13221729  1.00789172  0.24549214  1
  O  O270  1  0.12988956  1.00275000  0.73667274  1
  O  O271  1  0.62977251  0.50103103  0.24521659  1
  O  O272  1  0.63363815  0.49029865  0.75194700  1
  O  O273  1  0.62300491  0.99346603  0.24506217  1
  O  O274  1  0.63302960  0.98813201  0.74870253  1
  O  O275  1  0.37105577  0.00643445  0.25648279  1
  O  O276  1  0.36766017  0.00389937  0.75733278  1
  O  O277  1  0.36608579  0.50007870  0.25862182  1
  O  O278  1  0.36069343  0.49575396  0.74945609  1
  O  O279  1  0.87345511  0.00430690  0.25945575  1
  O  O280  1  0.87097440  0.00808379  0.74585320  1
  O  O281  1  0.86502698  0.50349296  0.25795970  1
  O  O282  1  0.86914090  0.50719195  0.75010488  1
  O  O283  1  0.11271445  0.37643639  0.36854676  1
  O  O284  1  0.11937417  0.36895115  0.86264108  1
  O  O285  1  0.11035666  0.88490089  0.36870057  1
  O  O286  1  0.11217985  0.85929772  0.88245621  1
  O  O287  1  0.62511713  0.36326729  0.37616493  1
  O  O288  1  0.63016406  0.36605648  0.86325664  1
  O  O289  1  0.62039490  0.86912834  0.37038101  1
  O  O290  1  0.61806726  0.87454743  0.87017559  1
  O  O291  1  0.37536129  0.12550498  0.13664145  1
  O  O292  1  0.37792666  0.13013539  0.63603110  1
  O  O293  1  0.37504164  0.63568967  0.13012724  1
  O  O294  1  0.38542808  0.63305485  0.63293604  1
  O  O295  1  0.87605651  0.12600928  0.13778588  1
  O  O296  1  0.86462960  0.12558047  0.64070578  1
  O  O297  1  0.88809611  0.61354942  0.11788998  1
  O  O298  1  0.87919879  0.63076114  0.62985329  1
  O  O299  1  0.24909553  0.24166387  0.10982716  1
  O  O300  1  0.25656164  0.25308154  0.62069088  1
  O  O301  1  0.25978077  0.76010743  0.13396029  1
  O  O302  1  0.25611463  0.75827846  0.62688767  1
  O  O303  1  0.74307792  0.25794302  0.11654827  1
  O  O304  1  0.74674217  0.26133901  0.61754949  1
  O  O305  1  0.74740527  0.74952949  0.11374908  1
  O  O306  1  0.76102387  0.76146672  0.62983441  1
  O  O307  1  0.23825628  0.25334624  0.38404564  1
  O  O308  1  0.24359513  0.24034070  0.87751735  1
  O  O309  1  0.24674535  0.75026317  0.37381326  1
  O  O310  1  0.23429326  0.75746990  0.86864266  1
  O  O311  1  0.74282973  0.24481240  0.38139238  1
  O  O312  1  0.73691001  0.24859267  0.88272990  1
  O  O313  1  0.74705415  0.73596081  0.37023096  1
  O  O314  1  0.75090925  0.73940823  0.88624381  1
  O  O315  1  -0.01713410  0.11369514  -0.00441779  1
  O  O316  1  -0.00882967  0.11125608  0.49538184  1
  O  O317  1  0.00668513  0.62741249  0.00988986  1
  O  O318  1  -0.00744944  0.62517942  0.51439666  1
  O  O319  1  0.50650996  0.11115246  -0.00388356  1
  O  O320  1  0.50110073  0.11464395  0.50115899  1
  O  O321  1  0.51045456  0.61702295  0.00526496  1
  O  O322  1  0.50604043  0.61831606  0.51174444  1
  O  O323  1  0.49258626  0.38106025  0.50263705  1
  O  O324  1  0.49137790  0.38168660  1.00432747  1
  O  O325  1  0.48889166  0.88035015  0.49841221  1
  O  O326  1  0.49377978  0.88422556  0.99504822  1
  O  O327  1  0.98945286  0.37110066  0.49270960  1
  O  O328  1  1.00743343  0.37367728  0.97647218  1
  O  O329  1  0.98811565  0.88387583  0.49004033  1
  O  O330  1  0.98979435  0.87887709  0.99373016  1
  O  O331  1  0.49648810  0.49744811  0.38889259  1
  O  O332  1  0.50623222  0.49767086  0.88909714  1
  O  O333  1  0.49310736  0.99398167  0.38483787  1
  O  O334  1  0.49619992  0.99032479  0.88232066  1
  O  O335  1  0.98633257  0.49255128  0.36644262  1
  O  O336  1  0.99949498  0.48473379  0.86147673  1
  O  O337  1  0.99186948  0.99533444  0.37809379  1
  O  O338  1  1.00387615  0.98905398  0.88514433  1
  O  O339  1  0.00121449  -0.00297674  0.10548647  1
  O  O340  1  0.01262027  -0.00394782  0.61737158  1
  O  O341  1  0.01194299  0.51216174  0.12753925  1
  O  O342  1  0.01250544  0.50865363  0.63101922  1
  O  O343  1  0.51143619  -0.00708572  0.11759402  1
  O  O344  1  0.49916241  -0.00134769  0.61356833  1
  O  O345  1  0.51069609  0.49964621  0.12294920  1
  O  O346  1  0.50197556  0.50607982  0.61700211  1
  O  O347  1  0.23614121  0.38815007  0.25563296  1
  O  O348  1  0.24295214  0.37660020  0.74685037  1
  O  O349  1  0.25630639  0.89204738  0.23650402  1
  O  O350  1  0.25435335  0.88924323  0.74092289  1
  O  O351  1  0.74453699  0.38615244  0.24809941  1
  O  O352  1  0.74765381  0.37507058  0.74558119  1
  O  O353  1  0.73847787  0.87512422  0.25122599  1
  O  O354  1  0.74751226  0.87786046  0.74576130  1
  O  O355  1  0.25826957  0.11387808  0.24686419  1
  O  O356  1  0.25563926  0.11477523  0.75915375  1
  O  O357  1  0.24577821  0.61186319  0.24526865  1
  O  O358  1  0.25055931  0.61008866  0.74397365  1
  O  O359  1  0.75669751  0.12332070  0.25982333  1
  O  O360  1  0.75533933  0.11269367  0.75104521  1
  O  O361  1  0.75147349  0.61537553  0.25708403  1
  O  O362  1  0.75626595  0.61973415  0.75803536  1
  O  O363  1  0.37495761  0.11149090  0.36875715  1
  O  O364  1  0.36768993  0.11801395  0.87118410  1
  O  O365  1  0.38484971  0.61143697  0.37351843  1
  O  O366  1  0.38354342  0.61648996  0.87034411  1
  O  O367  1  0.86787411  0.12003793  0.36688078  1
  O  O368  1  0.86670547  0.12943814  0.85278194  1
  O  O369  1  0.86930566  0.61771821  0.37660502  1
  O  O370  1  0.87266452  0.61856863  0.87301462  1
  O  O371  1  0.12326111  0.38486118  0.13353699  1
  O  O372  1  0.12974596  0.37927491  0.63426982  1
  O  O373  1  0.13639974  0.87145674  0.11338770  1
  O  O374  1  0.13365726  0.88124976  0.62436961  1
  O  O375  1  0.63255978  0.38260189  0.13005417  1
  O  O376  1  0.63379802  0.37478628  0.63893063  1
  O  O377  1  0.62632713  0.87989371  0.13446124  1
  O  O378  1  0.63464267  0.87358037  0.63187610  1
  O  O379  1  0.13508547  0.26076429  0.26637380  1
  O  O380  1  0.12187922  0.25619326  0.75617229  1
  O  O381  1  0.10479933  0.74615224  0.25020930  1
  O  O382  1  0.11635763  0.74162225  0.76238230  1
  O  O383  1  0.61675886  0.24847519  0.25890970  1
  O  O384  1  0.62039470  0.25236460  0.75780895  1
  O  O385  1  0.61891157  0.75604274  0.25551064  1
  O  O386  1  0.62559086  0.76265309  0.75481124  1
  O  O387  1  0.37805238  0.24273877  0.25139813  1
  O  O388  1  0.38331149  0.24715996  0.75041908  1
  O  O389  1  0.38274047  0.75282483  0.24456971  1
  O  O390  1  0.37964528  0.75197105  0.73953010  1
  O  O391  1  0.86744993  0.24051212  0.25265513  1
  O  O392  1  0.88565471  0.24011734  0.74631154  1
  O  O393  1  0.89066281  0.74472512  0.24967259  1
  O  O394  1  0.88191548  0.74231826  0.73981768  1
  O  O395  1  0.38235562  0.49131985  0.49709855  1
  O  O396  1  0.38409690  0.49220683  1.00377781  1
  O  O397  1  0.37975710  0.99482660  0.49420434  1
  O  O398  1  0.38197943  0.99504356  0.99654195  1
  O  O399  1  0.86853268  0.48846201  0.48960632  1
  O  O400  1  0.87958572  0.46155662  1.00533532  1
  O  O401  1  0.87946953  0.99387942  0.48959769  1
  O  O402  1  0.87946712  0.98671658  0.99804974  1
  O  O403  1  0.10771378  0.00384941  -0.00076223  1
  O  O404  1  0.11748240  -0.00274280  0.51240152  1
  O  O405  1  0.12975635  0.51109573  0.00294543  1
  O  O406  1  0.13198224  0.48896469  0.51337634  1
  O  O407  1  0.61942409  0.00415363  0.00640924  1
  O  O408  1  0.61509315  -0.00151897  0.50077786  1
  O  O409  1  0.62087833  0.50415666  0.00857225  1
  O  O410  1  0.61796464  0.50829543  0.50273527  1
  O  O411  1  0.37417225  0.37109261  0.10997163  1
  O  O412  1  0.37366082  0.36694987  0.61967960  1
  O  O413  1  0.36787952  0.87122595  0.11742003  1
  O  O414  1  0.36788938  0.86899589  0.61950852  1
  O  O415  1  0.85762439  0.38105917  0.13226276  1
  O  O416  1  0.86907397  0.37916414  0.61645825  1
  O  O417  1  0.87224721  0.87737595  0.11080751  1
  O  O418  1  0.87231140  0.86781391  0.61669385  1
  O  O419  1  0.12126689  0.13762137  0.37116810  1
  O  O420  1  0.13218015  0.13292033  0.86667476  1
  O  O421  1  0.10710269  0.62332426  0.38086350  1
  O  O422  1  0.12057113  0.63274368  0.88603544  1
  O  O423  1  0.63320692  0.13452419  0.37767610  1
  O  O424  1  0.62939022  0.12904609  0.88769476  1
  O  O425  1  0.63237870  0.62892414  0.38389731  1
  O  O426  1  0.63349374  0.62471240  0.88855708  1
