# generated using pymatgen
data_V85Zn86O256
_symmetry_space_group_name_H-M   'P 1'
_cell_length_a   16.95537045
_cell_length_b   16.97301383
_cell_length_c   16.96062175
_cell_angle_alpha   90.02780510
_cell_angle_beta   90.07321340
_cell_angle_gamma   90.13669322
_symmetry_Int_Tables_number   1
_chemical_formula_structural   V85Zn86O256
_chemical_formula_sum   'V85 Zn86 O256'
_cell_volume   4880.97265192
_cell_formula_units_Z   1
loop_
 _symmetry_equiv_pos_site_id
 _symmetry_equiv_pos_as_xyz
  1  'x, y, z'
loop_
 _atom_site_type_symbol
 _atom_site_label
 _atom_site_symmetry_multiplicity
 _atom_site_fract_x
 _atom_site_fract_y
 _atom_site_fract_z
 _atom_site_occupancy
  V  V0  1  0.37539700  -0.00040606  0.87536858  1
  V  V1  1  0.62166579  0.00421813  0.12821521  1
  V  V2  1  0.62599503  0.74766630  0.87798259  1
  V  V3  1  0.25111827  0.36932778  0.62488774  1
  V  V4  1  0.36393157  0.37014766  0.49814443  1
  V  V5  1  0.37632197  0.49717206  0.37221100  1
  V  V6  1  0.37591896  0.74734104  0.12555205  1
  V  V7  1  0.49926049  0.87841914  0.37844716  1
  V  V8  1  0.74533158  0.62288346  0.87875287  1
  V  V9  1  0.37218985  0.87229716  0.00240747  1
  V  V10  1  0.50635267  0.49835188  -0.00054353  1
  V  V11  1  0.49855967  0.74521071  0.75181142  1
  V  V12  1  0.75128445  0.37306545  0.62675852  1
  V  V13  1  0.24022492  0.49702999  0.24468759  1
  V  V14  1  0.24683549  0.62205100  0.37477568  1
  V  V15  1  0.01180785  0.87539039  0.37610166  1
  V  V16  1  0.24868722  -0.00023352  0.74809302  1
  V  V17  1  0.49381344  0.00290333  0.00966130  1
  V  V18  1  0.12599183  0.26137683  0.38055271  1
  V  V19  1  0.24689921  0.12545377  0.87759395  1
  V  V20  1  0.75197929  0.51530030  0.25977361  1
  V  V21  1  0.12291649  0.87750553  0.74937980  1
  V  V22  1  0.24140766  0.87401129  0.62185272  1
  V  V23  1  0.24091294  -0.00321827  0.24940694  1
  V  V24  1  0.87748140  0.13523915  0.24451388  1
  V  V25  1  0.62657010  0.24943000  0.87676982  1
  V  V26  1  0.87746500  0.74602256  0.13299380  1
  V  V27  1  0.62836155  0.62354473  0.49743988  1
  V  V28  1  0.37273225  0.74595355  0.62764512  1
  V  V29  1  0.88858272  0.37823496  0.49714152  1
  V  V30  1  0.27327927  0.25415049  0.00532924  1
  V  V31  1  0.10848985  0.61704731  0.00082402  1
  V  V32  1  0.00821775  0.12399806  0.11776436  1
  V  V33  1  0.49994381  0.49707321  0.49918766  1
  V  V34  1  0.49732664  0.37047939  0.37291149  1
  V  V35  1  0.62087064  0.12564304  0.00581791  1
  V  V36  1  0.00716460  0.11450795  0.61993911  1
  V  V37  1  0.49412356  0.62139672  0.63060933  1
  V  V38  1  0.62408124  0.49866854  0.62595581  1
  V  V39  1  0.87392724  0.37282991  0.00489321  1
  V  V40  1  0.87661341  0.24612105  0.62892799  1
  V  V41  1  0.25870242  0.37499067  0.12348502  1
  V  V42  1  0.37424928  0.23693410  0.61986719  1
  V  V43  1  0.23662161  0.86802442  0.13385244  1
  V  V44  1  0.24840410  0.74170033  -0.00106109  1
  V  V45  1  0.00206743  0.24990474  0.75205015  1
  V  V46  1  0.12760953  0.37946298  0.75257780  1
  V  V47  1  0.87797560  0.88818298  -0.00276199  1
  V  V48  1  -0.00292591  0.75083562  0.75016651  1
  V  V49  1  0.88549618  0.00398216  0.38226068  1
  V  V50  1  0.49960956  0.87385553  0.87745469  1
  V  V51  1  0.62848661  0.74762224  0.37526645  1
  V  V52  1  0.60999352  0.00252502  0.62297977  1
  V  V53  1  0.87884083  0.50192414  0.87865098  1
  V  V54  1  0.75225859  0.00487940  0.25346278  1
  V  V55  1  0.37509972  0.12418672  0.22934124  1
  V  V56  1  0.74972242  0.87903545  0.62423704  1
  V  V57  1  0.49530311  0.24621144  0.23426662  1
  V  V58  1  0.62154885  0.24841976  0.37251101  1
  V  V59  1  0.75160982  0.87762854  0.12515584  1
  V  V60  1  0.25005753  0.13102919  0.37728676  1
  V  V61  1  0.62467597  0.87530173  0.75014386  1
  V  V62  1  0.75558300  0.11747702  0.87652907  1
  V  V63  1  0.37529377  0.51095501  0.87274806  1
  V  V64  1  0.00109472  0.37936090  0.88435939  1
  V  V65  1  0.37859773  0.61852519  0.24861228  1
  V  V66  1  0.75289547  0.36987294  0.13299172  1
  V  V67  1  0.60930815  0.12311986  0.50426719  1
  V  V68  1  0.12119107  0.49890415  0.61519178  1
  V  V69  1  0.50150678  0.74932390  0.25104551  1
  V  V70  1  0.48934693  0.37064400  0.87938529  1
  V  V71  1  -0.00398192  0.89235665  0.87546349  1
  V  V72  1  0.74877675  0.24819072  0.50005777  1
  V  V73  1  0.49931658  0.23961198  0.74453460  1
  V  V74  1  -0.00048076  0.62357412  0.61916719  1
  V  V75  1  0.37975268  0.00478566  0.37632169  1
  V  V76  1  0.62413949  0.37204116  0.75161076  1
  V  V77  1  0.62327691  0.87927748  0.25213082  1
  V  V78  1  0.37957541  0.88062483  0.50253276  1
  V  V79  1  0.00853974  0.25961250  0.24910242  1
  V  V80  1  0.12725699  0.24966882  0.88756302  1
  V  V81  1  0.74966295  0.74671660  0.00057434  1
  V  V82  1  0.75266156  0.75341226  0.49847493  1
  V  V83  1  0.75012618  0.50002064  0.74841386  1
  V  V84  1  0.51079927  0.62441258  0.11960839  1
  Zn  Zn85  1  0.01775237  0.75722576  0.24582169  1
  Zn  Zn86  1  0.87373085  0.62566318  0.74512114  1
  Zn  Zn87  1  0.25154812  0.74589403  0.49915259  1
  Zn  Zn88  1  -0.01153830  0.61264477  0.13302205  1
  Zn  Zn89  1  0.63152420  0.50263445  0.12225720  1
  Zn  Zn90  1  0.26036746  0.50805557  0.74325999  1
  Zn  Zn91  1  0.89122387  0.51237874  0.36497203  1
  Zn  Zn92  1  0.11403639  -0.00414530  0.10927233  1
  Zn  Zn93  1  0.88094871  0.88298337  0.50245042  1
  Zn  Zn94  1  0.87519075  0.75175217  0.62458329  1
  Zn  Zn95  1  0.11169976  0.48708904  0.11865921  1
  Zn  Zn96  1  0.37745683  0.11922007  0.74282136  1
  Zn  Zn97  1  0.75205582  0.12686242  0.37820385  1
  Zn  Zn98  1  0.75218896  -0.00197704  0.75333870  1
  Zn  Zn99  1  0.62321658  0.37713595  0.24807978  1
  Zn  Zn100  1  0.13588348  0.75796489  0.36952880  1
  Zn  Zn101  1  0.75249903  0.24864388  0.00582241  1
  Zn  Zn102  1  0.11999966  0.11840133  0.49633669  1
  Zn  Zn103  1  0.24684901  0.62703505  0.86865093  1
  Zn  Zn104  1  0.12487268  0.62724590  0.49666321  1
  Zn  Zn105  1  0.88212547  0.11506600  0.75850742  1
  Zn  Zn106  1  0.12227030  0.74898068  0.87561220  1
  Zn  Zn107  1  0.18824256  0.19066513  0.18705561  1
  Zn  Zn108  1  0.18716023  0.18935162  0.69044779  1
  Zn  Zn109  1  0.18191852  0.68317833  0.18780436  1
  Zn  Zn110  1  0.18577266  0.68579961  0.69038107  1
  Zn  Zn111  1  0.68780081  0.19018649  0.18860309  1
  Zn  Zn112  1  0.68652700  0.18284499  0.68848027  1
  Zn  Zn113  1  0.69104031  0.69001891  0.18901550  1
  Zn  Zn114  1  0.68645470  0.68707198  0.68605758  1
  Zn  Zn115  1  0.31074075  0.31037564  0.30473224  1
  Zn  Zn116  1  0.31317405  0.31055907  0.80841991  1
  Zn  Zn117  1  0.31312406  0.81062291  0.31191481  1
  Zn  Zn118  1  0.31177060  0.80875883  0.81146533  1
  Zn  Zn119  1  0.81535954  0.31669391  0.31703502  1
  Zn  Zn120  1  0.81404085  0.30973199  0.81532139  1
  Zn  Zn121  1  0.81325678  0.81950858  0.31525923  1
  Zn  Zn122  1  0.81493187  0.81455739  0.81277058  1
  Zn  Zn123  1  0.06016112  0.43667501  0.43342767  1
  Zn  Zn124  1  0.19230371  0.43637593  0.94182881  1
  Zn  Zn125  1  0.19098502  0.94444977  0.44162198  1
  Zn  Zn126  1  0.18428518  0.93286903  0.93807568  1
  Zn  Zn127  1  0.68915910  0.43308397  0.43705505  1
  Zn  Zn128  1  0.68697651  0.43602482  0.94040413  1
  Zn  Zn129  1  0.68639881  0.94200721  0.43909205  1
  Zn  Zn130  1  0.68543697  0.93662158  0.94207123  1
  Zn  Zn131  1  0.27796540  0.05086219  0.05104888  1
  Zn  Zn132  1  0.28447480  0.05449644  0.55087265  1
  Zn  Zn133  1  0.31840588  0.55716124  0.05803964  1
  Zn  Zn134  1  0.31076965  0.55603445  0.56047106  1
  Zn  Zn135  1  0.81224613  0.06751500  0.06618281  1
  Zn  Zn136  1  0.80896063  0.06500494  0.56708265  1
  Zn  Zn137  1  0.81117132  0.55859155  0.06392493  1
  Zn  Zn138  1  0.83835691  0.58435442  0.52460922  1
  Zn  Zn139  1  0.43791510  0.43270749  0.18128684  1
  Zn  Zn140  1  0.43747073  0.43041484  0.69055041  1
  Zn  Zn141  1  0.43045170  0.93667255  0.18876176  1
  Zn  Zn142  1  0.43447550  0.93323038  0.68917667  1
  Zn  Zn143  1  0.93485864  0.44105926  0.19070837  1
  Zn  Zn144  1  0.93806019  0.43719364  0.68853649  1
  Zn  Zn145  1  0.93912955  0.93961108  0.19073469  1
  Zn  Zn146  1  0.93193183  0.93960123  0.68995897  1
  Zn  Zn147  1  0.06376293  0.06610936  0.30788194  1
  Zn  Zn148  1  0.06735642  0.06449770  0.80835474  1
  Zn  Zn149  1  0.05808810  0.57234835  0.30134442  1
  Zn  Zn150  1  0.06450513  0.56468979  0.81039902  1
  Zn  Zn151  1  0.55726274  0.06903996  0.31250070  1
  Zn  Zn152  1  0.56564250  0.06004126  0.81577607  1
  Zn  Zn153  1  0.56760368  0.55995857  0.31046326  1
  Zn  Zn154  1  0.56275356  0.56098164  0.81384583  1
  Zn  Zn155  1  0.43180214  0.18715266  0.43353719  1
  Zn  Zn156  1  0.43821555  0.18201852  0.93438727  1
  Zn  Zn157  1  0.43831821  0.68751143  0.43982805  1
  Zn  Zn158  1  0.43903107  0.68506510  0.94107124  1
  Zn  Zn159  1  0.94137504  0.18996484  0.43669634  1
  Zn  Zn160  1  0.93750022  0.19201219  0.94081061  1
  Zn  Zn161  1  0.94210080  0.68695347  0.42581915  1
  Zn  Zn162  1  0.93197496  0.69374955  0.93515874  1
  Zn  Zn163  1  0.06376083  0.31272422  0.07003779  1
  Zn  Zn164  1  0.06859656  0.30212119  0.56457439  1
  Zn  Zn165  1  0.05949149  0.80929272  0.05607731  1
  Zn  Zn166  1  0.06241303  0.80880216  0.55330549  1
  Zn  Zn167  1  0.56685355  0.31708391  0.06061390  1
  Zn  Zn168  1  0.55854878  0.31034929  0.56163889  1
  Zn  Zn169  1  0.56455254  0.81338382  0.06350494  1
  Zn  Zn170  1  0.56114150  0.81215919  0.56321535  1
  O  O171  1  0.11133710  0.12522745  0.12898255  1
  O  O172  1  0.10920923  0.13439061  0.62681696  1
  O  O173  1  0.12552057  0.62186617  0.10665059  1
  O  O174  1  0.11989357  0.61389833  0.62409699  1
  O  O175  1  0.63040716  0.12062280  0.11336371  1
  O  O176  1  0.62728547  0.11504425  0.61714011  1
  O  O177  1  0.61360884  0.62642049  0.13034524  1
  O  O178  1  0.61408729  0.61782803  0.62014384  1
  O  O179  1  0.37687689  0.37599747  0.38016554  1
  O  O180  1  0.38759145  0.37596730  0.87149253  1
  O  O181  1  0.37983630  0.88131489  0.38264687  1
  O  O182  1  0.37969717  0.87869548  0.88215071  1
  O  O183  1  0.87130703  0.38040371  0.39558391  1
  O  O184  1  0.88217387  0.38196499  0.87913123  1
  O  O185  1  0.87829405  0.89176777  0.37845214  1
  O  O186  1  0.87994997  0.87448568  0.88841460  1
  O  O187  1  0.26221024  0.00654634  0.36425102  1
  O  O188  1  0.25539436  0.00583296  0.86531394  1
  O  O189  1  0.26439948  0.50796012  0.35928686  1
  O  O190  1  0.26866590  0.49854261  0.87866386  1
  O  O191  1  0.75474734  0.00400429  0.36438207  1
  O  O192  1  0.74090182  0.01535194  0.87812459  1
  O  O193  1  0.74482906  0.49497758  0.36068188  1
  O  O194  1  0.75205221  0.50525569  0.86694468  1
  O  O195  1  0.25356919  0.49081384  0.12771701  1
  O  O196  1  0.24367937  0.48637529  0.62598741  1
  O  O197  1  0.26237375  0.98000449  0.13985375  1
  O  O198  1  0.26673581  0.98498790  0.64355154  1
  O  O199  1  0.74968775  0.49158039  0.13560611  1
  O  O200  1  0.74277152  0.49305889  0.64003036  1
  O  O201  1  0.74546947  0.99845326  0.13738690  1
  O  O202  1  0.74054563  0.98861839  0.62430781  1
  O  O203  1  -0.00939895  0.35657383  0.24820658  1
  O  O204  1  0.00557608  0.36524806  0.75908436  1
  O  O205  1  -0.00786330  0.87451325  0.26912514  1
  O  O206  1  0.00534046  0.87168638  0.75375683  1
  O  O207  1  0.49931895  0.36614934  0.25565894  1
  O  O208  1  0.50704716  0.36255137  0.75855311  1
  O  O209  1  0.50453950  0.86920066  0.25545690  1
  O  O210  1  0.50592182  0.86702199  0.75816117  1
  O  O211  1  0.48567836  0.13065344  0.24469418  1
  O  O212  1  0.49873236  0.13591063  0.75811497  1
  O  O213  1  0.49489040  0.62885010  0.24409741  1
  O  O214  1  0.50532835  0.62969742  0.73962138  1
  O  O215  1  0.99020199  0.13225897  0.24470787  1
  O  O216  1  1.00107031  0.13696532  0.74547990  1
  O  O217  1  1.00009951  0.64433881  0.24176321  1
  O  O218  1  0.99946626  0.63523082  0.74182914  1
  O  O219  1  0.37123079  0.25202363  -0.00342274  1
  O  O220  1  0.38608530  0.26071402  0.50887527  1
  O  O221  1  0.36936348  0.75162209  0.00625302  1
  O  O222  1  0.37642059  0.75568845  0.51317261  1
  O  O223  1  0.86925201  0.26838992  -0.00753193  1
  O  O224  1  0.86892979  0.25772709  0.50677191  1
  O  O225  1  0.86343721  0.76071498  0.00620872  1
  O  O226  1  0.85779786  0.75515842  0.49860540  1
  O  O227  1  0.12381648  0.24077409  0.48436572  1
  O  O228  1  0.12823876  0.25360811  0.98802508  1
  O  O229  1  0.13435435  0.74675718  0.48921800  1
  O  O230  1  0.13207514  0.73912776  0.99792953  1
  O  O231  1  0.63029924  0.24458163  0.49527816  1
  O  O232  1  0.62532905  0.24148277  0.99285559  1
  O  O233  1  0.62861690  0.74463025  0.49335742  1
  O  O234  1  0.64034810  0.75838044  0.99418356  1
  O  O235  1  0.50642442  0.25549901  0.13586869  1
  O  O236  1  0.48992614  0.25352353  0.63491478  1
  O  O237  1  0.49676975  0.74311124  0.12926457  1
  O  O238  1  0.49482290  0.73994785  0.62999929  1
  O  O239  1  1.00363376  0.24049268  0.13978251  1
  O  O240  1  0.99350538  0.24653144  0.63561807  1
  O  O241  1  0.98270610  0.75749627  0.12437544  1
  O  O242  1  1.00068042  0.74711303  0.63543096  1
  O  O243  1  0.01527920  0.24318013  0.36404712  1
  O  O244  1  0.00804086  0.25539470  0.86981374  1
  O  O245  1  0.00318634  0.76576925  0.37392118  1
  O  O246  1  -0.00214414  0.75789927  0.86172037  1
  O  O247  1  0.50483833  0.25317611  0.36616953  1
  O  O248  1  0.50918230  0.25382832  0.87074203  1
  O  O249  1  0.50882795  0.75655975  0.37144346  1
  O  O250  1  0.50539805  0.75288381  0.87315075  1
  O  O251  1  0.27014323  0.14277647  0.47493902  1
  O  O252  1  0.25696827  0.14512627  0.98850070  1
  O  O253  1  0.25226767  0.62146024  0.48781702  1
  O  O254  1  0.25151288  0.63394910  0.99725840  1
  O  O255  1  0.74492571  0.13865826  0.50088340  1
  O  O256  1  0.74285524  0.12766797  0.99313298  1
  O  O257  1  0.73196718  0.63722636  0.51255731  1
  O  O258  1  0.75349184  0.63340595  0.99067329  1
  O  O259  1  0.25439504  0.36048345  0.00219260  1
  O  O260  1  0.26351518  0.37456641  0.50935239  1
  O  O261  1  0.25557777  0.85859515  0.00844754  1
  O  O262  1  0.26257142  0.87124306  0.50834484  1
  O  O263  1  0.75570309  0.37512428  0.01105081  1
  O  O264  1  0.75000616  0.36220217  0.50978603  1
  O  O265  1  0.75857514  0.87061473  0.00431589  1
  O  O266  1  0.74613552  0.86890121  0.50763594  1
  O  O267  1  0.13959834  0.50683170  0.24098768  1
  O  O268  1  0.12478674  0.48656717  0.74564638  1
  O  O269  1  0.13946948  1.00406142  0.24313853  1
  O  O270  1  0.13419224  0.98687496  0.75121133  1
  O  O271  1  0.63597196  0.49604954  0.24602909  1
  O  O272  1  0.63045620  0.49189288  0.74753066  1
  O  O273  1  0.63038023  1.00192452  0.24675623  1
  O  O274  1  0.62759389  0.99252071  0.74367585  1
  O  O275  1  0.37129235  0.00970788  0.25599225  1
  O  O276  1  0.37109801  -0.00128243  0.76032560  1
  O  O277  1  0.37672999  0.50814853  0.25091675  1
  O  O278  1  0.37921120  0.49245619  0.76760056  1
  O  O279  1  0.86816837  0.01138041  0.25904980  1
  O  O280  1  0.86515586  0.00423106  0.75018389  1
  O  O281  1  0.85657497  0.49562290  0.25434384  1
  O  O282  1  0.86506492  0.49883463  0.75985981  1
  O  O283  1  0.13124184  0.35974936  0.38260758  1
  O  O284  1  0.11969192  0.37191089  0.87117296  1
  O  O285  1  0.11452559  0.88533703  0.37954894  1
  O  O286  1  0.11538052  0.87261478  0.86806061  1
  O  O287  1  0.61792377  0.36100526  0.37495902  1
  O  O288  1  0.61981173  0.36513119  0.87106981  1
  O  O289  1  0.61773102  0.87212122  0.37118213  1
  O  O290  1  0.61959405  0.86933015  0.87084593  1
  O  O291  1  0.36472690  0.11357465  0.13294216  1
  O  O292  1  0.36198671  0.13579249  0.62127686  1
  O  O293  1  0.38471415  0.62809600  0.13233287  1
  O  O294  1  0.38581695  0.62953561  0.61787226  1
  O  O295  1  0.88034297  0.12453690  0.14054742  1
  O  O296  1  0.88272236  0.13549866  0.62662966  1
  O  O297  1  0.87174506  0.64318163  0.11567127  1
  O  O298  1  0.88354883  0.62876440  0.62349197  1
  O  O299  1  0.25167804  0.25592451  0.11169359  1
  O  O300  1  0.25740656  0.26174998  0.63143736  1
  O  O301  1  0.25718351  0.75210084  0.12023312  1
  O  O302  1  0.25814804  0.75657064  0.62561495  1
  O  O303  1  0.74863648  0.26445105  0.12464928  1
  O  O304  1  0.75733847  0.25163215  0.62194756  1
  O  O305  1  0.75405177  0.75792686  0.11782265  1
  O  O306  1  0.74514149  0.76242262  0.61720763  1
  O  O307  1  0.23457874  0.24222904  0.35749558  1
  O  O308  1  0.24723797  0.24585128  0.88105364  1
  O  O309  1  0.26079892  0.73465885  0.37751794  1
  O  O310  1  0.24842094  0.74902200  0.88547542  1
  O  O311  1  0.74115601  0.25049026  0.38366354  1
  O  O312  1  0.73694978  0.24361160  0.87669062  1
  O  O313  1  0.73596353  0.75984674  0.38189895  1
  O  O314  1  0.74793229  0.74218632  0.88091631  1
  O  O315  1  -0.00845381  0.13200242  0.01942570  1
  O  O316  1  -0.00016553  0.12732087  0.51530557  1
  O  O317  1  0.00732755  0.63138108  0.00075896  1
  O  O318  1  0.00591592  0.63594595  0.51615196  1
  O  O319  1  0.50786711  0.11382807  -0.00469275  1
  O  O320  1  0.51074408  0.13127857  0.49723708  1
  O  O321  1  0.49899824  0.61718676  0.01059598  1
  O  O322  1  0.50897670  0.61812191  0.50795424  1
  O  O323  1  0.49461530  0.38065281  0.49220610  1
  O  O324  1  0.50551493  0.38252952  0.98949255  1
  O  O325  1  0.48754932  0.87113564  0.49564729  1
  O  O326  1  0.49333472  0.88056316  0.99633661  1
  O  O327  1  0.99294231  0.36824541  0.50447764  1
  O  O328  1  0.99375820  0.36936175  0.98952717  1
  O  O329  1  0.99609346  0.87677029  0.48504029  1
  O  O330  1  0.98694097  0.87370040  0.99093857  1
  O  O331  1  0.49606407  0.49125872  0.37764628  1
  O  O332  1  0.49538365  0.49144907  0.87870427  1
  O  O333  1  0.48781890  0.99503468  0.36944659  1
  O  O334  1  0.49525338  0.99367268  0.88540776  1
  O  O335  1  1.00329319  0.50065583  0.36637022  1
  O  O336  1  0.99014451  0.49085992  0.86665951  1
  O  O337  1  0.99000031  0.99731586  0.37099654  1
  O  O338  1  1.00384595  0.99171228  0.87028342  1
  O  O339  1  0.00094466  0.01613603  0.13087556  1
  O  O340  1  -0.00155665  0.01668032  0.63147064  1
  O  O341  1  -0.00064071  0.50013096  0.12400207  1
  O  O342  1  0.00916402  0.50972118  0.63450365  1
  O  O343  1  0.50130873  -0.00652637  0.11448641  1
  O  O344  1  0.51069534  -0.00517246  0.62978213  1
  O  O345  1  0.50291491  0.50655319  0.11672380  1
  O  O346  1  0.50302397  0.50351244  0.62180678  1
  O  O347  1  0.25675558  0.38353549  0.23474191  1
  O  O348  1  0.24299242  0.37854472  0.74417866  1
  O  O349  1  0.25697669  0.88203789  0.24350758  1
  O  O350  1  0.24185318  0.87833106  0.74619585  1
  O  O351  1  0.74870892  0.37303202  0.24079516  1
  O  O352  1  0.74473601  0.37891357  0.74750119  1
  O  O353  1  0.74290520  0.88688947  0.24657045  1
  O  O354  1  0.74062688  0.87293254  0.74299172  1
  O  O355  1  0.25989367  0.11771928  0.25164585  1
  O  O356  1  0.25143848  0.11537894  0.75482997  1
  O  O357  1  0.26328872  0.61652301  0.25108684  1
  O  O358  1  0.24565180  0.61918246  0.75552393  1
  O  O359  1  0.76098941  0.12294249  0.25221126  1
  O  O360  1  0.74661095  0.12528676  0.76829482  1
  O  O361  1  0.74746595  0.61472175  0.25180110  1
  O  O362  1  0.75036526  0.61571766  0.75491058  1
  O  O363  1  0.37280206  0.11765404  0.36274584  1
  O  O364  1  0.36415341  0.11772167  0.87045627  1
  O  O365  1  0.37651929  0.61777209  0.36579189  1
  O  O366  1  0.37945443  0.61279477  0.87265714  1
  O  O367  1  0.87575775  0.11749199  0.36792036  1
  O  O368  1  0.85831291  0.13331871  0.87841433  1
  O  O369  1  0.86499504  0.60978399  0.41657702  1
  O  O370  1  0.86492088  0.61781917  0.87223321  1
  O  O371  1  0.14653171  0.37668642  0.11326277  1
  O  O372  1  0.13154682  0.37677015  0.63206808  1
  O  O373  1  0.13435629  0.87502740  0.11841502  1
  O  O374  1  0.13705346  0.87004779  0.62952681  1
  O  O375  1  0.63982974  0.37924979  0.12612319  1
  O  O376  1  0.62930603  0.37924155  0.63060572  1
  O  O377  1  0.63121406  0.88349002  0.13226600  1
  O  O378  1  0.62813293  0.88094160  0.63035798  1
  O  O379  1  0.11417568  0.24868617  0.25726063  1
  O  O380  1  0.12036975  0.26196200  0.75864978  1
  O  O381  1  0.13405374  0.75603047  0.25524367  1
  O  O382  1  0.11757468  0.76293414  0.75147051  1
  O  O383  1  0.61566888  0.24760409  0.25870294  1
  O  O384  1  0.61844667  0.25168657  0.75624378  1
  O  O385  1  0.62155921  0.75653526  0.25789488  1
  O  O386  1  0.61879713  0.75557801  0.75655663  1
  O  O387  1  0.38080501  0.23383712  0.24768251  1
  O  O388  1  0.38311369  0.24630889  0.74015105  1
  O  O389  1  0.38348312  0.73913964  0.24547395  1
  O  O390  1  0.38308099  0.75543392  0.73603156  1
  O  O391  1  0.88332968  0.23780547  0.26298856  1
  O  O392  1  0.88424407  0.24611889  0.74575795  1
  O  O393  1  0.86457843  0.75843549  0.23250774  1
  O  O394  1  0.88227632  0.74862049  0.74605858  1
  O  O395  1  0.38191968  0.49006804  0.49260173  1
  O  O396  1  0.39082433  0.50177981  0.98451121  1
  O  O397  1  0.36946028  0.99180672  0.48970203  1
  O  O398  1  0.37740092  0.99415332  0.99464033  1
  O  O399  1  0.87011829  0.47275880  0.52335146  1
  O  O400  1  0.86693062  0.49073061  0.98461853  1
  O  O401  1  0.86574132  1.00527776  0.48398957  1
  O  O402  1  0.86702320  0.98631755  1.00513177  1
  O  O403  1  0.17168619  0.01118674  0.01336677  1
  O  O404  1  0.17517758  0.02265337  0.51753269  1
  O  O405  1  0.12728144  0.51459841  -0.00369338  1
  O  O406  1  0.12262244  0.49801906  0.51324294  1
  O  O407  1  0.61501842  0.00535966  0.00810151  1
  O  O408  1  0.62680258  0.01190123  0.50850575  1
  O  O409  1  0.61276713  0.50084475  -0.00070887  1
  O  O410  1  0.62174292  0.50578163  0.50460853  1
  O  O411  1  0.36063146  0.37688016  0.11851373  1
  O  O412  1  0.36852153  0.36799685  0.61954703  1
  O  O413  1  0.37088176  0.86271242  0.12035257  1
  O  O414  1  0.36997902  0.86627143  0.61892946  1
  O  O415  1  0.86224752  0.37928304  0.11727695  1
  O  O416  1  0.87160551  0.35993627  0.62519244  1
  O  O417  1  0.86982416  0.87151836  0.11593747  1
  O  O418  1  0.86439638  0.87348667  0.61988142  1
  O  O419  1  0.13592259  0.12638276  0.37486696  1
  O  O420  1  0.13905964  0.13534741  0.86707838  1
  O  O421  1  0.14181747  0.62106779  0.37324903  1
  O  O422  1  0.12463428  0.62779571  0.88729337  1
  O  O423  1  0.62604117  0.13489394  0.38231600  1
  O  O424  1  0.63077212  0.13065989  0.88631417  1
  O  O425  1  0.61701548  0.63589975  0.38503320  1
  O  O426  1  0.63769765  0.63077763  0.87052617  1
