# generated using pymatgen
data_V85Zn86O256
_symmetry_space_group_name_H-M   'P 1'
_cell_length_a   16.93301631
_cell_length_b   16.92275514
_cell_length_c   16.92999367
_cell_angle_alpha   90.05352892
_cell_angle_beta   89.95648607
_cell_angle_gamma   89.97755199
_symmetry_Int_Tables_number   1
_chemical_formula_structural   V85Zn86O256
_chemical_formula_sum   'V85 Zn86 O256'
_cell_volume   4851.34147608
_cell_formula_units_Z   1
loop_
 _symmetry_equiv_pos_site_id
 _symmetry_equiv_pos_as_xyz
  1  'x, y, z'
loop_
 _atom_site_type_symbol
 _atom_site_label
 _atom_site_symmetry_multiplicity
 _atom_site_fract_x
 _atom_site_fract_y
 _atom_site_fract_z
 _atom_site_occupancy
  V  V0  1  0.00013308  -0.00130628  0.49908190  1
  V  V1  1  0.00326142  0.87118508  0.37370864  1
  V  V2  1  0.24248079  0.24873036  0.00266442  1
  V  V3  1  0.25063453  0.74733516  -0.00179051  1
  V  V4  1  0.87157816  0.37456323  0.49982133  1
  V  V5  1  0.62271278  0.74876215  0.87742413  1
  V  V6  1  0.12497831  -0.00462027  0.62312009  1
  V  V7  1  0.62557289  0.25259026  0.36944953  1
  V  V8  1  0.37725664  0.74655073  0.12292358  1
  V  V9  1  0.75108607  0.74493641  0.49557859  1
  V  V10  1  0.74703658  0.25355286  0.50364656  1
  V  V11  1  0.38042990  0.62797543  0.73901528  1
  V  V12  1  0.38142672  0.24746488  0.12359091  1
  V  V13  1  0.37478534  -0.00554309  0.37625263  1
  V  V14  1  0.62911816  0.74646065  0.37178359  1
  V  V15  1  0.25435848  0.38072870  0.12514501  1
  V  V16  1  0.74563445  0.39132161  0.12891019  1
  V  V17  1  0.24756687  0.00036994  0.24485403  1
  V  V18  1  0.62550412  0.12606417  0.49853822  1
  V  V19  1  0.06338130  0.06718399  0.06036037  1
  V  V20  1  0.62560211  0.87444421  0.75132907  1
  V  V21  1  0.86097477  0.50142290  0.37223830  1
  V  V22  1  0.38334347  0.12328876  0.24461514  1
  V  V23  1  0.74846993  0.75267871  0.00393495  1
  V  V24  1  0.86382376  0.61897953  0.25269138  1
  V  V25  1  0.50502112  0.87497379  0.37287906  1
  V  V26  1  0.12451161  0.87288139  0.24642115  1
  V  V27  1  -0.00142118  0.24485766  0.24554670  1
  V  V28  1  -0.00161679  0.51066193  0.50352321  1
  V  V29  1  0.25134881  0.50377426  0.26558874  1
  V  V30  1  0.49933942  0.12734818  0.62334608  1
  V  V31  1  0.79536882  0.42781033  0.67925342  1
  V  V32  1  0.37309925  0.12551192  0.74891269  1
  V  V33  1  0.11666836  0.61841379  0.00119834  1
  V  V34  1  0.61530875  0.38304841  0.74980467  1
  V  V35  1  0.87865407  0.38276231  0.00153895  1
  V  V36  1  0.26440385  0.74613549  0.49509548  1
  V  V37  1  0.12852200  0.37433272  0.75138189  1
  V  V38  1  0.48519921  0.50048445  0.50227090  1
  V  V39  1  0.50817159  0.61936939  0.12333256  1
  V  V40  1  0.37505956  0.25275759  0.62124982  1
  V  V41  1  0.25012280  0.12360021  0.37392626  1
  V  V42  1  0.62937781  -0.00047264  0.11740134  1
  V  V43  1  0.00111178  0.25156940  0.75357535  1
  V  V44  1  0.12375561  0.24903727  0.37631445  1
  V  V45  1  0.48950093  0.37957869  0.37751025  1
  V  V46  1  0.62716544  0.00085463  0.62366023  1
  V  V47  1  -0.00294086  0.37703787  0.37672228  1
  V  V48  1  0.37706558  0.49767252  0.87586294  1
  V  V49  1  0.50448054  0.75428596  0.24757236  1
  V  V50  1  0.49923345  0.01187505  0.00612356  1
  V  V51  1  0.87516659  0.12130969  0.24018315  1
  V  V52  1  0.75386889  0.62083961  0.86198161  1
  V  V53  1  -0.00285024  0.73748788  0.74441046  1
  V  V54  1  0.12522951  0.75173637  0.87316542  1
  V  V55  1  0.25242634  0.37671474  0.61948496  1
  V  V56  1  0.50008933  0.74787785  0.73544409  1
  V  V57  1  0.12475405  0.51073995  0.62470087  1
  V  V58  1  0.50840729  0.49148235  -0.00179642  1
  V  V59  1  0.49827831  0.25219785  0.76014667  1
  V  V60  1  0.24066402  0.12405165  0.87976674  1
  V  V61  1  0.75563202  0.87368163  0.62423861  1
  V  V62  1  0.62005922  0.62239910  0.50467826  1
  V  V63  1  0.87547583  -0.00093028  0.37259544  1
  V  V64  1  0.24660433  0.87510381  0.12310146  1
  V  V65  1  -0.00157801  0.87700867  0.87568574  1
  V  V66  1  0.25520970  0.25280145  0.49688535  1
  V  V67  1  0.24914538  -0.00194950  0.74893062  1
  V  V68  1  0.00012495  0.12368621  0.62506944  1
  V  V69  1  0.37222133  0.62170874  0.26129122  1
  V  V70  1  0.37533542  -0.00196659  0.87654598  1
  V  V71  1  0.49697143  -0.00465784  0.50009597  1
  V  V72  1  0.62706337  0.39538662  0.25030875  1
  V  V73  1  0.87730938  0.00211748  0.88205841  1
  V  V74  1  0.12455414  0.37844861  0.25056529  1
  V  V75  1  0.26591341  0.87142850  0.61743575  1
  V  V76  1  0.87754237  0.73490521  0.62693671  1
  V  V77  1  0.87613910  0.74831401  0.12700951  1
  V  V78  1  0.87351106  0.12513005  0.75324241  1
  V  V79  1  0.87107133  0.24906060  0.62661636  1
  V  V80  1  0.74250452  0.24831176  0.00762465  1
  V  V81  1  0.73848732  0.12517823  0.88288482  1
  V  V82  1  0.74355831  -0.01525648  0.24805487  1
  V  V83  1  0.75045872  0.00069625  0.75154574  1
  V  V84  1  0.87544412  0.87586315  0.00700201  1
  Zn  Zn85  1  0.11973752  0.24880458  0.88129360  1
  Zn  Zn86  1  0.00365867  0.74123438  0.24796487  1
  Zn  Zn87  1  0.12348119  0.49882004  0.12376193  1
  Zn  Zn88  1  0.37881548  0.87364579  -0.00067843  1
  Zn  Zn89  1  0.62123052  0.50025596  0.62521157  1
  Zn  Zn90  1  0.13481340  0.74152740  0.37384252  1
  Zn  Zn91  1  -0.00669845  0.60940348  0.12380725  1
  Zn  Zn92  1  0.00539446  0.38640748  0.88349701  1
  Zn  Zn93  1  0.87743076  0.87157926  0.50008563  1
  Zn  Zn94  1  0.87323046  0.24949196  0.12447139  1
  Zn  Zn95  1  0.61897471  0.25421710  0.88084801  1
  Zn  Zn96  1  0.50422047  0.25097472  0.24574946  1
  Zn  Zn97  1  0.62953293  0.61966307  0.00326246  1
  Zn  Zn98  1  0.12476771  0.87214197  0.74642011  1
  Zn  Zn99  1  0.74972122  0.12362821  0.37225456  1
  Zn  Zn100  1  0.13076473  0.62760243  0.49294679  1
  Zn  Zn101  1  0.12471463  0.12507951  0.49884919  1
  Zn  Zn102  1  0.25498281  0.62588560  0.87269048  1
  Zn  Zn103  1  0.37813564  0.37264122  -0.00777270  1
  Zn  Zn104  1  0.25350195  0.50366257  0.74899111  1
  Zn  Zn105  1  0.87218868  0.50440737  0.87169539  1
  Zn  Zn106  1  0.50110144  0.87472851  0.87738285  1
  Zn  Zn107  1  0.18776433  0.18824098  0.18510645  1
  Zn  Zn108  1  0.18658230  0.18613589  0.68652203  1
  Zn  Zn109  1  0.18833593  0.68602033  0.18695914  1
  Zn  Zn110  1  0.19400658  0.69092299  0.68558675  1
  Zn  Zn111  1  0.68706096  0.18040608  0.18668477  1
  Zn  Zn112  1  0.68500490  0.19102781  0.69093015  1
  Zn  Zn113  1  0.68925992  0.69132738  0.18634265  1
  Zn  Zn114  1  0.68488661  0.68783458  0.68484723  1
  Zn  Zn115  1  0.31215721  0.31213535  0.30848497  1
  Zn  Zn116  1  0.31182000  0.31280471  0.81331639  1
  Zn  Zn117  1  0.31743472  0.81263926  0.31202357  1
  Zn  Zn118  1  0.31336136  0.81217526  0.80731519  1
  Zn  Zn119  1  0.80958033  0.31254408  0.30984927  1
  Zn  Zn120  1  0.81243450  0.30930990  0.82213737  1
  Zn  Zn121  1  0.81633585  0.80963826  0.31183487  1
  Zn  Zn122  1  0.81347349  0.80888739  0.81369947  1
  Zn  Zn123  1  0.18536041  0.43863368  0.43933432  1
  Zn  Zn124  1  0.19471967  0.43674207  0.93425495  1
  Zn  Zn125  1  0.18780581  0.93213711  0.43761726  1
  Zn  Zn126  1  0.18487787  0.93742991  0.94149116  1
  Zn  Zn127  1  0.68159313  0.43549604  0.44091834  1
  Zn  Zn128  1  0.68852416  0.43470719  0.93407281  1
  Zn  Zn129  1  0.68789105  0.93320720  0.43560983  1
  Zn  Zn130  1  0.68782270  0.93621340  0.94077380  1
  Zn  Zn131  1  0.30914426  0.06324073  0.06207546  1
  Zn  Zn132  1  0.31183347  0.06292432  0.55968355  1
  Zn  Zn133  1  0.31505334  0.56239201  0.06322555  1
  Zn  Zn134  1  0.31319060  0.56419265  0.56226983  1
  Zn  Zn135  1  0.81053101  0.06098233  0.06387162  1
  Zn  Zn136  1  0.81326088  0.06427658  0.55949820  1
  Zn  Zn137  1  0.81089511  0.56612560  0.05908831  1
  Zn  Zn138  1  0.81008424  0.56571947  0.55381002  1
  Zn  Zn139  1  0.43914787  0.43888140  0.18827624  1
  Zn  Zn140  1  0.43638221  0.43911161  0.68618137  1
  Zn  Zn141  1  0.43875518  0.93542186  0.18365007  1
  Zn  Zn142  1  0.44117191  0.93704271  0.69115619  1
  Zn  Zn143  1  0.93719963  0.43971160  0.18618412  1
  Zn  Zn144  1  0.96733293  0.46987726  0.71988954  1
  Zn  Zn145  1  0.94265165  0.94105519  0.18361694  1
  Zn  Zn146  1  0.93809646  0.93328324  0.69185587  1
  Zn  Zn147  1  0.06419129  0.06094779  0.30644995  1
  Zn  Zn148  1  0.06153249  0.06013836  0.81346652  1
  Zn  Zn149  1  0.05780517  0.56527574  0.31119680  1
  Zn  Zn150  1  0.06850771  0.56447529  0.81762933  1
  Zn  Zn151  1  0.56608094  0.06356866  0.30923728  1
  Zn  Zn152  1  0.55948860  0.06266787  0.81283501  1
  Zn  Zn153  1  0.55699149  0.56728049  0.31885661  1
  Zn  Zn154  1  0.56155826  0.56496331  0.81670998  1
  Zn  Zn155  1  0.43820877  0.18705482  0.43316198  1
  Zn  Zn156  1  0.42924385  0.18526209  0.93902739  1
  Zn  Zn157  1  0.43861750  0.68830934  0.44194941  1
  Zn  Zn158  1  0.44034418  0.68173249  0.93537342  1
  Zn  Zn159  1  0.93629679  0.18544606  0.43529916  1
  Zn  Zn160  1  0.93344398  0.19115972  0.94271904  1
  Zn  Zn161  1  0.93658101  0.68679640  0.43284530  1
  Zn  Zn162  1  0.93523470  0.68863475  0.93426487  1
  Zn  Zn163  1  0.06222431  0.31528658  0.06627414  1
  Zn  Zn164  1  0.06364964  0.31523580  0.56431083  1
  Zn  Zn165  1  0.05991418  0.81164993  0.06134652  1
  Zn  Zn166  1  0.06714474  0.80869789  0.55942601  1
  Zn  Zn167  1  0.56560593  0.31494982  0.06605990  1
  Zn  Zn168  1  0.56249426  0.31875567  0.56545628  1
  Zn  Zn169  1  0.56407365  0.82279034  0.06305912  1
  Zn  Zn170  1  0.56560247  0.81581045  0.55896161  1
  O  O171  1  0.12120140  0.11982934  0.12740715  1
  O  O172  1  0.11933555  0.11233480  0.62427097  1
  O  O173  1  0.12372529  0.62765374  0.10949758  1
  O  O174  1  0.13248572  0.61325200  0.62310740  1
  O  O175  1  0.61769499  0.09918021  0.14445393  1
  O  O176  1  0.61910366  0.11997210  0.61971969  1
  O  O177  1  0.61166786  0.63099197  0.12474366  1
  O  O178  1  0.62601527  0.62496331  0.61004687  1
  O  O179  1  0.39150589  0.36859390  0.36990800  1
  O  O180  1  0.37202433  0.39077195  0.87185292  1
  O  O181  1  0.38672325  0.88777042  0.36996081  1
  O  O182  1  0.37241467  0.88848679  0.87429179  1
  O  O183  1  0.88005346  0.37956672  0.37836797  1
  O  O184  1  0.87130282  0.37981995  0.89070217  1
  O  O185  1  0.88385216  0.88463699  0.37417979  1
  O  O186  1  0.88030559  0.88128021  0.88087605  1
  O  O187  1  0.25851229  0.00037850  0.36872781  1
  O  O188  1  0.25481020  0.00471192  0.87128562  1
  O  O189  1  0.25226568  0.49360537  0.36496822  1
  O  O190  1  0.26033962  0.50524719  0.86985219  1
  O  O191  1  0.75842878  -0.00334946  0.36628038  1
  O  O192  1  0.75515966  0.00639161  0.87179538  1
  O  O193  1  0.76243345  0.49441895  0.38377528  1
  O  O194  1  0.74985356  0.51687139  0.87873678  1
  O  O195  1  0.24806425  0.49323704  0.13084343  1
  O  O196  1  0.24455740  0.49166831  0.62476662  1
  O  O197  1  0.25799681  0.98753640  0.13301427  1
  O  O198  1  0.24328783  0.99323006  0.62592416  1
  O  O199  1  0.74691977  0.48973551  0.12125586  1
  O  O200  1  0.74414433  0.49417735  0.61943758  1
  O  O201  1  0.73991056  0.99890538  0.13406277  1
  O  O202  1  0.74811455  0.99386061  0.62918322  1
  O  O203  1  0.00108329  0.36915056  0.26293925  1
  O  O204  1  0.01579440  0.36397463  0.74274062  1
  O  O205  1  0.01064796  0.87588605  0.25398694  1
  O  O206  1  0.00276911  0.86709730  0.76204184  1
  O  O207  1  0.50856158  0.37551830  0.25953509  1
  O  O208  1  0.50732535  0.36701672  0.74770836  1
  O  O209  1  0.49361001  0.86244748  0.25667501  1
  O  O210  1  0.50742889  0.86850477  0.75527744  1
  O  O211  1  0.48622390  0.12713188  0.25686668  1
  O  O212  1  0.49367045  0.13145561  0.74284586  1
  O  O213  1  0.49050701  0.63221789  0.24381751  1
  O  O214  1  0.49153708  0.63395854  0.75318382  1
  O  O215  1  0.98986773  0.13356431  0.25840646  1
  O  O216  1  0.99422605  0.13171568  0.74584651  1
  O  O217  1  0.98550743  0.62506649  0.24399299  1
  O  O218  1  1.00400507  0.63883450  0.74981371  1
  O  O219  1  0.36600145  0.25309001  0.00694175  1
  O  O220  1  0.36310074  0.24396223  0.50276400  1
  O  O221  1  0.36919024  0.74921737  0.00490186  1
  O  O222  1  0.36494916  0.75217965  0.50096503  1
  O  O223  1  0.86186604  0.26180979  0.00298024  1
  O  O224  1  0.86810483  0.25405566  0.50476590  1
  O  O225  1  0.86886835  0.75553911  0.00543294  1
  O  O226  1  0.86821788  0.75044020  0.50568704  1
  O  O227  1  0.13378175  0.24807403  0.49435614  1
  O  O228  1  0.13802155  0.25661650  1.00024684  1
  O  O229  1  0.13958435  0.74897149  0.49787299  1
  O  O230  1  0.13152666  0.74420655  0.99212632  1
  O  O231  1  0.63063463  0.24809732  0.49438058  1
  O  O232  1  0.63605762  0.25568532  0.99809766  1
  O  O233  1  0.63075889  0.74551947  0.49313106  1
  O  O234  1  0.63174504  0.75404598  0.99445658  1
  O  O235  1  0.48608556  0.25555860  0.12580163  1
  O  O236  1  0.49286548  0.24610038  0.62910709  1
  O  O237  1  0.49472658  0.74748481  0.13041642  1
  O  O238  1  0.50582828  0.75728304  0.63615037  1
  O  O239  1  0.99538027  0.25925971  0.14277588  1
  O  O240  1  0.99374164  0.24484225  0.63306987  1
  O  O241  1  0.98626582  0.74743012  0.12466507  1
  O  O242  1  0.99318413  0.75779286  0.63666775  1
  O  O243  1  0.00289199  0.25699423  0.36998776  1
  O  O244  1  -0.00157017  0.25321624  0.86252410  1
  O  O245  1  -0.00276135  0.76387073  0.37122334  1
  O  O246  1  0.00534105  0.75384491  0.86377214  1
  O  O247  1  0.50916028  0.26065352  0.37550279  1
  O  O248  1  0.49621230  0.24368498  0.86371528  1
  O  O249  1  0.50412065  0.75759199  0.36871669  1
  O  O250  1  0.51323994  0.75050053  0.87302176  1
  O  O251  1  0.24715224  0.13237588  0.49157885  1
  O  O252  1  0.25469299  0.13436969  0.99050182  1
  O  O253  1  0.25281826  0.64202314  0.50540319  1
  O  O254  1  0.24425965  0.63706203  0.99993492  1
  O  O255  1  0.74449892  0.13402751  0.49509472  1
  O  O256  1  0.75340647  0.13290266  0.99384481  1
  O  O257  1  0.74102866  0.63863981  0.49820048  1
  O  O258  1  0.74706231  0.63846434  0.99387745  1
  O  O259  1  0.25517297  0.36938285  0.00859243  1
  O  O260  1  0.24591872  0.36512887  0.50692748  1
  O  O261  1  0.25196239  0.86425937  0.00634195  1
  O  O262  1  0.25105305  0.87121329  0.51204857  1
  O  O263  1  0.75336087  0.37057507  0.01175013  1
  O  O264  1  0.75402868  0.36117529  0.49712376  1
  O  O265  1  0.76091411  0.86245569  -0.00750277  1
  O  O266  1  0.75109269  0.86527930  0.50840973  1
  O  O267  1  0.13425281  0.49379803  0.25059380  1
  O  O268  1  0.12936646  0.49279201  0.74236540  1
  O  O269  1  0.13975067  0.98861137  0.25429117  1
  O  O270  1  0.13167752  0.99728993  0.74161772  1
  O  O271  1  0.62222466  0.49465849  0.25707813  1
  O  O272  1  0.61493482  0.48852684  0.74693785  1
  O  O273  1  0.64129910  0.99561452  0.25631368  1
  O  O274  1  0.63014475  0.99589214  0.74335938  1
  O  O275  1  0.36799325  0.00439008  0.25371472  1
  O  O276  1  0.37042143  0.00550955  0.75709906  1
  O  O277  1  0.36977447  0.51478026  0.24572813  1
  O  O278  1  0.37892607  0.51112944  0.75600905  1
  O  O279  1  0.86950263  0.00306876  0.25374719  1
  O  O280  1  0.86870423  0.00345622  0.76054651  1
  O  O281  1  0.87349727  0.50942213  0.25757735  1
  O  O282  1  0.85400678  0.48528103  0.73800819  1
  O  O283  1  0.11557224  0.36993448  0.37107667  1
  O  O284  1  0.12379349  0.37264349  0.86660746  1
  O  O285  1  0.11851980  0.87270003  0.36524273  1
  O  O286  1  0.11858666  0.86502242  0.87510939  1
  O  O287  1  0.62037277  0.36867388  0.36658052  1
  O  O288  1  0.63259736  0.37075481  0.85545334  1
  O  O289  1  0.61256368  0.86472131  0.37864199  1
  O  O290  1  0.62764641  0.86766770  0.86764471  1
  O  O291  1  0.36818455  0.13365721  0.13371694  1
  O  O292  1  0.37951673  0.13038728  0.62934873  1
  O  O293  1  0.38400883  0.63528957  0.12866671  1
  O  O294  1  0.37807734  0.62079055  0.64015179  1
  O  O295  1  0.87321529  0.12550898  0.13662484  1
  O  O296  1  0.88126171  0.12782400  0.63257597  1
  O  O297  1  0.87420616  0.63016288  0.13206595  1
  O  O298  1  0.87017849  0.63579183  0.62315858  1
  O  O299  1  0.25847550  0.25659580  0.12011897  1
  O  O300  1  0.25338627  0.25415491  0.61586683  1
  O  O301  1  0.25803767  0.75399263  0.11783542  1
  O  O302  1  0.25023056  0.76577610  0.61695726  1
  O  O303  1  0.75059593  0.25199316  0.12041454  1
  O  O304  1  0.75800542  0.24047910  0.61576385  1
  O  O305  1  0.76191812  0.74984623  0.11643907  1
  O  O306  1  0.75724588  0.75677274  0.61971765  1
  O  O307  1  0.24590515  0.24666519  0.38016823  1
  O  O308  1  0.25057119  0.24156759  0.88383844  1
  O  O309  1  0.25308125  0.76233128  0.39108089  1
  O  O310  1  0.24229796  0.75195636  0.88091176  1
  O  O311  1  0.74119418  0.24844195  0.38190449  1
  O  O312  1  0.74769383  0.23951452  0.88533586  1
  O  O313  1  0.74110701  0.75979507  0.38335991  1
  O  O314  1  0.74101968  0.74346968  0.87935727  1
  O  O315  1  0.00721462  0.13149947  0.00267416  1
  O  O316  1  0.00056894  0.11803180  0.50697040  1
  O  O317  1  0.01382682  0.62978684  -0.00283324  1
  O  O318  1  -0.00369277  0.61268784  0.49967494  1
  O  O319  1  0.49814574  0.11111893  -0.00647230  1
  O  O320  1  0.50574099  0.11628954  0.50272783  1
  O  O321  1  0.50393968  0.61613636  0.00821089  1
  O  O322  1  0.50428273  0.60979676  0.49366997  1
  O  O323  1  0.50554641  0.38414401  0.48621345  1
  O  O324  1  0.49712646  0.38766703  1.00533242  1
  O  O325  1  0.50368339  0.88834792  0.49274170  1
  O  O326  1  0.49618392  0.88810360  0.99478139  1
  O  O327  1  0.99285529  0.37761217  0.49161501  1
  O  O328  1  0.98348451  0.36704156  0.99921646  1
  O  O329  1  0.99984277  0.88032544  0.49119938  1
  O  O330  1  0.99084561  0.86532785  0.98434565  1
  O  O331  1  0.50112318  0.48731257  0.38392789  1
  O  O332  1  0.49447818  0.50450573  0.89103815  1
  O  O333  1  0.49688390  0.99426955  0.37907125  1
  O  O334  1  0.49125289  1.00000967  0.88189766  1
  O  O335  1  0.99115562  0.49061011  0.38411864  1
  O  O336  1  0.98438250  0.49242793  0.83899543  1
  O  O337  1  0.99539865  0.99071652  0.37661565  1
  O  O338  1  0.98896914  0.99100211  0.86989442  1
  O  O339  1  0.00228306  0.00416746  0.11333274  1
  O  O340  1  0.00599287  0.00153968  0.62191315  1
  O  O341  1  0.00958276  0.49571888  0.12422506  1
  O  O342  1  0.01209268  0.49291508  0.61683529  1
  O  O343  1  0.50065431  0.00102678  0.11125314  1
  O  O344  1  0.50495036  0.00453858  0.61736087  1
  O  O345  1  0.49307545  0.50840503  0.11180858  1
  O  O346  1  0.50199792  0.48942724  0.60611438  1
  O  O347  1  0.24684892  0.38369693  0.24479600  1
  O  O348  1  0.23986059  0.37245025  0.74189334  1
  O  O349  1  0.24614268  0.87953006  0.24295813  1
  O  O350  1  0.24804850  0.87968711  0.73683172  1
  O  O351  1  0.74389721  0.37469104  0.23719707  1
  O  O352  1  0.74220318  0.36835982  0.74518559  1
  O  O353  1  0.75812226  0.88691350  0.24855503  1
  O  O354  1  0.74681378  0.87958376  0.74374290  1
  O  O355  1  0.25660622  0.11631479  0.25433581  1
  O  O356  1  0.25564280  0.11833279  0.75430663  1
  O  O357  1  0.26353032  0.61931607  0.24456787  1
  O  O358  1  0.26568542  0.62781297  0.75118111  1
  O  O359  1  0.76033713  0.11349268  0.25419018  1
  O  O360  1  0.75569825  0.12040826  0.75774265  1
  O  O361  1  0.76441378  0.62887738  0.24748730  1
  O  O362  1  0.74560914  0.63018431  0.76317708  1
  O  O363  1  0.36971838  0.11480985  0.36689543  1
  O  O364  1  0.36424080  0.11432367  0.86928771  1
  O  O365  1  0.37947078  0.63041353  0.35907943  1
  O  O366  1  0.37536785  0.61429305  0.86792250  1
  O  O367  1  0.87494648  0.11025810  0.36905021  1
  O  O368  1  0.86846816  0.11766035  0.87249917  1
  O  O369  1  0.87600309  0.61669907  0.36255597  1
  O  O370  1  0.85955413  0.62595239  0.87565652  1
  O  O371  1  0.13879089  0.37289173  0.13332532  1
  O  O372  1  0.13607457  0.38035865  0.63016409  1
  O  O373  1  0.13733635  0.86747559  0.13016298  1
  O  O374  1  0.12963562  0.88640362  0.62494120  1
  O  O375  1  0.63657338  0.37369633  0.13642560  1
  O  O376  1  0.62791395  0.37421324  0.64279912  1
  O  O377  1  0.61418434  0.89840688  0.13346301  1
  O  O378  1  0.63764725  0.88044629  0.62943654  1
  O  O379  1  0.11850138  0.25608613  0.25696863  1
  O  O380  1  0.11781032  0.25517028  0.75036991  1
  O  O381  1  0.12552290  0.75987306  0.25127068  1
  O  O382  1  0.11725671  0.75048338  0.75550011  1
  O  O383  1  0.62454405  0.25186181  0.26014376  1
  O  O384  1  0.61205755  0.25575621  0.75197574  1
  O  O385  1  0.61531958  0.74548009  0.25760277  1
  O  O386  1  0.61902961  0.75435008  0.75690490  1
  O  O387  1  0.37500369  0.23990615  0.24216006  1
  O  O388  1  0.38029000  0.24522468  0.74399585  1
  O  O389  1  0.38037527  0.74126661  0.24187238  1
  O  O390  1  0.38627276  0.73837416  0.75641490  1
  O  O391  1  0.88077447  0.23894896  0.25293920  1
  O  O392  1  0.88114690  0.24660219  0.74659054  1
  O  O393  1  0.87670740  0.74049416  0.24302484  1
  O  O394  1  0.88841240  0.75321859  0.74289875  1
  O  O395  1  0.38607391  0.50111129  0.49943885  1
  O  O396  1  0.38290561  0.49916661  0.99215311  1
  O  O397  1  0.38525390  1.00725630  0.48868067  1
  O  O398  1  0.38257972  0.99997581  0.99385789  1
  O  O399  1  0.88042589  0.49306469  0.49563936  1
  O  O400  1  0.87101349  0.48643133  0.99889236  1
  O  O401  1  0.88070607  0.99707929  0.49042164  1
  O  O402  1  0.86710265  0.99116230  0.98956212  1
  O  O403  1  0.12425451  0.01064119  -0.00038136  1
  O  O404  1  0.11907847  0.00133192  0.50610148  1
  O  O405  1  0.13266421  0.51670342  -0.00505818  1
  O  O406  1  0.11574313  0.50072283  0.50777863  1
  O  O407  1  0.61702528  0.00036248  0.00876055  1
  O  O408  1  0.62040386  0.00488469  0.50414355  1
  O  O409  1  0.61218655  0.49858661  -0.00328070  1
  O  O410  1  0.61732196  0.50860831  0.50000397  1
  O  O411  1  0.36512520  0.36771345  0.12892722  1
  O  O412  1  0.36025263  0.36879573  0.63087672  1
  O  O413  1  0.36626859  0.86197096  0.12469606  1
  O  O414  1  0.36381358  0.88380383  0.62532768  1
  O  O415  1  0.86191878  0.37415044  0.11887449  1
  O  O416  1  0.86408269  0.37033599  0.62182038  1
  O  O417  1  0.88100768  0.87009032  0.11239058  1
  O  O418  1  0.86489719  0.87090283  0.62456891  1
  O  O419  1  0.13225453  0.13066962  0.37358212  1
  O  O420  1  0.13753121  0.12816492  0.86636227  1
  O  O421  1  0.11947624  0.62840047  0.37856404  1
  O  O422  1  0.12956721  0.63585986  0.88367659  1
  O  O423  1  0.62507307  0.13457200  0.38116646  1
  O  O424  1  0.63629298  0.12686172  0.86975953  1
  O  O425  1  0.61850284  0.63972534  0.38531185  1
  O  O426  1  0.63403560  0.63326594  0.87908577  1
