# generated using pymatgen
data_V85Zn86O256
_symmetry_space_group_name_H-M   'P 1'
_cell_length_a   16.94252587
_cell_length_b   16.92402192
_cell_length_c   16.93216013
_cell_angle_alpha   90.03914724
_cell_angle_beta   89.99841184
_cell_angle_gamma   89.97221963
_symmetry_Int_Tables_number   1
_chemical_formula_structural   V85Zn86O256
_chemical_formula_sum   'V85 Zn86 O256'
_cell_volume   4855.05272773
_cell_formula_units_Z   1
loop_
 _symmetry_equiv_pos_site_id
 _symmetry_equiv_pos_as_xyz
  1  'x, y, z'
loop_
 _atom_site_type_symbol
 _atom_site_label
 _atom_site_symmetry_multiplicity
 _atom_site_fract_x
 _atom_site_fract_y
 _atom_site_fract_z
 _atom_site_occupancy
  V  V0  1  0.37507317  0.74762526  0.11007010  1
  V  V1  1  0.00506937  0.51309512  0.01376281  1
  V  V2  1  0.25157173  0.12192872  0.37366930  1
  V  V3  1  0.75640517  0.50704221  0.74828111  1
  V  V4  1  0.37672310  0.37188668  0.49879457  1
  V  V5  1  0.00028446  0.11050235  0.11700045  1
  V  V6  1  0.50305637  0.37340361  0.87550046  1
  V  V7  1  0.75326754  0.13046311  0.38025897  1
  V  V8  1  0.50341272  0.11769240  0.12458807  1
  V  V9  1  0.24975825  0.37362593  0.62253890  1
  V  V10  1  0.49022394  0.62362972  0.63116514  1
  V  V11  1  0.62505677  0.37871825  0.24819506  1
  V  V12  1  0.86531558  0.86503464  0.49937714  1
  V  V13  1  0.63195340  0.12102288  0.50647486  1
  V  V14  1  0.50588915  0.61863666  0.12871079  1
  V  V15  1  0.87771109  0.39091733  0.49653052  1
  V  V16  1  0.24909392  0.50169054  0.24363817  1
  V  V17  1  0.37266849  0.24707822  0.12495312  1
  V  V18  1  0.37702473  0.24748500  0.62528475  1
  V  V19  1  0.50162711  0.50118763  0.50050059  1
  V  V20  1  0.61871011  0.88324038  0.74450720  1
  V  V21  1  0.12524847  0.24749034  0.37469159  1
  V  V22  1  0.62697786  0.11761478  0.00140358  1
  V  V23  1  0.13130646  0.86841954  0.25129715  1
  V  V24  1  0.50197344  -0.00416683  0.49184112  1
  V  V25  1  0.13666108  0.12206839  -0.00235794  1
  V  V26  1  0.12007293  0.50653370  0.61149591  1
  V  V27  1  -0.00109896  0.38387645  0.37912719  1
  V  V28  1  0.37582944  0.49900440  0.87139830  1
  V  V29  1  0.31715237  0.67200233  0.81387095  1
  V  V30  1  0.49925368  0.75912304  0.25165421  1
  V  V31  1  0.37696967  0.87191727  0.49561517  1
  V  V32  1  -0.00145016  0.24870245  0.75137284  1
  V  V33  1  0.37176576  0.12176820  0.75777456  1
  V  V34  1  0.12515812  0.37528653  0.75058620  1
  V  V35  1  0.25037582  0.49906867  0.75421122  1
  V  V36  1  0.62606446  0.61799809  0.00152252  1
  V  V37  1  0.25172951  -0.00347542  0.24755078  1
  V  V38  1  0.12204608  0.74190998  0.38705903  1
  V  V39  1  0.23899060  0.00644746  0.75105145  1
  V  V40  1  0.87721787  0.12144747  0.24954496  1
  V  V41  1  0.62611903  0.50313175  0.62622694  1
  V  V42  1  0.12383986  0.37777276  0.24575308  1
  V  V43  1  0.87632193  0.37628468  -0.00018157  1
  V  V44  1  0.50198588  0.24849409  0.74955555  1
  V  V45  1  0.00065233  0.87264681  0.37444414  1
  V  V46  1  0.37337175  0.36843819  -0.00033647  1
  V  V47  1  0.24541956  0.37339209  0.11909221  1
  V  V48  1  0.37770419  -0.00595733  0.88335017  1
  V  V49  1  0.50024724  0.74785642  0.75726953  1
  V  V50  1  0.00103523  0.24744132  0.24906447  1
  V  V51  1  0.62137502  0.75618379  0.87872314  1
  V  V52  1  0.00213091  -0.00235979  0.50815503  1
  V  V53  1  0.87929763  0.87931956  0.00018455  1
  V  V54  1  0.75545454  0.50303738  0.25378683  1
  V  V55  1  0.14263539  0.63011336  0.00353675  1
  V  V56  1  0.74458869  0.00251849  0.24563862  1
  V  V57  1  0.74595057  0.38012740  0.12486317  1
  V  V58  1  0.24812018  0.62268333  0.38228637  1
  V  V59  1  0.62825967  0.25137017  0.38173749  1
  V  V60  1  0.86422477  0.74515551  0.63626405  1
  V  V61  1  0.87605236  0.24887770  0.12497377  1
  V  V62  1  0.75196838  0.74826414  0.00353550  1
  V  V63  1  0.75087260  0.37129002  0.62049190  1
  V  V64  1  0.75367351  0.62677423  0.38103223  1
  V  V65  1  0.00175906  0.87774554  0.87771752  1
  V  V66  1  0.11558683  0.87486154  0.74285656  1
  V  V67  1  0.87977395  0.51120855  0.87108329  1
  V  V68  1  0.87609040  -0.00012581  0.37530369  1
  V  V69  1  0.12651491  0.11984946  0.50832901  1
  V  V70  1  0.87645118  0.24838689  0.61424322  1
  V  V71  1  0.86498924  0.12724204  0.75277516  1
  V  V72  1  0.75172959  0.24499409  -0.00314021  1
  V  V73  1  0.50353219  0.50035292  0.00238544  1
  V  V74  1  0.00097337  0.37701839  0.87865367  1
  V  V75  1  0.86968991  0.00561045  0.87670512  1
  V  V76  1  0.24370460  0.87931249  0.62046924  1
  V  V77  1  0.62404476  0.75666874  0.38008584  1
  V  V78  1  0.50175466  0.37389747  0.37494022  1
  V  V79  1  0.37667280  0.49991352  0.37254431  1
  V  V80  1  0.63117820  0.24534760  0.87367571  1
  V  V81  1  0.74155840  0.88130238  0.12368614  1
  V  V82  1  0.13699850  0.24852317  0.88142536  1
  V  V83  1  0.25325564  0.86702101  0.10759566  1
  V  V84  1  0.50149818  0.11457736  0.62530969  1
  Zn  Zn85  1  0.12829146  0.74382071  0.87440890  1
  Zn  Zn86  1  0.88211659  0.62400315  0.24754477  1
  Zn  Zn87  1  0.37093729  0.74777783  0.62723225  1
  Zn  Zn88  1  0.12371991  -0.00750047  0.11701003  1
  Zn  Zn89  1  0.88299000  0.74047692  0.12454745  1
  Zn  Zn90  1  0.62026375  0.88124090  0.25132314  1
  Zn  Zn91  1  0.62788576  0.37433273  0.74956903  1
  Zn  Zn92  1  0.00338311  0.12011414  0.63005157  1
  Zn  Zn93  1  0.00094718  0.73760714  0.24371790  1
  Zn  Zn94  1  0.50053089  0.24776045  0.24982488  1
  Zn  Zn95  1  -0.00434353  0.62407664  0.61919634  1
  Zn  Zn96  1  -0.00592768  0.73687507  0.75192460  1
  Zn  Zn97  1  0.74160310  0.88096595  0.62019817  1
  Zn  Zn98  1  0.37590369  0.62679275  0.24902221  1
  Zn  Zn99  1  0.25124782  0.74453755  0.50445839  1
  Zn  Zn100  1  0.74385518  0.00388177  0.74664728  1
  Zn  Zn101  1  0.37728946  0.12366343  0.24985307  1
  Zn  Zn102  1  0.62487753  0.63310033  0.50231176  1
  Zn  Zn103  1  0.37823488  -0.00749315  0.37073352  1
  Zn  Zn104  1  0.25077867  0.24634261  0.49885400  1
  Zn  Zn105  1  0.75177001  0.62887275  0.87032627  1
  Zn  Zn106  1  0.50633854  -0.01310803  0.00031412  1
  Zn  Zn107  1  0.18768666  0.18717217  0.18339191  1
  Zn  Zn108  1  0.18721603  0.18967740  0.68971014  1
  Zn  Zn109  1  0.18507450  0.68508169  0.18538319  1
  Zn  Zn110  1  0.17901263  0.69252780  0.68381244  1
  Zn  Zn111  1  0.68665760  0.19055782  0.18816023  1
  Zn  Zn112  1  0.68911437  0.18924024  0.68387007  1
  Zn  Zn113  1  0.68956164  0.68856832  0.18846530  1
  Zn  Zn114  1  0.68652789  0.69162578  0.68545291  1
  Zn  Zn115  1  0.31186591  0.31056837  0.30892724  1
  Zn  Zn116  1  0.31480977  0.31251995  0.81106595  1
  Zn  Zn117  1  0.31415927  0.80662550  0.31281753  1
  Zn  Zn118  1  0.30424836  0.83344118  0.81039483  1
  Zn  Zn119  1  0.81367159  0.31241058  0.31438360  1
  Zn  Zn120  1  0.81340960  0.31787552  0.80989870  1
  Zn  Zn121  1  0.81089057  0.80888565  0.30956797  1
  Zn  Zn122  1  0.80575680  0.81778576  0.81537101  1
  Zn  Zn123  1  0.18992106  0.43380564  0.43248772  1
  Zn  Zn124  1  0.18478819  0.44412253  0.93985232  1
  Zn  Zn125  1  0.18774852  0.93709923  0.43684497  1
  Zn  Zn126  1  0.18516387  0.94279718  0.93098825  1
  Zn  Zn127  1  0.69154182  0.44088502  0.43959954  1
  Zn  Zn128  1  0.69116805  0.43572059  0.93444079  1
  Zn  Zn129  1  0.68620916  0.94171318  0.43331287  1
  Zn  Zn130  1  0.69024003  0.93532311  0.93042807  1
  Zn  Zn131  1  0.30921208  0.06162005  0.06533454  1
  Zn  Zn132  1  0.31435644  0.05770852  0.56419517  1
  Zn  Zn133  1  0.31850248  0.56062988  0.06225415  1
  Zn  Zn134  1  0.31219049  0.55796115  0.56319705  1
  Zn  Zn135  1  0.81307181  0.06071802  0.06215759  1
  Zn  Zn136  1  0.81368332  0.05655775  0.56705204  1
  Zn  Zn137  1  0.81435410  0.56094587  0.06169676  1
  Zn  Zn138  1  0.81106644  0.56526093  0.55952643  1
  Zn  Zn139  1  0.43751234  0.43632452  0.18739963  1
  Zn  Zn140  1  0.43883643  0.43591017  0.68924909  1
  Zn  Zn141  1  0.43347256  0.93526761  0.17964419  1
  Zn  Zn142  1  0.43378327  0.93482870  0.68674070  1
  Zn  Zn143  1  0.93569486  0.43857623  0.18979992  1
  Zn  Zn144  1  0.93965973  0.43909342  0.68683855  1
  Zn  Zn145  1  0.95273009  0.90544557  0.17142892  1
  Zn  Zn146  1  0.93027905  0.93664984  0.68600157  1
  Zn  Zn147  1  0.06485225  0.05705898  0.31184473  1
  Zn  Zn148  1  0.05731442  0.06227349  0.81932213  1
  Zn  Zn149  1  0.06278642  0.56235869  0.31257690  1
  Zn  Zn150  1  0.06467506  0.56849023  0.81005653  1
  Zn  Zn151  1  0.56338805  0.06619663  0.31412417  1
  Zn  Zn152  1  0.55867022  0.06479450  0.81871968  1
  Zn  Zn153  1  0.56872902  0.56476595  0.31267845  1
  Zn  Zn154  1  0.56463806  0.56527057  0.81386535  1
  Zn  Zn155  1  0.43926148  0.18475950  0.43746912  1
  Zn  Zn156  1  0.43938698  0.18450175  0.93851194  1
  Zn  Zn157  1  0.43872799  0.68728809  0.43711216  1
  Zn  Zn158  1  0.44107915  0.81415800  0.93944092  1
  Zn  Zn159  1  0.94236093  0.18745388  0.43790279  1
  Zn  Zn160  1  0.94161626  0.18624891  0.93766512  1
  Zn  Zn161  1  0.93988975  0.67996308  0.43963134  1
  Zn  Zn162  1  0.94027045  0.69185574  0.93734786  1
  Zn  Zn163  1  0.06175769  0.30866135  0.06147966  1
  Zn  Zn164  1  0.06265848  0.31216534  0.56153124  1
  Zn  Zn165  1  0.06660433  0.80325261  0.05903276  1
  Zn  Zn166  1  0.05423519  0.80449058  0.56334612  1
  Zn  Zn167  1  0.56177471  0.30743357  0.06298385  1
  Zn  Zn168  1  0.56465566  0.30965619  0.56249190  1
  Zn  Zn169  1  0.56593662  0.80725008  0.06951372  1
  Zn  Zn170  1  0.55586097  0.81099728  0.56643264  1
  O  O171  1  0.11804109  0.12334770  0.11460141  1
  O  O172  1  0.12410827  0.13075489  0.61194541  1
  O  O173  1  0.12579997  0.63052985  0.10566267  1
  O  O174  1  0.13578815  0.60721764  0.62200823  1
  O  O175  1  0.61537484  0.13505375  0.11494583  1
  O  O176  1  0.61715237  0.13217590  0.61414779  1
  O  O177  1  0.61771877  0.62926371  0.11515292  1
  O  O178  1  0.61640013  0.61846828  0.62308607  1
  O  O179  1  0.38054576  0.37850924  0.37851004  1
  O  O180  1  0.38151107  0.37826293  0.88160382  1
  O  O181  1  0.36863110  0.87407504  0.39059334  1
  O  O182  1  0.37774365  0.88744867  0.87458198  1
  O  O183  1  0.88218785  0.36874932  0.38913063  1
  O  O184  1  0.88375302  0.38133048  0.88085467  1
  O  O185  1  0.88125448  0.87721093  0.38305276  1
  O  O186  1  0.87716836  0.88216500  0.88348348  1
  O  O187  1  0.25175910  0.00645597  0.36640582  1
  O  O188  1  0.26217688  -0.00463289  0.86125067  1
  O  O189  1  0.25528242  0.50268725  0.36490033  1
  O  O190  1  0.25765634  0.49172345  0.86203347  1
  O  O191  1  0.75679936  0.01281720  0.37003264  1
  O  O192  1  0.76423900  -0.00281708  0.86525176  1
  O  O193  1  0.74350974  0.51501912  0.36816932  1
  O  O194  1  0.76110252  0.49892575  0.86571065  1
  O  O195  1  0.25846449  0.48969937  0.13699734  1
  O  O196  1  0.24867433  0.48884319  0.63416726  1
  O  O197  1  0.24920469  0.98561539  0.13073143  1
  O  O198  1  0.25283642  0.98857198  0.63516710  1
  O  O199  1  0.74978031  0.48464797  0.13001200  1
  O  O200  1  0.74494289  0.49441705  0.62843795  1
  O  O201  1  0.75048568  0.99699491  0.13467693  1
  O  O202  1  0.75064712  0.99499438  0.63380122  1
  O  O203  1  0.00639657  0.36909078  0.25490977  1
  O  O204  1  0.00376128  0.36640613  0.75747634  1
  O  O205  1  0.01307144  0.88547522  0.26739309  1
  O  O206  1  0.00798893  0.87943531  0.75276434  1
  O  O207  1  0.50873589  0.37315758  0.25595187  1
  O  O208  1  0.50350250  0.36612447  0.75590548  1
  O  O209  1  0.50030996  0.86371397  0.24244367  1
  O  O210  1  0.50714795  0.86365420  0.74569780  1
  O  O211  1  0.49942784  0.12729032  0.24127427  1
  O  O212  1  0.49395106  0.12824161  0.74278180  1
  O  O213  1  0.50204522  0.62842071  0.24133314  1
  O  O214  1  0.50341461  0.63310037  0.74323462  1
  O  O215  1  0.99725214  0.12797792  0.24419939  1
  O  O216  1  0.99538104  0.13738106  0.75073819  1
  O  O217  1  0.99758181  0.62429880  0.25154600  1
  O  O218  1  1.00597905  0.62422182  0.73431023  1
  O  O219  1  0.37858438  0.26201171  0.00347414  1
  O  O220  1  0.37434704  0.25353544  0.50729993  1
  O  O221  1  0.37996980  0.74487583  0.01089653  1
  O  O222  1  0.37418084  0.75678227  0.50360766  1
  O  O223  1  0.86908752  0.25512167  0.00281671  1
  O  O224  1  0.87970120  0.25139389  0.51229019  1
  O  O225  1  0.86670070  0.75886103  0.00101433  1
  O  O226  1  0.87428933  0.76380236  0.50254325  1
  O  O227  1  0.12653304  0.24103180  0.49150004  1
  O  O228  1  0.12091881  0.23986681  0.99130922  1
  O  O229  1  0.13036845  0.75785918  0.48895412  1
  O  O230  1  0.12841590  0.73784660  0.99212757  1
  O  O231  1  0.62309186  0.24092211  0.48896717  1
  O  O232  1  0.63344672  0.24419680  0.99281361  1
  O  O233  1  0.61412810  0.75230347  0.48469985  1
  O  O234  1  0.63093691  0.74100080  0.99474207  1
  O  O235  1  0.48789824  0.24167535  0.12458150  1
  O  O236  1  0.49600643  0.24097784  0.63013552  1
  O  O237  1  0.49378830  0.73866350  0.13388988  1
  O  O238  1  0.49381443  0.74058537  0.63785921  1
  O  O239  1  0.99354929  0.24268515  0.13186617  1
  O  O240  1  0.99346507  0.25047764  0.63504584  1
  O  O241  1  0.98971478  0.79191665  0.13846144  1
  O  O242  1  0.97838843  0.75570782  0.63118602  1
  O  O243  1  0.00856357  0.25335864  0.36720920  1
  O  O244  1  0.00476485  0.26146500  0.86990767  1
  O  O245  1  0.00787891  0.75846340  0.37244323  1
  O  O246  1  -0.00451208  0.76513928  0.86846754  1
  O  O247  1  0.50899472  0.25588222  0.37455906  1
  O  O248  1  0.50771223  0.25382820  0.86975914  1
  O  O249  1  0.51146858  0.74265030  0.36329812  1
  O  O250  1  0.50472212  0.74811155  0.86564466  1
  O  O251  1  0.24397732  0.12232082  0.49303037  1
  O  O252  1  0.23547215  0.12905604  1.00634158  1
  O  O253  1  0.25569070  0.62194322  0.48675495  1
  O  O254  1  0.24121477  0.61281020  0.99770224  1
  O  O255  1  0.74312347  0.11988109  0.49321245  1
  O  O256  1  0.74482395  0.13874891  1.00696076  1
  O  O257  1  0.74340285  0.62169418  0.48583490  1
  O  O258  1  0.74302827  0.63141741  0.99694722  1
  O  O259  1  0.25695237  0.38327804  0.01102492  1
  O  O260  1  0.25800469  0.37103054  0.50657539  1
  O  O261  1  0.24396226  0.87579916  0.00966691  1
  O  O262  1  0.25614879  0.87690043  0.50756546  1
  O  O263  1  0.75388995  0.36727984  0.00754100  1
  O  O264  1  0.76536917  0.37868810  0.50639464  1
  O  O265  1  0.75328118  0.86897435  0.00381405  1
  O  O266  1  0.76349550  0.88145498  0.49537337  1
  O  O267  1  0.13421064  0.48444501  0.25443291  1
  O  O268  1  0.13596088  0.49203957  0.74478395  1
  O  O269  1  0.13705234  0.98826626  0.24839655  1
  O  O270  1  0.13272833  0.99848527  0.75564640  1
  O  O271  1  0.63442394  0.48465558  0.25467753  1
  O  O272  1  0.63014808  0.49658750  0.73948582  1
  O  O273  1  0.63984620  1.00027645  0.26002147  1
  O  O274  1  0.61777921  0.98590308  0.75945670  1
  O  O275  1  0.36405042  -0.00018114  0.25090115  1
  O  O276  1  0.36834924  0.00543106  0.75663441  1
  O  O277  1  0.36714877  0.49854513  0.25714293  1
  O  O278  1  0.36955513  0.49307481  0.76287050  1
  O  O279  1  0.86562925  0.00816177  0.25845098  1
  O  O280  1  0.87656076  0.01281062  0.75526688  1
  O  O281  1  0.85891615  0.49537160  0.25212329  1
  O  O282  1  0.86841981  0.49404062  0.75813887  1
  O  O283  1  0.12048757  0.36517220  0.36814215  1
  O  O284  1  0.11809926  0.37083610  0.87184237  1
  O  O285  1  0.12031413  0.86715584  0.37035276  1
  O  O286  1  0.11651499  0.87378725  0.86727722  1
  O  O287  1  0.62376435  0.36827275  0.37311635  1
  O  O288  1  0.62013389  0.36396108  0.87461564  1
  O  O289  1  0.63047981  0.86140800  0.37069387  1
  O  O290  1  0.62335480  0.86207926  0.86788978  1
  O  O291  1  0.37945004  0.13255855  0.12460792  1
  O  O292  1  0.38263364  0.12867782  0.63253181  1
  O  O293  1  0.38443932  0.63023483  0.12694061  1
  O  O294  1  0.38588380  0.62236522  0.62463815  1
  O  O295  1  0.88356915  0.12800224  0.12934892  1
  O  O296  1  0.87913359  0.13401672  0.63326829  1
  O  O297  1  0.86116447  0.62910052  0.13309759  1
  O  O298  1  0.86747721  0.64244164  0.62127671  1
  O  O299  1  0.26262468  0.25900411  0.12814114  1
  O  O300  1  0.25568880  0.26087667  0.62539412  1
  O  O301  1  0.25922951  0.75997709  0.12905643  1
  O  O302  1  0.25153903  0.76192513  0.62469534  1
  O  O303  1  0.75725670  0.25770235  0.11871427  1
  O  O304  1  0.76014509  0.26387770  0.62954986  1
  O  O305  1  0.74710932  0.75983708  0.11314347  1
  O  O306  1  0.75872044  0.75915449  0.62477084  1
  O  O307  1  0.24216494  0.24185520  0.37420647  1
  O  O308  1  0.23578130  0.25543558  0.86967755  1
  O  O309  1  0.24274640  0.73812900  0.37625910  1
  O  O310  1  0.25874843  0.73864246  0.86423507  1
  O  O311  1  0.74469531  0.23830799  0.37268575  1
  O  O312  1  0.74368472  0.25860109  0.88440518  1
  O  O313  1  0.73396021  0.73982555  0.36837515  1
  O  O314  1  0.74242581  0.74936568  0.88693488  1
  O  O315  1  0.00695239  0.12904000  0.01291047  1
  O  O316  1  0.00923957  0.11586335  0.50064758  1
  O  O317  1  -0.00446047  0.61452652  0.00331173  1
  O  O318  1  0.00907071  0.63433588  0.50899451  1
  O  O319  1  0.51083981  0.12372432  0.00651638  1
  O  O320  1  0.50686312  0.11805964  0.50742489  1
  O  O321  1  0.51085629  0.61347499  0.00988424  1
  O  O322  1  0.50180017  0.61666903  0.50928335  1
  O  O323  1  0.49629425  0.37989095  0.49551977  1
  O  O324  1  0.49442672  0.37996143  0.99688327  1
  O  O325  1  0.49128208  0.88586832  0.50787438  1
  O  O326  1  0.50239867  0.87512868  1.00908002  1
  O  O327  1  0.98753864  0.36821988  0.49296584  1
  O  O328  1  0.99773969  0.38157931  0.99317034  1
  O  O329  1  0.99319761  0.88008332  0.49070349  1
  O  O330  1  0.99022269  0.87278647  0.99136583  1
  O  O331  1  0.49774278  0.49403287  0.37941855  1
  O  O332  1  0.49447090  0.49376663  0.87878440  1
  O  O333  1  0.49594827  1.00675789  0.38698454  1
  O  O334  1  0.48241842  1.00494202  0.87968661  1
  O  O335  1  1.00795979  0.48242447  0.37519929  1
  O  O336  1  0.99545020  0.49042537  0.87859176  1
  O  O337  1  0.99477593  0.99424355  0.38357995  1
  O  O338  1  0.98664602  0.98661011  0.87041444  1
  O  O339  1  0.00347187  0.00681698  0.13200740  1
  O  O340  1  -0.00480206  0.00063365  0.61196409  1
  O  O341  1  -0.00312093  0.49352718  0.11053483  1
  O  O342  1  0.01778577  0.49419526  0.62533336  1
  O  O343  1  0.49283709  0.01373114  0.12003683  1
  O  O344  1  0.49504179  0.01117540  0.61855547  1
  O  O345  1  0.49546997  0.50902714  0.11944309  1
  O  O346  1  0.50735644  0.50432046  0.62400063  1
  O  O347  1  0.24308923  0.37915521  0.24127783  1
  O  O348  1  0.24740663  0.38077277  0.74196290  1
  O  O349  1  0.24513561  0.87938447  0.24980701  1
  O  O350  1  0.23442775  0.88568126  0.74086197  1
  O  O351  1  0.74488744  0.37787332  0.24507586  1
  O  O352  1  0.74963752  0.38646414  0.73860036  1
  O  O353  1  0.75153210  0.88622118  0.24093519  1
  O  O354  1  0.72825112  0.87444260  0.75130767  1
  O  O355  1  0.24857716  0.11525283  0.25520033  1
  O  O356  1  0.25855694  0.11681100  0.74169121  1
  O  O357  1  0.25036964  0.61489455  0.25630062  1
  O  O358  1  0.25412604  0.61874376  0.74929810  1
  O  O359  1  0.75591895  0.12196512  0.25586539  1
  O  O360  1  0.76191694  0.13012144  0.75036328  1
  O  O361  1  0.74409775  0.61548887  0.25967720  1
  O  O362  1  0.74282578  0.61117983  0.75014558  1
  O  O363  1  0.36137135  0.12569173  0.37325800  1
  O  O364  1  0.37664027  0.12058610  0.86238325  1
  O  O365  1  0.36934946  0.61585489  0.37165836  1
  O  O366  1  0.37288793  0.61433409  0.87511560  1
  O  O367  1  0.86964204  0.12306600  0.37165458  1
  O  O368  1  0.88227421  0.11816197  0.86663760  1
  O  O369  1  0.85669042  0.63521597  0.37230327  1
  O  O370  1  0.87399700  0.61411197  0.87772611  1
  O  O371  1  0.13464396  0.36705894  0.13180562  1
  O  O372  1  0.13400528  0.37726620  0.63061906  1
  O  O373  1  0.13919048  0.87226234  0.13282122  1
  O  O374  1  0.12892524  0.87076405  0.63074271  1
  O  O375  1  0.63363258  0.36354307  0.13592370  1
  O  O376  1  0.63547472  0.38003535  0.62369754  1
  O  O377  1  0.63771621  0.87594031  0.12952336  1
  O  O378  1  0.62192391  0.86994652  0.64051982  1
  O  O379  1  0.12190463  0.25760499  0.25401010  1
  O  O380  1  0.11675262  0.25491305  0.75705333  1
  O  O381  1  0.12584685  0.75955094  0.25807135  1
  O  O382  1  0.12080437  0.76123147  0.75492805  1
  O  O383  1  0.62537772  0.25936015  0.26351631  1
  O  O384  1  0.62196446  0.25064478  0.75729483  1
  O  O385  1  0.61561736  0.75292426  0.25676761  1
  O  O386  1  0.61629685  0.75476794  0.75842194  1
  O  O387  1  0.37865942  0.24775481  0.23930637  1
  O  O388  1  0.38034826  0.24145618  0.74532860  1
  O  O389  1  0.38519527  0.74653641  0.24455258  1
  O  O390  1  0.37540679  0.74267744  0.75790349  1
  O  O391  1  0.88023897  0.24231823  0.24544845  1
  O  O392  1  0.88185761  0.24718698  0.74419945  1
  O  O393  1  0.87966363  0.75039484  0.24470620  1
  O  O394  1  0.86987916  0.75745568  0.73949402  1
  O  O395  1  0.38163293  0.49137337  0.49339341  1
  O  O396  1  0.38107330  0.48877965  0.98927345  1
  O  O397  1  0.38370370  0.99272930  0.49754592  1
  O  O398  1  0.36991086  1.00783687  0.98404449  1
  O  O399  1  0.87806461  0.48949212  0.50233352  1
  O  O400  1  0.88370134  0.49402948  0.99115838  1
  O  O401  1  0.88378738  0.99276302  0.49328210  1
  O  O402  1  0.87065031  0.99425810  0.98907737  1
  O  O403  1  0.12652325  0.01538517  -0.00102748  1
  O  O404  1  0.11572496  0.00858318  0.49341114  1
  O  O405  1  0.11073422  0.50964978  -0.00188028  1
  O  O406  1  0.13403153  0.48936084  0.51457361  1
  O  O407  1  0.62877293  0.01470014  -0.01085745  1
  O  O408  1  0.61666400  0.01024671  0.49527505  1
  O  O409  1  0.62311842  0.51023128  -0.00820039  1
  O  O410  1  0.61986698  0.49874401  0.51356671  1
  O  O411  1  0.36986810  0.36820561  0.11743786  1
  O  O412  1  0.36921170  0.36946778  0.62067500  1
  O  O413  1  0.36050591  0.86532365  0.12440545  1
  O  O414  1  0.36468923  0.87214779  0.61660452  1
  O  O415  1  0.86821210  0.36854967  0.11924380  1
  O  O416  1  0.87221714  0.37085794  0.61419115  1
  O  O417  1  0.85944120  0.88332081  0.10831184  1
  O  O418  1  0.87086960  0.86899894  0.61147703  1
  O  O419  1  0.13489703  0.12804343  0.37983281  1
  O  O420  1  0.11822750  0.13353034  0.88903211  1
  O  O421  1  0.13513189  0.63211017  0.37139801  1
  O  O422  1  0.11770461  0.62602649  0.89244417  1
  O  O423  1  0.63327606  0.13274684  0.38365933  1
  O  O424  1  0.62226366  0.13861624  0.88245512  1
  O  O425  1  0.63177807  0.63580870  0.37835325  1
  O  O426  1  0.62658104  0.63635461  0.88328220  1
