# generated using pymatgen
data_V85Zn86O256
_symmetry_space_group_name_H-M   'P 1'
_cell_length_a   16.95912310
_cell_length_b   16.95971142
_cell_length_c   16.97271946
_cell_angle_alpha   90.03378568
_cell_angle_beta   89.96919714
_cell_angle_gamma   89.99327945
_symmetry_Int_Tables_number   1
_chemical_formula_structural   V85Zn86O256
_chemical_formula_sum   'V85 Zn86 O256'
_cell_volume   4881.72310675
_cell_formula_units_Z   1
loop_
 _symmetry_equiv_pos_site_id
 _symmetry_equiv_pos_as_xyz
  1  'x, y, z'
loop_
 _atom_site_type_symbol
 _atom_site_label
 _atom_site_symmetry_multiplicity
 _atom_site_fract_x
 _atom_site_fract_y
 _atom_site_fract_z
 _atom_site_occupancy
  V  V0  1  0.87656000  0.12523639  0.75039767  1
  V  V1  1  0.62668986  0.00070540  0.62139834  1
  V  V2  1  0.88351120  0.00225601  0.87998275  1
  V  V3  1  0.12616520  0.74567679  0.38322697  1
  V  V4  1  0.36466024  0.52041550  0.86894373  1
  V  V5  1  0.50012505  0.50028391  -0.00093566  1
  V  V6  1  0.74586267  0.37285161  0.62284760  1
  V  V7  1  0.00246931  0.87171933  0.86858160  1
  V  V8  1  0.87252031  0.12483584  0.25273784  1
  V  V9  1  0.87576732  0.25100611  0.12597857  1
  V  V10  1  0.25234023  0.25225758  0.00114129  1
  V  V11  1  0.62342011  0.36919294  0.25517058  1
  V  V12  1  0.87187436  0.87411594  0.50609196  1
  V  V13  1  0.37810679  0.87209468  -0.00644457  1
  V  V14  1  0.75028715  0.12563348  0.87650212  1
  V  V15  1  0.86859601  0.00433390  0.37623660  1
  V  V16  1  0.00370636  0.49744583  0.00019637  1
  V  V17  1  0.62717394  0.74971133  0.37483685  1
  V  V18  1  0.50245324  -0.00127988  0.49881084  1
  V  V19  1  0.62149407  0.24752111  0.87085497  1
  V  V20  1  0.62721852  0.62563105  0.00389650  1
  V  V21  1  0.24891587  0.74009766  -0.00288393  1
  V  V22  1  0.87594581  0.37626288  0.00047720  1
  V  V23  1  0.38029021  0.13382986  0.74930591  1
  V  V24  1  0.61548635  0.50771210  0.62762337  1
  V  V25  1  0.74885482  0.86289007  0.62901703  1
  V  V26  1  0.00295890  0.12231287  0.62356805  1
  V  V27  1  0.26108131  0.25146775  0.50333428  1
  V  V28  1  0.37156873  0.49077007  0.36996411  1
  V  V29  1  0.87160082  0.62584886  0.25672577  1
  V  V30  1  0.49895463  0.37339691  0.87076917  1
  V  V31  1  0.26945311  0.11850000  0.36732706  1
  V  V32  1  0.38021186  0.73389364  0.63036090  1
  V  V33  1  0.62325777  0.87914132  0.25267367  1
  V  V34  1  0.00415007  0.62149548  0.12860694  1
  V  V35  1  0.61745170  0.75811327  0.87841714  1
  V  V36  1  0.75070743  0.75181588  0.00238680  1
  V  V37  1  0.88439068  0.87904237  0.00240933  1
  V  V38  1  0.36319323  0.61915912  0.25351877  1
  V  V39  1  0.49931041  0.62069340  0.12981749  1
  V  V40  1  0.01289095  0.63148681  0.61053239  1
  V  V41  1  0.12799928  0.12198705  0.49297371  1
  V  V42  1  0.24993968  0.12613288  0.87430895  1
  V  V43  1  0.88280336  0.64065987  0.74020205  1
  V  V44  1  0.87650977  0.50169239  0.87426995  1
  V  V45  1  0.00093247  0.24876146  0.25317355  1
  V  V46  1  0.12297697  0.11873932  0.00007961  1
  V  V47  1  0.87412886  0.38197211  0.50090487  1
  V  V48  1  0.12098652  0.38474692  0.25129978  1
  V  V49  1  0.62298624  0.23452888  0.37716729  1
  V  V50  1  0.50302269  0.12808709  0.62554782  1
  V  V51  1  0.24481383  0.50608839  0.73173705  1
  V  V52  1  0.74874700  0.74502134  0.49919478  1
  V  V53  1  0.75215384  0.62725673  0.87585127  1
  V  V54  1  0.87585501  0.74942804  0.12445605  1
  V  V55  1  0.13827722  0.49355251  0.12660836  1
  V  V56  1  0.75072244  -0.00117231  0.75080487  1
  V  V57  1  0.87433045  0.24895125  0.62367902  1
  V  V58  1  0.38136645  -0.00228031  0.87330681  1
  V  V59  1  0.62656306  0.37357404  0.75182585  1
  V  V60  1  0.75018542  0.37769110  0.12630597  1
  V  V61  1  0.74405716  0.00600855  0.25183629  1
  V  V62  1  0.49663651  0.74570290  0.25868489  1
  V  V63  1  0.74933783  0.50257978  0.26182049  1
  V  V64  1  0.37099798  0.37450843  -0.00703922  1
  V  V65  1  0.12555582  0.74041093  0.86673674  1
  V  V66  1  -0.00039533  0.11624395  0.12290677  1
  V  V67  1  0.37544193  0.87780215  0.50814317  1
  V  V68  1  0.75473015  0.50280926  0.74771393  1
  V  V69  1  0.24867995  -0.00297045  0.74669079  1
  V  V70  1  0.61230620  0.87734731  0.75626310  1
  V  V71  1  0.74522636  0.23464447  0.49296649  1
  V  V72  1  -0.00049796  0.75071751  0.24782117  1
  V  V73  1  0.62349857  0.62407521  0.49499058  1
  V  V74  1  0.12599492  0.87921365  0.24984731  1
  V  V75  1  0.28314344  0.35579270  0.15740729  1
  V  V76  1  0.24875028  0.87452584  0.12140750  1
  V  V77  1  0.48118008  0.13825021  0.12895221  1
  V  V78  1  0.44334938  0.92878115  0.33305565  1
  V  V79  1  0.62453377  0.12426371  0.00913169  1
  V  V80  1  -0.00077491  0.87761207  0.37725310  1
  V  V81  1  0.49374075  0.49981611  0.49568734  1
  V  V82  1  -0.00304045  0.38208722  0.38128970  1
  V  V83  1  0.50533841  -0.00192073  0.00277785  1
  V  V84  1  0.74522392  0.88089686  0.12542944  1
  Zn  Zn85  1  0.26642630  0.00129136  0.24972331  1
  Zn  Zn86  1  0.12998524  0.24752224  0.37327406  1
  Zn  Zn87  1  0.12507878  -0.00135912  0.12271306  1
  Zn  Zn88  1  0.24836773  0.74704254  0.50495465  1
  Zn  Zn89  1  0.75078893  0.25120159  -0.00102074  1
  Zn  Zn90  1  0.37312364  0.74573793  0.12515440  1
  Zn  Zn91  1  0.62445699  0.49711364  0.12844031  1
  Zn  Zn92  1  0.49021358  0.72850053  0.75260397  1
  Zn  Zn93  1  0.50261867  0.36627410  0.37653972  1
  Zn  Zn94  1  0.00138543  -0.00113347  0.50065810  1
  Zn  Zn95  1  0.87441194  0.50894393  0.38385496  1
  Zn  Zn96  1  0.00640186  0.25437857  0.74835895  1
  Zn  Zn97  1  0.23296746  0.60749285  0.37833530  1
  Zn  Zn98  1  0.12128539  0.87233352  0.74622188  1
  Zn  Zn99  1  0.11881776  0.49370495  0.60518434  1
  Zn  Zn100  1  0.24579916  0.87125429  0.62544314  1
  Zn  Zn101  1  0.12129879  0.25301174  0.87174958  1
  Zn  Zn102  1  0.13100309  0.62035968  -0.00261229  1
  Zn  Zn103  1  0.12949277  0.37303826  0.74243441  1
  Zn  Zn104  1  0.36660451  0.26410812  0.63048190  1
  Zn  Zn105  1  0.00264342  0.37379224  0.86827911  1
  Zn  Zn106  1  0.12616352  -0.00356192  0.62361847  1
  Zn  Zn107  1  0.18698444  0.18719186  0.18994841  1
  Zn  Zn108  1  0.18706029  0.18617390  0.68521702  1
  Zn  Zn109  1  0.18505340  0.68887602  0.18924879  1
  Zn  Zn110  1  0.19577878  0.68263671  0.68771464  1
  Zn  Zn111  1  0.68693375  0.19017732  0.18818853  1
  Zn  Zn112  1  0.68615038  0.18680848  0.68658839  1
  Zn  Zn113  1  0.68741499  0.68853320  0.18906116  1
  Zn  Zn114  1  0.65657920  0.67412847  0.70165766  1
  Zn  Zn115  1  0.31315161  0.31145564  0.32477398  1
  Zn  Zn116  1  0.30641908  0.31729655  0.81142425  1
  Zn  Zn117  1  0.30741578  0.80734141  0.30818215  1
  Zn  Zn118  1  0.31109341  0.80766524  0.81165682  1
  Zn  Zn119  1  0.80985819  0.31269957  0.31526615  1
  Zn  Zn120  1  0.81529823  0.31291150  0.81243584  1
  Zn  Zn121  1  0.81055008  0.81475396  0.31444203  1
  Zn  Zn122  1  0.80789433  0.81462916  0.81645203  1
  Zn  Zn123  1  0.19005124  0.42866986  0.43830211  1
  Zn  Zn124  1  0.18724596  0.43696559  0.92893135  1
  Zn  Zn125  1  0.19307586  0.93962856  0.43665584  1
  Zn  Zn126  1  0.18896509  0.93633427  0.93458995  1
  Zn  Zn127  1  0.68601169  0.43248476  0.44045995  1
  Zn  Zn128  1  0.68804598  0.43873229  0.93855497  1
  Zn  Zn129  1  0.68510688  0.93572702  0.43591711  1
  Zn  Zn130  1  0.69089103  0.94030571  0.93880857  1
  Zn  Zn131  1  0.31144606  0.05949635  0.06072907  1
  Zn  Zn132  1  0.31609130  0.06383773  0.56154158  1
  Zn  Zn133  1  0.31491759  0.55346479  0.06485596  1
  Zn  Zn134  1  0.30722460  0.56658718  0.55419959  1
  Zn  Zn135  1  0.81149510  0.06192859  0.06359089  1
  Zn  Zn136  1  0.81199926  0.05844018  0.56474132  1
  Zn  Zn137  1  0.81418599  0.56133499  0.06695469  1
  Zn  Zn138  1  0.80931533  0.56543313  0.56686954  1
  Zn  Zn139  1  0.43725621  0.42598914  0.19213968  1
  Zn  Zn140  1  0.43227876  0.44369212  0.69186127  1
  Zn  Zn141  1  0.44054073  0.93741405  0.16649461  1
  Zn  Zn142  1  0.43707460  0.93895451  0.68690873  1
  Zn  Zn143  1  0.93873046  0.44073726  0.19064496  1
  Zn  Zn144  1  0.94617513  0.44162057  0.68129014  1
  Zn  Zn145  1  0.93509432  0.93810169  0.18992448  1
  Zn  Zn146  1  0.93597980  0.93674532  0.68799559  1
  Zn  Zn147  1  0.06252342  0.06098026  0.31257917  1
  Zn  Zn148  1  0.06330250  0.06430215  0.81137665  1
  Zn  Zn149  1  0.06026600  0.56277251  0.43513551  1
  Zn  Zn150  1  0.06258862  0.56108128  0.80583936  1
  Zn  Zn151  1  0.56216252  0.07108208  0.30285674  1
  Zn  Zn152  1  0.56134931  0.06232455  0.81361779  1
  Zn  Zn153  1  0.56412495  0.56220985  0.31570966  1
  Zn  Zn154  1  0.56271487  0.56188926  0.81760114  1
  Zn  Zn155  1  0.44218390  0.18265881  0.44019690  1
  Zn  Zn156  1  0.43811689  0.18865444  0.94016374  1
  Zn  Zn157  1  0.42887925  0.68241631  0.44245087  1
  Zn  Zn158  1  0.44059319  0.68929420  0.94150553  1
  Zn  Zn159  1  0.93751296  0.18880597  0.43938609  1
  Zn  Zn160  1  0.94027564  0.19017295  0.93921128  1
  Zn  Zn161  1  0.93441274  0.69668733  0.43809051  1
  Zn  Zn162  1  0.94165648  0.68603045  0.93625628  1
  Zn  Zn163  1  0.06559352  0.30838445  0.06282024  1
  Zn  Zn164  1  0.06761608  0.30902589  0.56218253  1
  Zn  Zn165  1  0.06482915  0.81083393  0.05797458  1
  Zn  Zn166  1  0.05728767  0.80928933  0.56955534  1
  Zn  Zn167  1  0.56401569  0.31102043  0.05908076  1
  Zn  Zn168  1  0.52650704  0.33477633  0.58628575  1
  Zn  Zn169  1  0.56007836  0.81100078  0.06829675  1
  Zn  Zn170  1  0.55730763  0.81381018  0.56440920  1
  O  O171  1  0.11747340  0.12320026  0.11998962  1
  O  O172  1  0.11641468  0.12063785  0.61612546  1
  O  O173  1  0.12005540  0.61322477  0.12710288  1
  O  O174  1  0.11506013  0.62806630  0.62265221  1
  O  O175  1  0.62507593  0.13203062  0.11063361  1
  O  O176  1  0.62263489  0.10590280  0.63517160  1
  O  O177  1  0.61749841  0.62389997  0.12160731  1
  O  O178  1  0.64105136  0.61517370  0.60488832  1
  O  O179  1  0.38508934  0.38708491  0.37606723  1
  O  O180  1  0.38354682  0.37980078  0.88000145  1
  O  O181  1  0.37806734  0.86459657  0.38367140  1
  O  O182  1  0.37018962  0.88153002  0.88593057  1
  O  O183  1  0.87945627  0.37499554  0.38426439  1
  O  O184  1  0.87394365  0.38351864  0.88534716  1
  O  O185  1  0.88069467  0.88377878  0.37980105  1
  O  O186  1  0.88011900  0.88091594  0.88374114  1
  O  O187  1  0.25050300  0.01369047  0.36870621  1
  O  O188  1  0.26088713  0.00966726  0.87283036  1
  O  O189  1  0.26814006  0.49380295  0.37494261  1
  O  O190  1  0.26470049  0.50946980  0.88338715  1
  O  O191  1  0.75741668  -0.00648320  0.36501852  1
  O  O192  1  0.76122860  0.00585933  0.87057519  1
  O  O193  1  0.75350136  0.49595130  0.36445453  1
  O  O194  1  0.75540734  0.50594440  0.86798617  1
  O  O195  1  0.24126252  0.48040583  0.12449083  1
  O  O196  1  0.25259711  0.50150073  0.62920124  1
  O  O197  1  0.25099593  0.98716881  0.12951605  1
  O  O198  1  0.25049031  1.00019478  0.63496253  1
  O  O199  1  0.74995148  0.48855027  0.13294217  1
  O  O200  1  0.74257697  0.49296787  0.63206329  1
  O  O201  1  0.75471849  0.98696441  0.13363607  1
  O  O202  1  0.74327746  0.99071704  0.63042047  1
  O  O203  1  0.00307214  0.36822869  0.25749987  1
  O  O204  1  -0.00319221  0.37210209  0.75119860  1
  O  O205  1  0.00375636  0.87041238  0.25659502  1
  O  O206  1  -0.00229762  0.87698242  0.76473482  1
  O  O207  1  0.52095781  0.37698599  0.25277353  1
  O  O208  1  0.51180262  0.38504831  0.76575617  1
  O  O209  1  0.50190475  0.87047813  0.25383892  1
  O  O210  1  0.51143413  0.87715589  0.75124136  1
  O  O211  1  0.50091811  0.12574251  0.22733534  1
  O  O212  1  0.49010655  0.11626549  0.74165635  1
  O  O213  1  0.49667938  0.62944040  0.24462911  1
  O  O214  1  0.55013144  0.63404825  0.73615826  1
  O  O215  1  0.99390389  0.13121987  0.24444683  1
  O  O216  1  0.99258505  0.12636141  0.74097414  1
  O  O217  1  0.98997918  0.63299586  0.23575184  1
  O  O218  1  0.98500415  0.62596491  0.74791286  1
  O  O219  1  0.36236601  0.25905840  -0.00490337  1
  O  O220  1  0.36466485  0.23987019  0.50222545  1
  O  O221  1  0.36889387  0.75632893  0.00037474  1
  O  O222  1  0.38206554  0.76254416  0.51162803  1
  O  O223  1  0.87334833  0.25897094  0.00829771  1
  O  O224  1  0.86453549  0.25303345  0.50869319  1
  O  O225  1  0.87063288  0.75755789  0.00475971  1
  O  O226  1  0.86216916  0.76583751  0.49204442  1
  O  O227  1  0.13561097  0.23526934  0.49717908  1
  O  O228  1  0.13711862  0.23995686  0.99993483  1
  O  O229  1  0.12383966  0.75888740  0.48490663  1
  O  O230  1  0.13382056  0.74518673  0.99275684  1
  O  O231  1  0.64066362  0.25046121  0.48659253  1
  O  O232  1  0.62959691  0.24316815  0.98748747  1
  O  O233  1  0.62680937  0.74709810  0.49340879  1
  O  O234  1  0.62971477  0.74818859  0.99706764  1
  O  O235  1  0.49719157  0.23720177  0.11282356  1
  O  O236  1  0.52155329  0.22627267  0.61960203  1
  O  O237  1  0.49786847  0.73843373  0.13819116  1
  O  O238  1  0.48481903  0.75690227  0.63122771  1
  O  O239  1  0.99467046  0.24315514  0.13596792  1
  O  O240  1  0.98905936  0.23623966  0.62184146  1
  O  O241  1  0.99673730  0.74285650  0.12658086  1
  O  O242  1  0.99468915  0.73172277  0.62420473  1
  O  O243  1  -0.00349717  0.25515206  0.36264979  1
  O  O244  1  0.00040925  0.25285960  0.86990661  1
  O  O245  1  0.00610555  0.76223695  0.36959874  1
  O  O246  1  0.01499100  0.75821897  0.88259161  1
  O  O247  1  0.51781831  0.24791229  0.38271093  1
  O  O248  1  0.50944599  0.25965751  0.87954558  1
  O  O249  1  0.50832868  0.74254939  0.36425470  1
  O  O250  1  0.51403169  0.74641505  0.87278181  1
  O  O251  1  0.24660462  0.12473342  0.48633659  1
  O  O252  1  0.24665641  0.13128723  0.99385321  1
  O  O253  1  0.26773510  0.63883180  0.48102253  1
  O  O254  1  0.25232441  0.63723670  1.01174452  1
  O  O255  1  0.75209801  0.13623252  0.50544980  1
  O  O256  1  0.74240707  0.12464219  0.99419769  1
  O  O257  1  0.74998017  0.64088046  0.49920954  1
  O  O258  1  0.74756904  0.63097312  0.99893047  1
  O  O259  1  0.25754851  0.36568649  -0.00722225  1
  O  O260  1  0.25229678  0.34959177  0.49035835  1
  O  O261  1  0.25554940  0.86734689  0.00542507  1
  O  O262  1  0.26386615  0.87113781  0.49892575  1
  O  O263  1  0.75688160  0.37666670  0.00945006  1
  O  O264  1  0.75644985  0.36461039  0.50666057  1
  O  O265  1  0.75733999  0.87234285  0.00944840  1
  O  O266  1  0.75293826  0.86841393  0.50784085  1
  O  O267  1  0.11770872  0.48559547  0.24229728  1
  O  O268  1  0.13707845  0.50181837  0.74396141  1
  O  O269  1  0.12275513  0.98614497  0.24683512  1
  O  O270  1  0.13505756  0.99834955  0.74991570  1
  O  O271  1  0.63468582  0.49360929  0.24998222  1
  O  O272  1  0.63798706  0.49486845  0.74450876  1
  O  O273  1  0.63265093  0.99200560  0.25355718  1
  O  O274  1  0.63198585  0.99264467  0.74902197  1
  O  O275  1  0.38522135  -0.02224703  0.26024999  1
  O  O276  1  0.37043176  0.00574843  0.75835765  1
  O  O277  1  0.38228686  0.50425661  0.26238318  1
  O  O278  1  0.36804567  0.50162797  0.76352729  1
  O  O279  1  0.86619486  0.00390220  0.25771479  1
  O  O280  1  0.86984657  0.00599224  0.75862185  1
  O  O281  1  0.86768703  0.51003362  0.25102987  1
  O  O282  1  0.86405813  0.50575719  0.75276873  1
  O  O283  1  0.11394951  0.36946401  0.36618533  1
  O  O284  1  0.12071914  0.37205106  0.86876236  1
  O  O285  1  0.11686636  0.87242117  0.36843394  1
  O  O286  1  0.11614115  0.86790269  0.87553974  1
  O  O287  1  0.63005502  0.36341861  0.36791711  1
  O  O288  1  0.62111444  0.36807338  0.87256729  1
  O  O289  1  0.62499649  0.86666112  0.36155543  1
  O  O290  1  0.63058706  0.86933433  0.87044041  1
  O  O291  1  0.38141813  0.12605248  0.12058670  1
  O  O292  1  0.38584599  0.12586623  0.63423520  1
  O  O293  1  0.38167849  0.62124558  0.13522126  1
  O  O294  1  0.37949772  0.63602380  0.62085559  1
  O  O295  1  0.88136942  0.13010665  0.12971577  1
  O  O296  1  0.87984249  0.12997585  0.62818936  1
  O  O297  1  0.88216269  0.63132156  0.13151650  1
  O  O298  1  0.87313202  0.62710947  0.63837334  1
  O  O299  1  0.24554687  0.26290214  0.11846256  1
  O  O300  1  0.25471064  0.23825707  0.60881033  1
  O  O301  1  0.24953614  0.75979827  0.11914620  1
  O  O302  1  0.26447512  0.75240979  0.62446472  1
  O  O303  1  0.75718495  0.26228933  0.12497653  1
  O  O304  1  0.75285794  0.25356348  0.61612134  1
  O  O305  1  0.75546609  0.76096359  0.12259336  1
  O  O306  1  0.73847495  0.76157556  0.61743457  1
  O  O307  1  0.25145233  0.23453888  0.38114771  1
  O  O308  1  0.25078282  0.23716775  0.88173092  1
  O  O309  1  0.22922155  0.75420885  0.37121067  1
  O  O310  1  0.23628651  0.75439911  0.88461014  1
  O  O311  1  0.74876390  0.24690768  0.38748402  1
  O  O312  1  0.74593145  0.24159739  0.87684124  1
  O  O313  1  0.73608176  0.75784757  0.38306697  1
  O  O314  1  0.74300616  0.74683580  0.88637685  1
  O  O315  1  0.01018130  0.13141185  0.01161584  1
  O  O316  1  0.00826021  0.12309089  0.50507574  1
  O  O317  1  0.00011448  0.61372686  0.01190018  1
  O  O318  1  -0.00517305  0.62803799  0.50459466  1
  O  O319  1  0.50675557  0.11851811  0.00398986  1
  O  O320  1  0.49454649  0.10631790  0.50876604  1
  O  O321  1  0.50543284  0.62181063  0.01149144  1
  O  O322  1  0.51133099  0.61286366  0.49498063  1
  O  O323  1  0.51836972  0.39795179  0.49105941  1
  O  O324  1  0.49614111  0.38105649  0.98973792  1
  O  O325  1  0.48993208  0.88508879  0.49898411  1
  O  O326  1  0.49109076  0.88284294  1.00836674  1
  O  O327  1  0.98638803  0.35935295  0.48959974  1
  O  O328  1  0.99556570  0.38599311  1.00401138  1
  O  O329  1  0.98950335  0.87603929  0.49377883  1
  O  O330  1  0.98881236  0.87312819  0.99320437  1
  O  O331  1  0.49549065  0.49820300  0.38273416  1
  O  O332  1  0.49453776  0.49502028  0.88055825  1
  O  O333  1  0.50583127  1.00003727  0.37933836  1
  O  O334  1  0.48749925  1.00489025  0.88494032  1
  O  O335  1  0.99291042  0.48619294  0.37655817  1
  O  O336  1  0.99430362  0.50198089  0.88506816  1
  O  O337  1  0.99187253  0.98893870  0.37479710  1
  O  O338  1  0.98885223  0.99458072  0.87376756  1
  O  O339  1  -0.00103433  0.01295705  0.12933197  1
  O  O340  1  -0.00272264  0.01134397  0.62229641  1
  O  O341  1  0.00770704  0.50572430  0.12004404  1
  O  O342  1  -0.00127334  0.52448651  0.62555990  1
  O  O343  1  0.49972899  0.01327138  0.10808983  1
  O  O344  1  0.50851229  0.00280379  0.61796868  1
  O  O345  1  0.50154478  0.50868370  0.12176522  1
  O  O346  1  0.51194128  0.50361564  0.61458057  1
  O  O347  1  0.22633516  0.36950645  0.25582283  1
  O  O348  1  0.25059174  0.39868082  0.75877688  1
  O  O349  1  0.24207063  0.87576581  0.24094600  1
  O  O350  1  0.25067454  0.88873436  0.75294119  1
  O  O351  1  0.74602816  0.38262180  0.24413379  1
  O  O352  1  0.74607923  0.38209287  0.74471929  1
  O  O353  1  0.74257856  0.88230906  0.24418060  1
  O  O354  1  0.74722202  0.88246497  0.74400239  1
  O  O355  1  0.24917363  0.12278630  0.26207865  1
  O  O356  1  0.25685823  0.11501356  0.75818418  1
  O  O357  1  0.26025815  0.62779595  0.25503672  1
  O  O358  1  0.25213281  0.60599789  0.75118580  1
  O  O359  1  0.75548155  0.11213789  0.24145456  1
  O  O360  1  0.75637211  0.11846829  0.75633944  1
  O  O361  1  0.75928220  0.61534505  0.24181864  1
  O  O362  1  0.75330827  0.61811881  0.75634458  1
  O  O363  1  0.36805410  0.12425757  0.37087387  1
  O  O364  1  0.37021081  0.11841525  0.87016878  1
  O  O365  1  0.38202359  0.61151990  0.36344464  1
  O  O366  1  0.38340440  0.61809267  0.87321854  1
  O  O367  1  0.88068242  0.11106612  0.37126377  1
  O  O368  1  0.87171087  0.11809996  0.87352500  1
  O  O369  1  0.88064614  0.62772427  0.36054646  1
  O  O370  1  0.87054817  0.61994306  0.86887169  1
  O  O371  1  0.11784178  0.38008223  0.13841694  1
  O  O372  1  0.11564678  0.38176269  0.62738960  1
  O  O373  1  0.13055075  0.87602805  0.12990916  1
  O  O374  1  0.12661395  0.87749741  0.62852636  1
  O  O375  1  0.63470105  0.37287060  0.13124272  1
  O  O376  1  0.62565437  0.38398446  0.63404994  1
  O  O377  1  0.63290982  0.86820928  0.13991451  1
  O  O378  1  0.62974224  0.88222880  0.63570145  1
  O  O379  1  0.11351536  0.25749583  0.25028847  1
  O  O380  1  0.12594899  0.25007122  0.75249860  1
  O  O381  1  0.11714028  0.76139959  0.25497254  1
  O  O382  1  0.13378243  0.75134709  0.76449831  1
  O  O383  1  0.63831106  0.25609066  0.26706284  1
  O  O384  1  0.63207634  0.25620941  0.76314571  1
  O  O385  1  0.61856647  0.75466684  0.25744747  1
  O  O386  1  0.63672410  0.76739307  0.76565773  1
  O  O387  1  0.36191615  0.32430450  0.22223768  1
  O  O388  1  0.36683598  0.23688391  0.75102440  1
  O  O389  1  0.38168052  0.73952975  0.24950188  1
  O  O390  1  0.37716092  0.75156012  0.73771117  1
  O  O391  1  0.87866433  0.24375044  0.24616364  1
  O  O392  1  0.86978310  0.24334918  0.73496179  1
  O  O393  1  0.87815680  0.74656547  0.24449199  1
  O  O394  1  0.86782417  0.73768784  0.75673560  1
  O  O395  1  0.38897689  0.50497826  0.48868401  1
  O  O396  1  0.38204025  0.49831632  0.98515999  1
  O  O397  1  0.38233282  0.98604297  0.49979263  1
  O  O398  1  0.38085614  0.99178996  0.99255809  1
  O  O399  1  0.86477732  0.48624946  0.50152137  1
  O  O400  1  0.88326778  0.49521412  0.99768342  1
  O  O401  1  0.87282547  0.99038080  0.49224045  1
  O  O402  1  0.86965877  0.99053708  0.99223688  1
  O  O403  1  0.13328302  0.01419626  0.00254652  1
  O  O404  1  0.12389734  0.00941984  0.49993322  1
  O  O405  1  0.12006143  0.50026200  0.00846816  1
  O  O406  1  0.13656815  0.50728736  0.49233280  1
  O  O407  1  0.61619229  0.01021728  -0.00846646  1
  O  O408  1  0.61730344  -0.00947266  0.51019740  1
  O  O409  1  0.61859762  0.50705164  0.00320939  1
  O  O410  1  0.62449760  0.50891633  0.50448936  1
  O  O411  1  0.37243779  0.39748435  0.09848439  1
  O  O412  1  0.41968907  0.36044693  0.62242543  1
  O  O413  1  0.36636543  0.86913852  0.11189358  1
  O  O414  1  0.37156544  0.87575315  0.61506890  1
  O  O415  1  0.86997486  0.37291105  0.12105076  1
  O  O416  1  0.86969142  0.36616058  0.61845690  1
  O  O417  1  0.87004790  0.87038191  0.11911278  1
  O  O418  1  0.86379060  0.88030921  0.61642724  1
  O  O419  1  0.12538157  0.12737569  0.38095200  1
  O  O420  1  0.13391254  0.12471112  0.88287735  1
  O  O421  1  0.11820721  0.64221309  0.36770254  1
  O  O422  1  0.11724947  0.63749296  0.87820063  1
  O  O423  1  0.62838649  0.13560798  0.37095811  1
  O  O424  1  0.62888820  0.13174939  0.88007249  1
  O  O425  1  0.62819561  0.63353249  0.38449547  1
  O  O426  1  0.63466480  0.63342874  0.88767856  1
