# generated using pymatgen
data_V85Zn86O256
_symmetry_space_group_name_H-M   'P 1'
_cell_length_a   16.94909884
_cell_length_b   16.94442875
_cell_length_c   16.93982296
_cell_angle_alpha   89.85769269
_cell_angle_beta   89.95750842
_cell_angle_gamma   89.93918058
_symmetry_Int_Tables_number   1
_chemical_formula_structural   V85Zn86O256
_chemical_formula_sum   'V85 Zn86 O256'
_cell_volume   4864.97607316
_cell_formula_units_Z   1
loop_
 _symmetry_equiv_pos_site_id
 _symmetry_equiv_pos_as_xyz
  1  'x, y, z'
loop_
 _atom_site_type_symbol
 _atom_site_label
 _atom_site_symmetry_multiplicity
 _atom_site_fract_x
 _atom_site_fract_y
 _atom_site_fract_z
 _atom_site_occupancy
  V  V0  1  0.12366139  -0.00025873  0.12485581  1
  V  V1  1  0.62402235  0.25136288  0.87136378  1
  V  V2  1  0.37215288  0.24951239  0.61714089  1
  V  V3  1  0.48990186  0.38071173  0.37408919  1
  V  V4  1  0.24688104  0.00056987  0.25153051  1
  V  V5  1  0.12891285  0.61839178  0.00730293  1
  V  V6  1  0.37690788  0.00109037  0.87674995  1
  V  V7  1  0.74951388  -0.00178729  0.74618305  1
  V  V8  1  0.75195962  0.76389561  0.50440375  1
  V  V9  1  0.12364762  0.61743292  0.50994087  1
  V  V10  1  0.62116799  0.75802082  0.86865561  1
  V  V11  1  0.37459503  0.12913429  0.75099108  1
  V  V12  1  0.26244081  0.50243040  0.75072841  1
  V  V13  1  0.49616178  0.38066109  0.87134297  1
  V  V14  1  0.12018388  0.87800771  0.75355645  1
  V  V15  1  0.37727065  0.87586128  0.00140944  1
  V  V16  1  0.25323706  0.61134108  0.37381275  1
  V  V17  1  0.00333319  0.24507849  0.25143164  1
  V  V18  1  0.00603695  0.36573542  0.37587785  1
  V  V19  1  0.87940922  0.87509334  -0.01404827  1
  V  V20  1  0.87971413  0.00563762  0.86694149  1
  V  V21  1  0.49571289  0.75072196  0.24697728  1
  V  V22  1  0.37188183  0.25176590  0.12512320  1
  V  V23  1  0.62703032  0.50395568  0.12386545  1
  V  V24  1  -0.00213766  0.74232933  0.75076759  1
  V  V25  1  0.74985936  0.50017282  0.24910584  1
  V  V26  1  0.49864242  0.50412834  -0.00661149  1
  V  V27  1  0.00969025  0.24031806  0.75609073  1
  V  V28  1  0.50274778  -0.00204609  -0.00237091  1
  V  V29  1  0.00115435  0.74699865  0.25279891  1
  V  V30  1  0.75591069  0.50536807  0.76222430  1
  V  V31  1  0.87745658  0.75212803  0.12527855  1
  V  V32  1  -0.00990003  0.12393060  0.12746085  1
  V  V33  1  0.00487097  0.61275232  0.12896596  1
  V  V34  1  0.87568181  0.37172667  0.50042708  1
  V  V35  1  0.24629916  0.39065197  0.12766009  1
  V  V36  1  0.62901732  -0.01057118  0.62258196  1
  V  V37  1  0.74866033  0.62257218  0.37600571  1
  V  V38  1  -0.00379204  0.12534434  0.61875879  1
  V  V39  1  0.12267203  0.87336164  0.25380022  1
  V  V40  1  -0.01415392  -0.00650964  0.50068897  1
  V  V41  1  0.49115310  0.50190174  0.50090252  1
  V  V42  1  0.75675432  0.12583447  0.35800231  1
  V  V43  1  0.37172834  0.12461014  0.25680546  1
  V  V44  1  0.49928683  0.12440178  0.12465445  1
  V  V45  1  0.87102730  0.24634398  0.63503902  1
  V  V46  1  0.24953919  0.00148095  0.74711901  1
  V  V47  1  0.62350535  0.74836065  0.37454398  1
  V  V48  1  0.75083628  0.25029845  -0.00112297  1
  V  V49  1  0.24375538  0.37845920  0.62360393  1
  V  V50  1  0.12208964  0.12981385  -0.00246246  1
  V  V51  1  0.00111542  -0.00320317  -0.00475768  1
  V  V52  1  0.26476774  0.75354454  0.50255297  1
  V  V53  1  0.86920991  -0.00676545  0.36179559  1
  V  V54  1  0.49913311  0.25312971  0.74677541  1
  V  V55  1  0.62394204  0.37600623  0.25257124  1
  V  V56  1  0.23407544  0.24424323  0.49908465  1
  V  V57  1  0.26167273  0.61901786  0.87373409  1
  V  V58  1  0.75224132  0.37616053  0.12424341  1
  V  V59  1  0.24948055  0.75189626  0.00260635  1
  V  V60  1  0.75263010  0.88334494  0.12819176  1
  V  V61  1  0.62606625  0.62774354  -0.00457997  1
  V  V62  1  0.63096052  0.12567753  0.49748409  1
  V  V63  1  0.12562895  0.74681387  0.38150462  1
  V  V64  1  0.48663292  0.62388047  0.63667382  1
  V  V65  1  0.12257930  0.00369434  0.61532479  1
  V  V66  1  0.49857020  0.25107562  0.25192959  1
  V  V67  1  0.74389732  0.38572870  0.62319342  1
  V  V68  1  0.12460792  0.75372701  0.87763307  1
  V  V69  1  0.37345359  0.61117947  0.25188073  1
  V  V70  1  0.50319316  0.12658432  0.62120221  1
  V  V71  1  0.62626879  0.61725674  0.51026396  1
  V  V72  1  0.24737276  0.13069029  0.87720551  1
  V  V73  1  0.00255799  0.49503587  -0.00979043  1
  V  V74  1  0.12853585  0.38594362  0.25001181  1
  V  V75  1  0.87480751  0.62371868  0.24900763  1
  V  V76  1  0.12110818  0.38371969  0.75463970  1
  V  V77  1  0.75099171  0.75211983  -0.00461492  1
  V  V78  1  0.75342952  0.12782565  0.86808257  1
  V  V79  1  0.37500681  0.37791600  -0.00220337  1
  V  V80  1  0.24455231  0.25448063  -0.00194278  1
  V  V81  1  0.62538942  0.88201949  0.24858046  1
  V  V82  1  0.23279913  0.12644594  0.38275535  1
  V  V83  1  0.87703930  0.49603573  0.37619337  1
  V  V84  1  0.49891230  -0.00735238  0.49468041  1
  Zn  Zn85  1  0.36730860  0.37973052  0.49356486  1
  Zn  Zn86  1  0.25826601  0.86492337  0.62618988  1
  Zn  Zn87  1  0.00670978  0.49341339  0.50804872  1
  Zn  Zn88  1  0.62929210  0.00248756  0.12523816  1
  Zn  Zn89  1  -0.00137486  0.36741117  0.87606533  1
  Zn  Zn90  1  0.87660576  0.75375250  0.61623785  1
  Zn  Zn91  1  0.36815632  -0.00850605  0.37743508  1
  Zn  Zn92  1  0.76716548  0.63497663  0.86159399  1
  Zn  Zn93  1  -0.00657086  0.60723927  0.63922503  1
  Zn  Zn94  1  0.62444237  0.12402310  -0.00062060  1
  Zn  Zn95  1  0.61419087  0.87631108  0.75179623  1
  Zn  Zn96  1  0.49917190  0.62697768  0.12304639  1
  Zn  Zn97  1  0.87203150  0.24627736  0.12994529  1
  Zn  Zn98  1  0.46754224  0.76346679  0.73529218  1
  Zn  Zn99  1  0.37672345  0.74928439  0.12359617  1
  Zn  Zn100  1  0.86868159  0.37943025  -0.00865939  1
  Zn  Zn101  1  0.62158756  0.38268941  0.74026843  1
  Zn  Zn102  1  -0.00978572  0.86614261  0.38803434  1
  Zn  Zn103  1  0.49234196  0.87050486  0.37756640  1
  Zn  Zn104  1  0.24945956  0.87456030  0.12756266  1
  Zn  Zn105  1  0.75079729  0.24798514  0.49992642  1
  Zn  Zn106  1  0.62669435  0.25112587  0.37477425  1
  Zn  Zn107  1  0.18244012  0.19151379  0.18709183  1
  Zn  Zn108  1  0.18404713  0.18270084  0.68294500  1
  Zn  Zn109  1  0.19108031  0.68557397  0.18957092  1
  Zn  Zn110  1  0.19126052  0.68720378  0.68766312  1
  Zn  Zn111  1  0.68327354  0.18980734  0.18599316  1
  Zn  Zn112  1  0.68702855  0.18757600  0.68620413  1
  Zn  Zn113  1  0.68784062  0.69138452  0.18419590  1
  Zn  Zn114  1  0.68907564  0.68431167  0.68622517  1
  Zn  Zn115  1  0.30686409  0.31025808  0.31371596  1
  Zn  Zn116  1  0.31188037  0.31570486  0.81194041  1
  Zn  Zn117  1  0.31167603  0.80951584  0.31766321  1
  Zn  Zn118  1  0.30701279  0.81836294  0.81467589  1
  Zn  Zn119  1  0.81669734  0.30784088  0.31043802  1
  Zn  Zn120  1  0.81672330  0.32070238  0.80932314  1
  Zn  Zn121  1  0.80895471  0.81111423  0.31333456  1
  Zn  Zn122  1  0.82897569  0.83036792  0.77853674  1
  Zn  Zn123  1  0.18630899  0.43380788  0.43481847  1
  Zn  Zn124  1  0.18338508  0.43737332  0.93437509  1
  Zn  Zn125  1  0.18562356  0.93507783  0.43810980  1
  Zn  Zn126  1  0.18930805  0.93926244  0.93651629  1
  Zn  Zn127  1  0.68486386  0.43707717  0.43835796  1
  Zn  Zn128  1  0.68479640  0.43699038  0.93372948  1
  Zn  Zn129  1  0.68599636  0.94041998  0.42977838  1
  Zn  Zn130  1  0.69025803  0.93764181  0.93606635  1
  Zn  Zn131  1  0.31144691  0.06385683  0.06576441  1
  Zn  Zn132  1  0.32133800  0.04084019  0.57207681  1
  Zn  Zn133  1  0.31904997  0.56640394  0.06104019  1
  Zn  Zn134  1  0.30989184  0.56299294  0.56374627  1
  Zn  Zn135  1  0.81230337  0.06202666  0.05535654  1
  Zn  Zn136  1  0.81329811  0.06140950  0.56025946  1
  Zn  Zn137  1  0.83271562  0.58115103  0.02916649  1
  Zn  Zn138  1  0.82000474  0.56554088  0.56442326  1
  Zn  Zn139  1  0.43912883  0.43731676  0.18163954  1
  Zn  Zn140  1  0.43652648  0.43937927  0.67987404  1
  Zn  Zn141  1  0.43619986  0.93713556  0.18820097  1
  Zn  Zn142  1  0.43652359  0.93773816  0.68275588  1
  Zn  Zn143  1  0.93768123  0.43403505  0.18768484  1
  Zn  Zn144  1  0.93577708  0.43473956  0.68715673  1
  Zn  Zn145  1  0.93961454  0.93566603  0.18679520  1
  Zn  Zn146  1  0.93840645  0.93139269  0.68537044  1
  Zn  Zn147  1  0.05514212  0.05919161  0.31538813  1
  Zn  Zn148  1  0.06259083  0.06534464  0.81197188  1
  Zn  Zn149  1  0.06234482  0.55948428  0.32073392  1
  Zn  Zn150  1  0.07364971  0.56378786  0.81764345  1
  Zn  Zn151  1  0.56547832  0.06418659  0.31272433  1
  Zn  Zn152  1  0.56256719  0.06439816  0.81113886  1
  Zn  Zn153  1  0.55898511  0.56281731  0.31437733  1
  Zn  Zn154  1  0.57631092  0.56343925  0.80924171  1
  Zn  Zn155  1  0.43775696  0.18634265  0.43700362  1
  Zn  Zn156  1  0.43666534  0.19021962  0.93878237  1
  Zn  Zn157  1  0.43949899  0.68242275  0.43439487  1
  Zn  Zn158  1  0.41897646  0.70558928  0.90102514  1
  Zn  Zn159  1  0.93635061  0.18394012  0.43891971  1
  Zn  Zn160  1  0.93415933  0.18946431  0.93850180  1
  Zn  Zn161  1  0.93439439  0.68354867  0.44593964  1
  Zn  Zn162  1  0.94195787  0.68826327  0.93244124  1
  Zn  Zn163  1  0.06539502  0.31244850  0.06956656  1
  Zn  Zn164  1  0.06098317  0.31369711  0.56866000  1
  Zn  Zn165  1  0.06123142  0.81143303  0.06498245  1
  Zn  Zn166  1  0.06776819  0.81416516  0.56794890  1
  Zn  Zn167  1  0.56439378  0.31356229  0.06134935  1
  Zn  Zn168  1  0.56254190  0.31262133  0.55522193  1
  Zn  Zn169  1  0.56262027  0.81439203  0.06156409  1
  Zn  Zn170  1  0.56159131  0.80659309  0.56513848  1
  O  O171  1  0.11875397  0.11882466  0.11474260  1
  O  O172  1  0.10470292  0.11815520  0.62848943  1
  O  O173  1  0.11899853  0.63222360  0.11638219  1
  O  O174  1  0.12327933  0.62944754  0.61075499  1
  O  O175  1  0.61133076  0.12351563  0.12429597  1
  O  O176  1  0.62059616  0.12140609  0.61486695  1
  O  O177  1  0.62120345  0.61713720  0.12182199  1
  O  O178  1  0.61995148  0.62553994  0.61147832  1
  O  O179  1  0.38543024  0.36959612  0.37428646  1
  O  O180  1  0.38901159  0.37086727  0.88070399  1
  O  O181  1  0.37995010  0.88032571  0.36805622  1
  O  O182  1  0.36678463  0.89412410  0.88781076  1
  O  O183  1  0.88120855  0.37607497  0.38182747  1
  O  O184  1  0.88509510  0.36820279  0.88103331  1
  O  O185  1  0.87312592  0.88771251  0.36969295  1
  O  O186  1  0.86987006  0.88493542  0.88188507  1
  O  O187  1  0.24783974  0.01077012  0.37123344  1
  O  O188  1  0.25653198  0.01069642  0.86954756  1
  O  O189  1  0.25082527  0.51188938  0.37968414  1
  O  O190  1  0.24273777  0.50475940  0.86087698  1
  O  O191  1  0.76068990  0.00933887  0.37312366  1
  O  O192  1  0.75531625  0.01165922  0.87165066  1
  O  O193  1  0.75550655  0.50195506  0.36793529  1
  O  O194  1  0.75076157  0.50015925  0.86551955  1
  O  O195  1  0.25516833  0.48904428  0.11943033  1
  O  O196  1  0.25216042  0.49113102  0.63678616  1
  O  O197  1  0.24091450  1.00057564  0.13339065  1
  O  O198  1  0.22780502  1.03147311  0.63858682  1
  O  O199  1  0.73930019  0.49318255  0.12863957  1
  O  O200  1  0.75319115  0.48692250  0.62098567  1
  O  O201  1  0.74992310  0.98804309  0.11825630  1
  O  O202  1  0.74154524  1.01020972  0.63475968  1
  O  O203  1  0.01003074  0.37036893  0.25580056  1
  O  O204  1  0.01167270  0.36325636  0.74728358  1
  O  O205  1  0.01080989  0.86659940  0.25127715  1
  O  O206  1  0.01558618  0.86443659  0.75341006  1
  O  O207  1  0.50348503  0.37265497  0.25531741  1
  O  O208  1  0.50072026  0.37241963  0.75402912  1
  O  O209  1  0.50785672  0.86627511  0.24743445  1
  O  O210  1  0.50074624  0.87118502  0.74093223  1
  O  O211  1  0.49196817  0.12811812  0.24455449  1
  O  O212  1  0.49367154  0.13352701  0.74363052  1
  O  O213  1  0.48997698  0.63141739  0.24991053  1
  O  O214  1  0.50529621  0.61944472  0.73701377  1
  O  O215  1  1.00783746  0.13150502  0.23940928  1
  O  O216  1  1.00061631  0.13619393  0.74281014  1
  O  O217  1  0.99684571  0.62723837  0.24704253  1
  O  O218  1  1.01713373  0.63815254  0.75162004  1
  O  O219  1  0.36869481  0.25843868  0.00658979  1
  O  O220  1  0.36887710  0.24941056  0.50919655  1
  O  O221  1  0.36847360  0.76062335  -0.00429907  1
  O  O222  1  0.36307698  0.74569191  0.49390620  1
  O  O223  1  0.86073429  0.25085112  0.00558929  1
  O  O224  1  0.87467555  0.25916016  0.50790991  1
  O  O225  1  0.87145138  0.76098322  0.00538172  1
  O  O226  1  0.85637755  0.75514055  0.49111598  1
  O  O227  1  0.13505191  0.24859180  0.50696286  1
  O  O228  1  0.13272521  0.24219954  1.00487010  1
  O  O229  1  0.12652264  0.74124674  0.49178597  1
  O  O230  1  0.13160700  0.74572963  0.99719019  1
  O  O231  1  0.62863392  0.24026629  0.49436438  1
  O  O232  1  0.63433975  0.24962289  0.99177795  1
  O  O233  1  0.62866375  0.73917968  0.49156620  1
  O  O234  1  0.63200043  0.74624004  0.99537489  1
  O  O235  1  0.49411186  0.24462856  0.12991735  1
  O  O236  1  0.49208644  0.24762144  0.62575175  1
  O  O237  1  0.49903785  0.74767162  0.13272161  1
  O  O238  1  0.50061753  0.73184878  0.62624645  1
  O  O239  1  0.99789515  0.23981476  0.12977201  1
  O  O240  1  0.99289862  0.24247250  0.63126942  1
  O  O241  1  0.99597722  0.74125588  0.13363415  1
  O  O242  1  1.00375924  0.75213429  0.64457710  1
  O  O243  1  -0.00452263  0.25810431  0.36942088  1
  O  O244  1  -0.00057178  0.24302709  0.85917015  1
  O  O245  1  0.00654110  0.74824021  0.37115703  1
  O  O246  1  0.01892895  0.74573608  0.87307268  1
  O  O247  1  0.50131626  0.25669390  0.36746600  1
  O  O248  1  0.50596768  0.25621237  0.86925867  1
  O  O249  1  0.51078802  0.74893438  0.36909668  1
  O  O250  1  0.52255432  0.74593378  0.87897231  1
  O  O251  1  0.25347610  0.12753021  0.48673078  1
  O  O252  1  0.24305278  0.13361631  0.99834557  1
  O  O253  1  0.24167926  0.63195127  0.49473318  1
  O  O254  1  0.24415571  0.63131892  1.00017233  1
  O  O255  1  0.74045800  0.12458617  0.49259410  1
  O  O256  1  0.74550307  0.13324892  0.98989388  1
  O  O257  1  0.73806825  0.62454601  0.49311907  1
  O  O258  1  0.73376879  0.63865014  1.01722699  1
  O  O259  1  0.25122741  0.37100229  0.00490754  1
  O  O260  1  0.24840990  0.36601703  0.50686410  1
  O  O261  1  0.25575405  0.86782342  0.00214359  1
  O  O262  1  0.24517478  0.85608160  0.49779317  1
  O  O263  1  0.74714041  0.36920312  0.00734014  1
  O  O264  1  0.75611757  0.37171249  0.50664827  1
  O  O265  1  0.75957970  0.87028122  0.00609015  1
  O  O266  1  0.73927459  0.86150802  0.49482465  1
  O  O267  1  0.12242698  0.48520546  0.25455097  1
  O  O268  1  0.12935139  0.48600045  0.74981729  1
  O  O269  1  0.12629628  0.99112228  0.24784143  1
  O  O270  1  0.12587656  0.99376897  0.74563875  1
  O  O271  1  0.62811394  0.49631077  0.24235243  1
  O  O272  1  0.64523062  0.49497241  0.74842775  1
  O  O273  1  0.61940038  0.98598401  0.24629901  1
  O  O274  1  0.62889363  1.00405624  0.73872400  1
  O  O275  1  0.36514163  0.00941103  0.24798914  1
  O  O276  1  0.37272871  0.01233579  0.76300653  1
  O  O277  1  0.38158577  0.51273242  0.24691540  1
  O  O278  1  0.36049091  0.49125387  0.75189250  1
  O  O279  1  0.88240954  0.00106481  0.26323134  1
  O  O280  1  0.86784991  -0.00102738  0.76110328  1
  O  O281  1  0.86983209  0.50402822  0.25491023  1
  O  O282  1  0.85481550  0.48848278  0.74558263  1
  O  O283  1  0.11835911  0.37256938  0.36451201  1
  O  O284  1  0.12125739  0.37177349  0.85892538  1
  O  O285  1  0.11993429  0.86526092  0.37002047  1
  O  O286  1  0.13349918  0.86548637  0.86863533  1
  O  O287  1  0.61584047  0.37397697  0.36769728  1
  O  O288  1  0.61478933  0.36392515  0.87339185  1
  O  O289  1  0.62213914  0.86571208  0.36517981  1
  O  O290  1  0.62680914  0.86163564  0.87805385  1
  O  O291  1  0.38226440  0.13006094  0.13407679  1
  O  O292  1  0.38235220  0.13191059  0.62961900  1
  O  O293  1  0.37840790  0.62898306  0.13745830  1
  O  O294  1  0.38739698  0.62086444  0.62705327  1
  O  O295  1  0.88684048  0.12268817  0.11973577  1
  O  O296  1  0.88257724  0.13442144  0.62093431  1
  O  O297  1  0.88552553  0.63188849  0.12821733  1
  O  O298  1  0.88934393  0.64071412  0.60490195  1
  O  O299  1  0.25413993  0.25543695  0.11477495  1
  O  O300  1  0.25545566  0.25175332  0.61796530  1
  O  O301  1  0.25257361  0.75116064  0.11335184  1
  O  O302  1  0.25119650  0.74845857  0.60973647  1
  O  O303  1  0.74767246  0.25689808  0.11661794  1
  O  O304  1  0.75856489  0.25510249  0.62423049  1
  O  O305  1  0.75667472  0.76081311  0.11637052  1
  O  O306  1  0.74522569  0.74589308  0.60589366  1
  O  O307  1  0.25218975  0.23565693  0.38398205  1
  O  O308  1  0.25637845  0.24776268  0.88995508  1
  O  O309  1  0.24224347  0.74019783  0.38440154  1
  O  O310  1  0.24168209  0.74110767  0.88780505  1
  O  O311  1  0.75141389  0.23681381  0.37532798  1
  O  O312  1  0.74342982  0.24728014  0.87786227  1
  O  O313  1  0.73863351  0.74301172  0.38020761  1
  O  O314  1  0.74610850  0.75215718  0.88978570  1
  O  O315  1  0.00642605  0.12132578  0.00603688  1
  O  O316  1  -0.00503457  0.11012382  0.50711808  1
  O  O317  1  0.01045531  0.61432316  0.00937790  1
  O  O318  1  0.01829305  0.61957701  0.49168211  1
  O  O319  1  0.49882998  0.12105252  0.01011229  1
  O  O320  1  0.51443410  0.12050853  0.49923871  1
  O  O321  1  0.51398584  0.61767036  -0.00042933  1
  O  O322  1  0.50842410  0.61909807  0.50404702  1
  O  O323  1  0.49706338  0.38368638  0.49190742  1
  O  O324  1  0.49796518  0.38195241  0.99160832  1
  O  O325  1  0.50526945  0.88934238  0.50122129  1
  O  O326  1  0.49026571  0.88594161  1.00368203  1
  O  O327  1  0.99464404  0.37089665  0.49264548  1
  O  O328  1  1.01195013  0.38708090  1.00022722  1
  O  O329  1  1.00252334  0.88651904  0.50414521  1
  O  O330  1  0.98949289  0.88241447  1.00528263  1
  O  O331  1  0.50234666  0.49104027  0.38406114  1
  O  O332  1  0.51244350  0.49196759  0.88193164  1
  O  O333  1  0.50732374  0.99809112  0.38717948  1
  O  O334  1  0.49133383  1.01093074  0.88835930  1
  O  O335  1  0.99309443  0.48458601  0.37904930  1
  O  O336  1  1.00558753  0.50044779  0.88839761  1
  O  O337  1  0.98572947  0.99729299  0.38353526  1
  O  O338  1  0.99063262  1.00783048  0.88163560  1
  O  O339  1  0.00513395  0.00612418  0.11816787  1
  O  O340  1  -0.00049968  0.00485917  0.62056832  1
  O  O341  1  0.00369617  0.51060714  0.12812974  1
  O  O342  1  0.00075786  0.49537478  0.62132445  1
  O  O343  1  0.49867246  0.00860355  0.11502454  1
  O  O344  1  0.51038448  0.00973925  0.61152564  1
  O  O345  1  0.51400682  0.49796725  0.11472273  1
  O  O346  1  0.50044381  0.50978498  0.61471083  1
  O  O347  1  0.23745118  0.36981594  0.24372762  1
  O  O348  1  0.24079625  0.38134697  0.74607314  1
  O  O349  1  0.23662576  0.87758104  0.25062243  1
  O  O350  1  0.24081637  0.88448147  0.74936811  1
  O  O351  1  0.74450985  0.37883716  0.24438433  1
  O  O352  1  0.74649690  0.37798976  0.73513668  1
  O  O353  1  0.73909434  0.86697114  0.23955410  1
  O  O354  1  0.73530346  0.89681724  0.76313804  1
  O  O355  1  0.25354066  0.12413842  0.25874476  1
  O  O356  1  0.25507270  0.12705460  0.76029732  1
  O  O357  1  0.26455367  0.62860168  0.25749719  1
  O  O358  1  0.24412793  0.61014043  0.75687098  1
  O  O359  1  0.74780139  0.12741231  0.25898868  1
  O  O360  1  0.74418722  0.11915415  0.76231736  1
  O  O361  1  0.75447029  0.62038046  0.25415645  1
  O  O362  1  0.75377821  0.61176446  0.74837683  1
  O  O363  1  0.37113582  0.12323707  0.36272136  1
  O  O364  1  0.36778567  0.11997377  0.87506996  1
  O  O365  1  0.36850171  0.62735412  0.36114561  1
  O  O366  1  0.35815505  0.60843568  0.89659206  1
  O  O367  1  0.86185694  0.11641241  0.37674889  1
  O  O368  1  0.86445721  0.11830154  0.87934286  1
  O  O369  1  0.86904922  0.61624527  0.37095830  1
  O  O370  1  0.85970562  0.61817009  0.92142368  1
  O  O371  1  0.13337088  0.37534473  0.13898435  1
  O  O372  1  0.13765797  0.36787588  0.63727053  1
  O  O373  1  0.12535817  0.88124678  0.13416659  1
  O  O374  1  0.13321774  0.88634419  0.63442868  1
  O  O375  1  0.63317708  0.38123194  0.13070902  1
  O  O376  1  0.64075417  0.36849422  0.61977407  1
  O  O377  1  0.63456643  0.87538621  0.13081077  1
  O  O378  1  0.62437026  0.88730172  0.62335868  1
  O  O379  1  0.11096139  0.26050415  0.24545806  1
  O  O380  1  0.11323494  0.25471753  0.74516756  1
  O  O381  1  0.12349265  0.75373938  0.26133603  1
  O  O382  1  0.12616405  0.75696951  0.75953806  1
  O  O383  1  0.61590616  0.25867214  0.25068993  1
  O  O384  1  0.61685601  0.25385509  0.75542175  1
  O  O385  1  0.61524232  0.75333975  0.25541019  1
  O  O386  1  0.63597738  0.75202749  0.76389805  1
  O  O387  1  0.37766567  0.24305993  0.24419625  1
  O  O388  1  0.37788013  0.24798819  0.73872580  1
  O  O389  1  0.38704618  0.74615376  0.24912436  1
  O  O390  1  0.37784543  0.73643935  0.79547351  1
  O  O391  1  0.89453566  0.25659598  0.24478791  1
  O  O392  1  0.88816621  0.25543710  0.73820983  1
  O  O393  1  0.87965585  0.74239697  0.24686686  1
  O  O394  1  0.90016535  0.73868520  0.77696410  1
  O  O395  1  0.38556290  0.49927266  0.50126515  1
  O  O396  1  0.39264690  0.49342190  1.00768016  1
  O  O397  1  0.39762906  1.01702213  0.48975645  1
  O  O398  1  0.37952691  0.99741595  0.99658787  1
  O  O399  1  0.87470196  0.48451741  0.49301939  1
  O  O400  1  0.90053042  0.49003313  1.01649084  1
  O  O401  1  0.87858684  0.99793575  0.48976702  1
  O  O402  1  0.88012621  0.99382109  0.98850933  1
  O  O403  1  0.12041488  0.00567119  0.00477336  1
  O  O404  1  0.11787020  -0.00375620  0.51198730  1
  O  O405  1  0.11821332  0.50815472  0.00170948  1
  O  O406  1  0.12915897  0.51398878  0.49660035  1
  O  O407  1  0.61597843  0.00219970  0.00100315  1
  O  O408  1  0.62118570  0.00629372  0.50362724  1
  O  O409  1  0.62221320  0.50759993  0.00507771  1
  O  O410  1  0.61632473  0.51344017  0.49392654  1
  O  O411  1  0.36744409  0.36990160  0.11962057  1
  O  O412  1  0.36196803  0.36550134  0.62249773  1
  O  O413  1  0.37030972  0.87449068  0.11376724  1
  O  O414  1  0.34578592  0.93467634  0.62082327  1
  O  O415  1  0.85979833  0.37418708  0.12447520  1
  O  O416  1  0.86481104  0.36576912  0.61701087  1
  O  O417  1  0.87020594  0.87045652  0.11982669  1
  O  O418  1  0.86271631  0.85297905  0.66816100  1
  O  O419  1  0.13463166  0.12268834  0.37319239  1
  O  O420  1  0.13110126  0.12114230  0.88971792  1
  O  O421  1  0.13423927  0.63079094  0.37916334  1
  O  O422  1  0.13602726  0.63121974  0.89055110  1
  O  O423  1  0.63933448  0.12420088  0.37851227  1
  O  O424  1  0.62892681  0.13841916  0.87600041  1
  O  O425  1  0.62895317  0.63120783  0.38027797  1
  O  O426  1  0.63840819  0.63496152  0.88295168  1
