# generated using pymatgen
data_V85Zn86O256
_symmetry_space_group_name_H-M   'P 1'
_cell_length_a   16.94734553
_cell_length_b   16.93167278
_cell_length_c   16.95162708
_cell_angle_alpha   89.96886583
_cell_angle_beta   89.93953647
_cell_angle_gamma   89.93313377
_symmetry_Int_Tables_number   1
_chemical_formula_structural   V85Zn86O256
_chemical_formula_sum   'V85 Zn86 O256'
_cell_volume   4864.21025813
_cell_formula_units_Z   1
loop_
 _symmetry_equiv_pos_site_id
 _symmetry_equiv_pos_as_xyz
  1  'x, y, z'
loop_
 _atom_site_type_symbol
 _atom_site_label
 _atom_site_symmetry_multiplicity
 _atom_site_fract_x
 _atom_site_fract_y
 _atom_site_fract_z
 _atom_site_occupancy
  V  V0  1  0.12549873  0.24947827  0.87466898  1
  V  V1  1  0.13437145  0.62950504  -0.01542111  1
  V  V2  1  0.25293700  0.12596314  0.87297187  1
  V  V3  1  0.75265318  0.50206858  0.25050446  1
  V  V4  1  0.25003879  0.37606561  0.62677129  1
  V  V5  1  0.50021164  0.37387944  0.86804422  1
  V  V6  1  0.62426170  0.50466285  0.12382915  1
  V  V7  1  0.25268162  -0.00259936  0.74747511  1
  V  V8  1  0.00043113  0.00061928  -0.00093171  1
  V  V9  1  0.50015613  0.37539558  0.37647363  1
  V  V10  1  0.38354406  0.62906931  0.74186154  1
  V  V11  1  0.00165487  0.12537067  0.12396126  1
  V  V12  1  0.50374501  0.11977868  0.62685229  1
  V  V13  1  0.75207863  0.88056112  0.13002142  1
  V  V14  1  0.75676051  0.00989515  0.74734099  1
  V  V15  1  -0.00118147  0.50238432  -0.00077343  1
  V  V16  1  0.11284629  0.75034244  0.37202398  1
  V  V17  1  0.87925321  0.73738117  0.62544108  1
  V  V18  1  0.12029811  0.37573888  0.25647283  1
  V  V19  1  0.61945588  0.88295713  0.25487427  1
  V  V20  1  0.75267655  0.87837519  0.62660930  1
  V  V21  1  -0.00421912  0.25434519  0.25437076  1
  V  V22  1  0.62494127  0.11598041  0.00933744  1
  V  V23  1  -0.00343112  0.63944644  0.12646087  1
  V  V24  1  0.57085762  0.80689790  0.92291022  1
  V  V25  1  0.62463751  0.11240730  0.50233357  1
  V  V26  1  0.37020597  0.50365287  0.87394333  1
  V  V27  1  0.87874995  0.87150295  0.00571253  1
  V  V28  1  0.38267936  0.12853837  0.75322426  1
  V  V29  1  0.12479291  0.86756712  0.75133767  1
  V  V30  1  0.26233027  0.85949703  0.62049617  1
  V  V31  1  0.24929948  0.51034714  0.75048415  1
  V  V32  1  0.61940221  0.75132579  0.37639158  1
  V  V33  1  0.62562512  0.87945096  0.74775818  1
  V  V34  1  0.62535039  0.24748912  0.37801353  1
  V  V35  1  0.75271659  0.37841611  0.62895998  1
  V  V36  1  0.75811015  0.74717417  0.00294681  1
  V  V37  1  0.25192928  0.24947935  0.00021848  1
  V  V38  1  0.62527422  0.37499734  0.25202155  1
  V  V39  1  0.62708076  0.50462317  0.63322289  1
  V  V40  1  0.74992335  0.24982869  0.50110324  1
  V  V41  1  0.88196902  0.49996307  0.37349497  1
  V  V42  1  0.12389759  -0.00388157  0.62077839  1
  V  V43  1  -0.00185219  0.37389167  0.87451685  1
  V  V44  1  0.75344699  0.62740577  0.37460824  1
  V  V45  1  0.24951696  0.37368228  0.12463872  1
  V  V46  1  0.24875204  0.00012636  0.24893869  1
  V  V47  1  0.00005677  0.86915789  0.87245308  1
  V  V48  1  0.24968101  0.25085844  0.50245919  1
  V  V49  1  0.38133660  -0.01313027  0.87952252  1
  V  V50  1  0.37402425  0.50210797  0.37468315  1
  V  V51  1  0.24819602  0.49935716  0.25034502  1
  V  V52  1  0.12380736  0.25271048  0.37599525  1
  V  V53  1  0.49980245  0.50171966  -0.00227487  1
  V  V54  1  0.62720359  0.37012169  0.74968805  1
  V  V55  1  0.11722736  0.87151924  0.24655367  1
  V  V56  1  0.49739115  0.74448258  0.25475203  1
  V  V57  1  0.88082970  0.88994777  0.49946474  1
  V  V58  1  0.50565223  0.75220463  0.74246542  1
  V  V59  1  -0.00500954  0.12020034  0.62698750  1
  V  V60  1  -0.00123933  0.89114409  0.37895712  1
  V  V61  1  0.62236075  0.24582883  0.87623686  1
  V  V62  1  0.62762049  0.62520018  0.50554164  1
  V  V63  1  0.12186622  0.50341264  0.62478460  1
  V  V64  1  0.24618863  0.63498983  0.37231563  1
  V  V65  1  0.12107097  0.63027228  0.50203093  1
  V  V66  1  0.25568909  0.12383433  0.37718651  1
  V  V67  1  0.12060071  0.12053767  0.50009425  1
  V  V68  1  0.12585117  0.37356791  0.74973971  1
  V  V69  1  0.87873140  0.37213039  0.49502212  1
  V  V70  1  0.87298082  0.37681655  -0.00019215  1
  V  V71  1  0.12779108  -0.00335059  0.12386607  1
  V  V72  1  0.25415768  0.76635730  -0.01073634  1
  V  V73  1  0.38356928  0.24656681  0.12553374  1
  V  V74  1  -0.00089890  0.49938272  0.50230559  1
  V  V75  1  -0.00285762  0.73860517  0.74815619  1
  V  V76  1  0.74894425  0.62985742  0.86130888  1
  V  V77  1  0.38137914  0.25074086  0.62780552  1
  V  V78  1  0.48879695  -0.01084424  0.49788542  1
  V  V79  1  0.87634411  0.11146099  0.25569006  1
  V  V80  1  0.75026533  0.37523120  0.12437598  1
  V  V81  1  -0.00798484  0.24312647  0.75111842  1
  V  V82  1  0.50023031  0.50223611  0.50648291  1
  V  V83  1  0.86908948  0.50415480  0.86030634  1
  V  V84  1  0.12192647  0.50272865  0.12354489  1
  Zn  Zn85  1  0.49754411  0.62617546  0.12291464  1
  Zn  Zn86  1  0.37504123  0.62014819  0.24478581  1
  Zn  Zn87  1  0.87444719  0.25011462  0.12649673  1
  Zn  Zn88  1  0.37625913  -0.02121801  0.37547868  1
  Zn  Zn89  1  0.75055283  -0.00086111  0.25502312  1
  Zn  Zn90  1  0.37952330  0.12219533  0.25080594  1
  Zn  Zn91  1  0.88117071  0.00890101  0.86760285  1
  Zn  Zn92  1  0.45105360  0.68845171  0.56760701  1
  Zn  Zn93  1  0.87357998  0.24587168  0.62728034  1
  Zn  Zn94  1  0.75429776  0.75287495  0.50125952  1
  Zn  Zn95  1  0.75867642  0.11926395  0.38093503  1
  Zn  Zn96  1  0.37376393  0.37829448  0.50257569  1
  Zn  Zn97  1  0.50630437  0.09786041  0.13438775  1
  Zn  Zn98  1  0.12572059  0.12515014  -0.00112033  1
  Zn  Zn99  1  0.74993655  0.24762138  -0.00017170  1
  Zn  Zn100  1  0.36536774  0.74987244  0.11369055  1
  Zn  Zn101  1  0.87837573  0.63878028  0.24746324  1
  Zn  Zn102  1  0.62598823  0.62715195  -0.00583012  1
  Zn  Zn103  1  0.37629535  0.37519501  -0.00068354  1
  Zn  Zn104  1  0.49987979  -0.01119869  -0.00175919  1
  Zn  Zn105  1  0.50017473  0.24569419  0.25042682  1
  Zn  Zn106  1  0.75608691  0.12845649  0.87527316  1
  Zn  Zn107  1  0.18815413  0.18690050  0.18765970  1
  Zn  Zn108  1  0.18709195  0.18586769  0.68769566  1
  Zn  Zn109  1  0.18679217  0.69081257  0.18155445  1
  Zn  Zn110  1  0.18353659  0.68547705  0.68954820  1
  Zn  Zn111  1  0.68926818  0.18769479  0.18844075  1
  Zn  Zn112  1  0.68367751  0.19175893  0.68571594  1
  Zn  Zn113  1  0.69112418  0.69129997  0.18710338  1
  Zn  Zn114  1  0.68747463  0.69594833  0.68900286  1
  Zn  Zn115  1  0.31282699  0.31278019  0.31189781  1
  Zn  Zn116  1  0.31471278  0.31474250  0.81125226  1
  Zn  Zn117  1  0.32542366  0.82986195  0.27643505  1
  Zn  Zn118  1  0.31110115  0.80464302  0.81120855  1
  Zn  Zn119  1  0.81209115  0.31040379  0.31442060  1
  Zn  Zn120  1  0.80928720  0.31207883  0.81325286  1
  Zn  Zn121  1  0.81121630  0.81557798  0.31848164  1
  Zn  Zn122  1  0.81564050  0.81416818  0.81368960  1
  Zn  Zn123  1  0.18806805  0.43944858  0.43928283  1
  Zn  Zn124  1  0.18747258  0.43862075  0.93738127  1
  Zn  Zn125  1  0.19393965  0.93197432  0.43724228  1
  Zn  Zn126  1  0.18634293  0.93834446  0.93117648  1
  Zn  Zn127  1  0.69038872  0.43889776  0.44001389  1
  Zn  Zn128  1  0.68861464  0.44095510  0.93478778  1
  Zn  Zn129  1  0.69342029  0.93906633  0.43512751  1
  Zn  Zn130  1  0.69961092  0.94361885  0.93745421  1
  Zn  Zn131  1  0.31508745  0.06284153  0.06192495  1
  Zn  Zn132  1  0.31229134  0.06155877  0.56507395  1
  Zn  Zn133  1  0.31203523  0.56712891  0.06339770  1
  Zn  Zn134  1  0.32198148  0.59849430  0.54115212  1
  Zn  Zn135  1  0.81523595  0.06219516  0.06384403  1
  Zn  Zn136  1  0.81051525  0.06178381  0.56567696  1
  Zn  Zn137  1  0.81350481  0.56378382  0.05878499  1
  Zn  Zn138  1  0.81071899  0.56073568  0.56375045  1
  Zn  Zn139  1  0.43795964  0.43379359  0.18689045  1
  Zn  Zn140  1  0.43851543  0.43959096  0.68778196  1
  Zn  Zn141  1  0.42780260  0.93222494  0.18024111  1
  Zn  Zn142  1  0.44061700  0.93818562  0.68870405  1
  Zn  Zn143  1  0.93805234  0.44036300  0.18791635  1
  Zn  Zn144  1  0.93980448  0.43391537  0.68468434  1
  Zn  Zn145  1  0.93930898  0.81465521  0.19044772  1
  Zn  Zn146  1  0.93798769  0.93487812  0.68494578  1
  Zn  Zn147  1  0.06281440  0.06545755  0.31098245  1
  Zn  Zn148  1  0.06521142  0.05998314  0.81118676  1
  Zn  Zn149  1  0.05860449  0.56416491  0.31027230  1
  Zn  Zn150  1  0.05644199  0.55837787  0.81017375  1
  Zn  Zn151  1  0.55859559  0.06281351  0.31903623  1
  Zn  Zn152  1  0.56536996  0.05931173  0.81456056  1
  Zn  Zn153  1  0.56443338  0.56394231  0.31639510  1
  Zn  Zn154  1  0.56375810  0.56528404  0.81154278  1
  Zn  Zn155  1  0.43872910  0.18727717  0.44190421  1
  Zn  Zn156  1  0.44229640  0.18469611  0.94049249  1
  Zn  Zn157  1  0.33187941  0.79710736  0.45865035  1
  Zn  Zn158  1  0.42823700  0.68284181  0.93520152  1
  Zn  Zn159  1  0.94123471  0.18613969  0.43723313  1
  Zn  Zn160  1  0.93357429  0.18700961  0.93786654  1
  Zn  Zn161  1  0.93786858  0.68884030  0.44126187  1
  Zn  Zn162  1  0.93816177  0.68590321  0.93592011  1
  Zn  Zn163  1  0.06250655  0.31264715  0.06396033  1
  Zn  Zn164  1  0.06037514  0.31193964  0.56356617  1
  Zn  Zn165  1  0.07558447  0.81279601  0.05440276  1
  Zn  Zn166  1  0.06123622  0.81239795  0.56336990  1
  Zn  Zn167  1  0.56461775  0.31460267  0.05696630  1
  Zn  Zn168  1  0.56192973  0.31251860  0.56262285  1
  Zn  Zn169  1  0.55139852  0.82911959  0.09014714  1
  Zn  Zn170  1  0.57278713  0.81910620  0.56173398  1
  O  O171  1  0.11460118  0.12208776  0.12384665  1
  O  O172  1  0.12050965  0.11709742  0.61863532  1
  O  O173  1  0.11424306  0.61762773  0.11628155  1
  O  O174  1  0.12936156  0.61519480  0.61466750  1
  O  O175  1  0.62349727  0.12940405  0.11354787  1
  O  O176  1  0.61216963  0.13471364  0.61576202  1
  O  O177  1  0.62659125  0.61245735  0.12177943  1
  O  O178  1  0.63793309  0.61559611  0.61937484  1
  O  O179  1  0.38005434  0.38433816  0.37803323  1
  O  O180  1  0.38425804  0.38319196  0.87433086  1
  O  O181  1  0.35173569  0.86856986  0.37783997  1
  O  O182  1  0.37172913  0.88994589  0.86418954  1
  O  O183  1  0.86778842  0.38386303  0.38754149  1
  O  O184  1  0.87528475  0.38441835  0.88112609  1
  O  O185  1  0.88328402  0.87142543  0.39212881  1
  O  O186  1  0.88326242  0.88194703  0.88599107  1
  O  O187  1  0.24768856  0.01068267  0.37004946  1
  O  O188  1  0.25601839  0.00546237  0.86285564  1
  O  O189  1  0.25521219  0.49869154  0.36596754  1
  O  O190  1  0.25907400  0.48973015  0.86292399  1
  O  O191  1  0.74840412  0.00836474  0.36906723  1
  O  O192  1  0.75599545  0.00333061  0.85914829  1
  O  O193  1  0.75924846  0.50918504  0.37279115  1
  O  O194  1  0.76257315  0.51012608  0.87727061  1
  O  O195  1  0.23813072  0.49662430  0.12923003  1
  O  O196  1  0.23766594  0.49211983  0.63347249  1
  O  O197  1  0.23638679  1.01144121  0.13219045  1
  O  O198  1  0.24548978  0.99504831  0.63540092  1
  O  O199  1  0.74492045  0.49299820  0.12791377  1
  O  O200  1  0.74149949  0.48687842  0.61955211  1
  O  O201  1  0.75720985  0.98463504  0.12894472  1
  O  O202  1  0.75206902  0.99262643  0.63631163  1
  O  O203  1  0.00901798  0.36743727  0.24391195  1
  O  O204  1  0.00697794  0.36682136  0.75512231  1
  O  O205  1  0.01010863  0.87535358  0.26089040  1
  O  O206  1  0.00624966  0.87004347  0.75536576  1
  O  O207  1  0.50809207  0.37331548  0.25964575  1
  O  O208  1  0.50736376  0.37924255  0.76149003  1
  O  O209  1  0.51456463  0.86090596  0.25212562  1
  O  O210  1  0.51259059  0.86957369  0.74592236  1
  O  O211  1  0.49894000  0.12793083  0.24695160  1
  O  O212  1  0.49372250  0.11874764  0.74169031  1
  O  O213  1  0.50552853  0.63275882  0.24763255  1
  O  O214  1  0.49647722  0.63596079  0.75198175  1
  O  O215  1  0.99317652  0.13289356  0.24368663  1
  O  O216  1  1.00856246  0.13314402  0.74092160  1
  O  O217  1  1.00023350  0.62286312  0.23050621  1
  O  O218  1  1.00172246  0.63893689  0.75348869  1
  O  O219  1  0.36851805  0.25177039  0.00573262  1
  O  O220  1  0.36703939  0.25175745  0.51001529  1
  O  O221  1  0.36172296  0.75091715  -0.00394325  1
  O  O222  1  0.36056747  0.70506335  0.50840394  1
  O  O223  1  0.87441071  0.26545283  0.00339127  1
  O  O224  1  0.87210641  0.25736654  0.50051641  1
  O  O225  1  0.86896202  0.75741328  -0.00387795  1
  O  O226  1  0.87574560  0.75559365  0.51326623  1
  O  O227  1  0.13024321  0.24397866  0.49676594  1
  O  O228  1  0.13323309  0.24985405  0.99353250  1
  O  O229  1  0.11769561  0.73761649  0.49333091  1
  O  O230  1  0.13262453  0.73582125  0.99287550  1
  O  O231  1  0.62875987  0.24589585  0.49202373  1
  O  O232  1  0.62757021  0.24203502  0.99266085  1
  O  O233  1  0.63111228  0.74236622  0.49497412  1
  O  O234  1  0.62876921  0.75219170  0.99006764  1
  O  O235  1  0.48745142  0.26030179  0.12430199  1
  O  O236  1  0.48664517  0.24329194  0.61969830  1
  O  O237  1  0.49758188  0.74526034  0.14214131  1
  O  O238  1  0.51176459  0.75237377  0.63519814  1
  O  O239  1  1.00099563  0.24290244  0.13418434  1
  O  O240  1  1.00103877  0.24086127  0.63465263  1
  O  O241  1  1.00551016  0.74261222  0.12006324  1
  O  O242  1  0.98780674  0.75266336  0.63220951  1
  O  O243  1  0.00880032  0.24719059  0.36286858  1
  O  O244  1  0.00532278  0.25466281  0.86940496  1
  O  O245  1  0.00967816  0.75522949  0.37741779  1
  O  O246  1  -0.00789259  0.76184472  0.86598966  1
  O  O247  1  0.50720034  0.25803659  0.37730065  1
  O  O248  1  0.51142922  0.25990466  0.88053406  1
  O  O249  1  0.51916851  0.74269852  0.37025896  1
  O  O250  1  0.50603094  0.74744239  0.86998055  1
  O  O251  1  0.24094551  0.12957008  0.49663167  1
  O  O252  1  0.24932502  0.13660100  0.99394931  1
  O  O253  1  0.22672677  0.60399599  0.48126626  1
  O  O254  1  0.23441352  0.61380798  0.99284315  1
  O  O255  1  0.74114123  0.13173029  0.50476563  1
  O  O256  1  0.73999689  0.12688303  1.00207144  1
  O  O257  1  0.74311253  0.62353044  0.49209581  1
  O  O258  1  0.74855967  0.63398876  0.99537801  1
  O  O259  1  0.25027811  0.36416826  0.00472925  1
  O  O260  1  0.25088826  0.37056425  0.50990084  1
  O  O261  1  0.24144021  0.86578999  -0.00206644  1
  O  O262  1  0.25051883  0.86978658  0.51592659  1
  O  O263  1  0.75672339  0.37704714  0.00720763  1
  O  O264  1  0.75704818  0.36888836  0.50660317  1
  O  O265  1  0.75992560  0.87052796  0.00498561  1
  O  O266  1  0.76172428  0.87517531  0.50784024  1
  O  O267  1  0.12523065  0.49315625  0.24299077  1
  O  O268  1  0.12980339  0.49648186  0.74401022  1
  O  O269  1  0.12495566  0.99801181  0.23971864  1
  O  O270  1  0.13469919  0.99245374  0.74131897  1
  O  O271  1  0.63143411  0.49474523  0.24386960  1
  O  O272  1  0.61932910  0.49058930  0.73811905  1
  O  O273  1  0.62121191  0.98528539  0.25783129  1
  O  O274  1  0.63608386  0.98717850  0.75571858  1
  O  O275  1  0.36209701  0.00323598  0.25540542  1
  O  O276  1  0.36990820  0.00961206  0.75607558  1
  O  O277  1  0.36911897  0.49787378  0.25654642  1
  O  O278  1  0.36763867  0.50281661  0.75501803  1
  O  O279  1  0.88026841  0.01461951  0.24900559  1
  O  O280  1  0.86101304  -0.00443903  0.74747571  1
  O  O281  1  0.87046552  0.50220816  0.25902288  1
  O  O282  1  0.87912476  0.49476315  0.76218826  1
  O  O283  1  0.12895640  0.37205594  0.36288308  1
  O  O284  1  0.11821375  0.37053724  0.86969351  1
  O  O285  1  0.11693890  0.86793859  0.37330457  1
  O  O286  1  0.11565252  0.88023246  0.86002607  1
  O  O287  1  0.62137863  0.36920387  0.37357607  1
  O  O288  1  0.62076627  0.37230734  0.86762697  1
  O  O289  1  0.63502134  0.86309829  0.36515783  1
  O  O290  1  0.63113675  0.87218279  0.87038787  1
  O  O291  1  0.37992038  0.13400286  0.12607780  1
  O  O292  1  0.38139407  0.13132697  0.63295838  1
  O  O293  1  0.37881026  0.62985144  0.12875193  1
  O  O294  1  0.38134806  0.61328841  0.63932259  1
  O  O295  1  0.88739843  0.12793219  0.13202354  1
  O  O296  1  0.89133343  0.12615765  0.61828174  1
  O  O297  1  0.89390293  0.61929575  0.12157904  1
  O  O298  1  0.87122983  0.63814595  0.62243293  1
  O  O299  1  0.25696742  0.25206686  0.11721311  1
  O  O300  1  0.25833971  0.25485277  0.62277452  1
  O  O301  1  0.24535389  0.73652225  0.09678838  1
  O  O302  1  0.24960289  0.76131237  0.63396799  1
  O  O303  1  0.75120781  0.26531705  0.12443096  1
  O  O304  1  0.75270733  0.26032509  0.62006502  1
  O  O305  1  0.74394453  0.75903762  0.10905966  1
  O  O306  1  0.76348811  0.75842652  0.62514468  1
  O  O307  1  0.24331001  0.24527405  0.38127441  1
  O  O308  1  0.24750920  0.24763074  0.88161035  1
  O  O309  1  0.23818856  0.73662114  0.37735327  1
  O  O310  1  0.24852472  0.74896702  0.88789074  1
  O  O311  1  0.74251600  0.24494929  0.38264942  1
  O  O312  1  0.73636688  0.25078171  0.87710398  1
  O  O313  1  0.74524210  0.73716507  0.37916060  1
  O  O314  1  0.75940155  0.73623699  0.88269567  1
  O  O315  1  0.00223480  0.11926344  0.00693698  1
  O  O316  1  0.01454485  0.12955781  0.50797348  1
  O  O317  1  0.00777130  0.62139331  0.00742730  1
  O  O318  1  0.00754964  0.60946833  0.49526849  1
  O  O319  1  0.51550514  0.12233474  0.00366691  1
  O  O320  1  0.50589878  0.11893138  0.50837503  1
  O  O321  1  0.50356056  0.61338252  -0.00225820  1
  O  O322  1  0.51909607  0.61558377  0.50274887  1
  O  O323  1  0.49881569  0.38382600  0.49310143  1
  O  O324  1  0.50051450  0.38636931  0.98764088  1
  O  O325  1  0.50220004  0.89039410  0.50827359  1
  O  O326  1  0.51450770  0.86438971  0.98727072  1
  O  O327  1  0.99144746  0.38526481  0.50310269  1
  O  O328  1  0.99347580  0.38045210  0.99431317  1
  O  O329  1  0.98927211  0.87489977  0.49574378  1
  O  O330  1  0.99862543  0.87950348  0.99240671  1
  O  O331  1  0.49413288  0.49589720  0.38361572  1
  O  O332  1  0.49502545  0.49440185  0.87988885  1
  O  O333  1  0.49307085  1.00278332  0.39265542  1
  O  O334  1  0.48556108  1.00171841  0.87807528  1
  O  O335  1  0.98785919  0.50128928  0.38036165  1
  O  O336  1  0.98782117  0.49371413  0.87907829  1
  O  O337  1  1.00761228  0.99044425  0.37745629  1
  O  O338  1  1.00162101  0.99107012  0.88103696  1
  O  O339  1  0.01340793  0.01084987  0.11423133  1
  O  O340  1  0.01280113  0.00685446  0.63253620  1
  O  O341  1  0.01023936  0.50260058  0.11879307  1
  O  O342  1  0.01221080  0.49553741  0.61896219  1
  O  O343  1  0.49465234  -0.01394165  0.11196135  1
  O  O344  1  0.49476262  0.01168173  0.61476737  1
  O  O345  1  0.50772387  0.49810214  0.11617502  1
  O  O346  1  0.51031540  0.49275001  0.61345206  1
  O  O347  1  0.24081658  0.37926855  0.24342372  1
  O  O348  1  0.24465796  0.38122373  0.74378615  1
  O  O349  1  0.22730955  0.89510975  0.25771545  1
  O  O350  1  0.24244779  0.87963230  0.74449881  1
  O  O351  1  0.74616292  0.38154464  0.24388315  1
  O  O352  1  0.74193975  0.37344090  0.74057220  1
  O  O353  1  0.74248357  0.87583799  0.24521605  1
  O  O354  1  0.74715102  0.88108963  0.74452135  1
  O  O355  1  0.24578747  0.11698437  0.26082016  1
  O  O356  1  0.25771683  0.11632068  0.75234434  1
  O  O357  1  0.24501212  0.61666737  0.25616215  1
  O  O358  1  0.25642836  0.61402094  0.74624403  1
  O  O359  1  0.76789327  0.12548327  0.24502073  1
  O  O360  1  0.74294003  0.11206629  0.74437834  1
  O  O361  1  0.75257621  0.61881183  0.25703019  1
  O  O362  1  0.75153916  0.63114974  0.76262614  1
  O  O363  1  0.36080669  0.13029076  0.37633390  1
  O  O364  1  0.37143609  0.12250257  0.86788551  1
  O  O365  1  0.36023529  0.60708829  0.37029169  1
  O  O366  1  0.37821987  0.60911377  0.86185008  1
  O  O367  1  0.87841016  0.13025359  0.35985278  1
  O  O368  1  0.87019772  0.12223706  0.87630714  1
  O  O369  1  0.86963658  0.61814070  0.37524584  1
  O  O370  1  0.86720966  0.61094880  0.87865074  1
  O  O371  1  0.12929909  0.38266209  0.13200812  1
  O  O372  1  0.12964391  0.37992280  0.63103983  1
  O  O373  1  0.11798211  0.88518457  0.13292278  1
  O  O374  1  0.13169920  0.88087283  0.63077650  1
  O  O375  1  0.63163589  0.38446156  0.12863157  1
  O  O376  1  0.63119353  0.37824783  0.63191275  1
  O  O377  1  0.63677551  0.87305233  0.14513616  1
  O  O378  1  0.64424966  0.87229596  0.63294315  1
  O  O379  1  0.11925588  0.25789562  0.25395797  1
  O  O380  1  0.11901911  0.25422544  0.75606735  1
  O  O381  1  0.13079429  0.76046212  0.25766369  1
  O  O382  1  0.11379303  0.75935896  0.74324428  1
  O  O383  1  0.62656360  0.25545967  0.26264360  1
  O  O384  1  0.62446895  0.26257366  0.75699391  1
  O  O385  1  0.62164918  0.75330040  0.25856004  1
  O  O386  1  0.61965674  0.76327610  0.75401846  1
  O  O387  1  0.37482935  0.24765284  0.23972010  1
  O  O388  1  0.37035123  0.23721341  0.74354315  1
  O  O389  1  0.39708948  0.73457234  0.27495247  1
  O  O390  1  0.38861145  0.74036276  0.75479408  1
  O  O391  1  0.88477163  0.25106411  0.24712589  1
  O  O392  1  0.88860322  0.25694448  0.74859186  1
  O  O393  1  0.87037483  0.75090006  0.24940309  1
  O  O394  1  0.88325485  0.75851353  0.73511293  1
  O  O395  1  0.38487655  0.50324918  0.49436739  1
  O  O396  1  0.38103643  0.49878228  0.99162913  1
  O  O397  1  0.38475687  1.00311715  0.49877490  1
  O  O398  1  0.37019783  0.99965218  0.98273535  1
  O  O399  1  0.88119484  0.49448907  0.49544939  1
  O  O400  1  0.88037858  0.49092535  0.99374379  1
  O  O401  1  0.87687126  0.98878604  0.50479951  1
  O  O402  1  0.89037856  0.99322970  1.00278826  1
  O  O403  1  0.11729296  0.00139383  0.00362973  1
  O  O404  1  0.13421527  0.00652921  0.51254132  1
  O  O405  1  0.11836762  0.50367873  0.00671256  1
  O  O406  1  0.11514576  0.50076580  0.50690252  1
  O  O407  1  0.62573735  0.01344436  -0.00696703  1
  O  O408  1  0.61668258  0.00998123  0.49752522  1
  O  O409  1  0.61764059  0.49931009  0.00737223  1
  O  O410  1  0.62122048  0.50472601  0.50922378  1
  O  O411  1  0.36577145  0.36859489  0.12202639  1
  O  O412  1  0.36999971  0.36739324  0.62677620  1
  O  O413  1  0.35806202  0.84835278  0.16892516  1
  O  O414  1  0.36031442  0.87632034  0.63331838  1
  O  O415  1  0.86706650  0.37872659  0.11736353  1
  O  O416  1  0.86816014  0.37443233  0.61450220  1
  O  O417  1  0.87182749  0.87091308  0.11231735  1
  O  O418  1  0.87080279  0.87038897  0.61469203  1
  O  O419  1  0.13191002  0.13041907  0.38359198  1
  O  O420  1  0.13469344  0.13106506  0.87489383  1
  O  O421  1  0.12467232  0.63172541  0.37673701  1
  O  O422  1  0.11814559  0.61484179  0.88785563  1
  O  O423  1  0.62379397  0.13494090  0.38581461  1
  O  O424  1  0.62788651  0.13264602  0.88206924  1
  O  O425  1  0.63593304  0.62734527  0.38405438  1
  O  O426  1  0.64508149  0.61510928  0.87653660  1
