# generated using pymatgen
data_V85Zn86O256
_symmetry_space_group_name_H-M   'P 1'
_cell_length_a   16.97019291
_cell_length_b   16.94935311
_cell_length_c   16.94632498
_cell_angle_alpha   89.98210695
_cell_angle_beta   89.95809288
_cell_angle_gamma   89.91874507
_symmetry_Int_Tables_number   1
_chemical_formula_structural   V85Zn86O256
_chemical_formula_sum   'V85 Zn86 O256'
_cell_volume   4874.32927358
_cell_formula_units_Z   1
loop_
 _symmetry_equiv_pos_site_id
 _symmetry_equiv_pos_as_xyz
  1  'x, y, z'
loop_
 _atom_site_type_symbol
 _atom_site_label
 _atom_site_symmetry_multiplicity
 _atom_site_fract_x
 _atom_site_fract_y
 _atom_site_fract_z
 _atom_site_occupancy
  V  V0  1  0.75593514  0.75723469  -0.00367711  1
  V  V1  1  0.61154732  0.12353797  0.00026976  1
  V  V2  1  0.87320321  0.49942252  0.37302275  1
  V  V3  1  0.63934145  -0.00004724  0.62642111  1
  V  V4  1  0.49657645  0.88704061  0.87738777  1
  V  V5  1  0.00165594  0.24912113  0.24868543  1
  V  V6  1  0.74780080  0.48894340  0.24151754  1
  V  V7  1  0.00036401  0.12475977  0.62418510  1
  V  V8  1  0.13407845  0.24286271  0.37346650  1
  V  V9  1  0.62058116  0.26685361  0.87623645  1
  V  V10  1  -0.00992150  -0.01021361  -0.00011880  1
  V  V11  1  0.37033118  0.75180672  0.62215566  1
  V  V12  1  0.25004006  0.87290659  0.12520411  1
  V  V13  1  0.87586253  0.49948060  0.87158241  1
  V  V14  1  0.13738409  0.12307445  0.49836096  1
  V  V15  1  0.74741796  0.61445015  0.87748567  1
  V  V16  1  0.87581925  0.12666224  0.24821607  1
  V  V17  1  0.00628313  0.62599755  0.11680038  1
  V  V18  1  0.12342020  0.00187736  0.11821509  1
  V  V19  1  0.62889273  0.61985030  0.49983053  1
  V  V20  1  0.37313165  0.49670050  0.38046621  1
  V  V21  1  0.63738059  0.87730510  0.74327066  1
  V  V22  1  0.24331202  0.75336139  0.49656850  1
  V  V23  1  0.12360766  0.23624904  0.87624380  1
  V  V24  1  0.49927269  0.87556162  0.37051359  1
  V  V25  1  0.49952132  0.49277867  0.50332863  1
  V  V26  1  0.37314183  0.87419291  0.50075407  1
  V  V27  1  0.87084353  0.62238308  0.74757085  1
  V  V28  1  0.74900787  0.12780862  0.37124609  1
  V  V29  1  0.24751693  0.61785537  0.87424657  1
  V  V30  1  0.75055556  0.00149972  0.24624789  1
  V  V31  1  0.87149714  0.25531959  0.12491687  1
  V  V32  1  0.37896078  0.74414703  0.12150962  1
  V  V33  1  0.61786502  0.63192726  0.01645031  1
  V  V34  1  0.37754294  0.25221909  0.61681555  1
  V  V35  1  0.75095680  0.25663424  0.50155790  1
  V  V36  1  0.00235397  0.87210501  0.37908305  1
  V  V37  1  0.24890348  0.74401249  0.00084017  1
  V  V38  1  0.50381426  0.62316116  0.62283715  1
  V  V39  1  0.62666318  0.26404133  0.36931813  1
  V  V40  1  0.62567526  0.75060488  0.87006645  1
  V  V41  1  0.74784748  0.24819898  0.00302392  1
  V  V42  1  0.25389761  0.37543275  0.61700272  1
  V  V43  1  0.13017401  -0.00570874  0.62786580  1
  V  V44  1  0.75251755  0.87811726  0.12026483  1
  V  V45  1  0.24584654  0.24152182  -0.00329664  1
  V  V46  1  0.87535272  0.37622726  0.50714668  1
  V  V47  1  0.62594414  0.12673407  0.49734592  1
  V  V48  1  0.25308925  0.37464122  0.12115166  1
  V  V49  1  0.12477835  0.87201349  0.25545616  1
  V  V50  1  0.37771892  0.24342693  0.12317319  1
  V  V51  1  0.00484384  0.50104328  0.50000905  1
  V  V52  1  0.12162800  0.74578263  0.88007399  1
  V  V53  1  0.75417272  0.62888268  0.37377481  1
  V  V54  1  0.86290313  0.87265752  0.50437131  1
  V  V55  1  0.24599291  0.00903833  0.25362109  1
  V  V56  1  0.87809270  0.75660265  0.12074156  1
  V  V57  1  0.62456022  0.87633753  0.24732315  1
  V  V58  1  0.50239801  0.00018457  0.49962207  1
  V  V59  1  -0.00119147  0.24836290  0.74968182  1
  V  V60  1  -0.00087079  0.00055842  0.50067453  1
  V  V61  1  0.24513363  0.62973758  0.37477905  1
  V  V62  1  0.36997784  0.00790092  0.37573055  1
  V  V63  1  0.12514291  0.37481672  0.24874663  1
  V  V64  1  0.50280505  0.24473874  0.24537119  1
  V  V65  1  0.87559250  0.37806152  0.00187409  1
  V  V66  1  0.00071262  0.74745206  0.25611210  1
  V  V67  1  0.49791276  0.26576008  0.75662500  1
  V  V68  1  0.86580929  -0.00712498  0.87057120  1
  V  V69  1  0.50279646  0.75058957  0.74878633  1
  V  V70  1  0.63024985  0.75168193  0.38113892  1
  V  V71  1  0.25063137  0.50096228  0.25028078  1
  V  V72  1  0.13318638  0.87234572  0.74946727  1
  V  V73  1  0.12612757  0.37536252  0.74849840  1
  V  V74  1  -0.00040598  0.75235395  0.74471269  1
  V  V75  1  0.37464262  0.37844768  -0.02188138  1
  V  V76  1  0.50585673  0.12516841  0.63153400  1
  V  V77  1  0.74770251  0.12656286  0.86447553  1
  V  V78  1  0.37355545  0.61918982  0.75145249  1
  V  V79  1  0.49761705  0.37641965  0.36739061  1
  V  V80  1  0.61607107  0.00451894  0.12141680  1
  V  V81  1  0.50071667  0.74093331  0.24815673  1
  V  V82  1  0.00155222  0.12689228  0.11428650  1
  V  V83  1  0.87519034  0.00075854  0.37508256  1
  V  V84  1  0.85635031  0.75418744  0.62329965  1
  Zn  Zn85  1  0.87597415  0.62397382  0.24756860  1
  Zn  Zn86  1  0.00117219  0.37390041  0.37470293  1
  Zn  Zn87  1  0.25286410  0.49588145  0.75076814  1
  Zn  Zn88  1  0.26233634  -0.00856220  0.76373492  1
  Zn  Zn89  1  0.87344967  0.25363191  0.62874394  1
  Zn  Zn90  1  0.12971696  0.50712857  0.11707508  1
  Zn  Zn91  1  0.36889657  0.88520836  -0.01537250  1
  Zn  Zn92  1  0.87089517  0.12120122  0.74698600  1
  Zn  Zn93  1  0.00282128  0.37487604  0.87484149  1
  Zn  Zn94  1  0.12749555  0.50412554  0.62620523  1
  Zn  Zn95  1  0.64984577  0.40831118  0.73088370  1
  Zn  Zn96  1  0.37657628  0.11606914  0.76049344  1
  Zn  Zn97  1  0.38020027  0.62039143  0.24613221  1
  Zn  Zn98  1  0.37323239  0.12618527  0.25028568  1
  Zn  Zn99  1  0.00243721  0.62576102  0.62337721  1
  Zn  Zn100  1  0.25313308  0.10978711  0.87637059  1
  Zn  Zn101  1  0.12287595  0.63111470  0.49904983  1
  Zn  Zn102  1  -0.00643235  0.87161567  0.87786582  1
  Zn  Zn103  1  0.48942992  0.49885730  0.00421362  1
  Zn  Zn104  1  0.00648533  0.50244303  -0.00436592  1
  Zn  Zn105  1  0.61045310  0.49023070  0.13475855  1
  Zn  Zn106  1  0.25809000  0.24767890  0.49523297  1
  Zn  Zn107  1  0.18639283  0.18692415  0.18187088  1
  Zn  Zn108  1  0.19162606  0.18262970  0.68938948  1
  Zn  Zn109  1  0.18580549  0.68856411  0.19129397  1
  Zn  Zn110  1  0.18703577  0.68676345  0.68444128  1
  Zn  Zn111  1  0.68478175  0.19073285  0.18461444  1
  Zn  Zn112  1  0.70072583  0.23990183  0.70089002  1
  Zn  Zn113  1  0.69282924  0.69034340  0.19191066  1
  Zn  Zn114  1  0.68639867  0.58079986  0.69002823  1
  Zn  Zn115  1  0.31506848  0.31366350  0.31074125  1
  Zn  Zn116  1  0.30784980  0.30188720  0.80542063  1
  Zn  Zn117  1  0.31566734  0.81378430  0.31050279  1
  Zn  Zn118  1  0.31378140  0.80635874  0.81397301  1
  Zn  Zn119  1  0.81442520  0.31678707  0.31587031  1
  Zn  Zn120  1  0.81207979  0.31542119  0.81771291  1
  Zn  Zn121  1  0.81456380  0.81384478  0.31107856  1
  Zn  Zn122  1  0.81196638  0.81078786  0.81016003  1
  Zn  Zn123  1  0.18724157  0.43395890  0.43565592  1
  Zn  Zn124  1  0.18487646  0.43304304  0.93607500  1
  Zn  Zn125  1  0.18826393  0.93814157  0.43962376  1
  Zn  Zn126  1  0.18155261  0.93245943  0.93793670  1
  Zn  Zn127  1  0.69068818  0.43875292  0.55934181  1
  Zn  Zn128  1  0.67400935  0.42718663  0.97740080  1
  Zn  Zn129  1  0.68750866  0.94035589  0.43586005  1
  Zn  Zn130  1  0.68378764  0.93888167  0.93566719  1
  Zn  Zn131  1  0.31297065  0.06133781  0.05285584  1
  Zn  Zn132  1  0.32983139  0.04439664  0.59649643  1
  Zn  Zn133  1  0.31176461  0.56262599  0.06135724  1
  Zn  Zn134  1  0.31273283  0.56362054  0.56234841  1
  Zn  Zn135  1  0.81039554  0.06567342  0.05760059  1
  Zn  Zn136  1  0.81480589  0.06869306  0.55963021  1
  Zn  Zn137  1  0.81562469  0.56879076  0.06217060  1
  Zn  Zn138  1  0.81858078  0.56990145  0.55670109  1
  Zn  Zn139  1  0.43652909  0.43660193  0.18391815  1
  Zn  Zn140  1  0.43637841  0.43825244  0.68532618  1
  Zn  Zn141  1  0.41545128  0.95783768  0.15536204  1
  Zn  Zn142  1  0.44660627  0.93519417  0.68758739  1
  Zn  Zn143  1  0.93738168  0.43907952  0.18712050  1
  Zn  Zn144  1  0.93796813  0.43916185  0.68707089  1
  Zn  Zn145  1  0.93803134  0.93675979  0.18828976  1
  Zn  Zn146  1  0.93730229  0.93548855  0.68953021  1
  Zn  Zn147  1  0.06203868  0.06287192  0.31125846  1
  Zn  Zn148  1  0.06019807  0.05796716  0.81226086  1
  Zn  Zn149  1  0.06373335  0.56284370  0.31258604  1
  Zn  Zn150  1  0.06078765  0.56328489  0.81017624  1
  Zn  Zn151  1  0.56196209  0.06485823  0.30999688  1
  Zn  Zn152  1  0.56760046  0.06549355  0.80915567  1
  Zn  Zn153  1  0.56833552  0.55941287  0.31343142  1
  Zn  Zn154  1  0.55510646  0.55009366  0.83017638  1
  Zn  Zn155  1  0.44013116  0.18795693  0.43794295  1
  Zn  Zn156  1  0.43312417  0.18975249  0.93420207  1
  Zn  Zn157  1  0.43610005  0.68397320  0.43427058  1
  Zn  Zn158  1  0.44775716  0.66457840  0.92715111  1
  Zn  Zn159  1  0.94215332  0.18973085  0.43633632  1
  Zn  Zn160  1  0.93509511  0.18340922  0.93523568  1
  Zn  Zn161  1  0.93614940  0.68878499  0.44047600  1
  Zn  Zn162  1  0.93570112  0.68838090  0.93631051  1
  Zn  Zn163  1  0.06399804  0.31670768  0.05966540  1
  Zn  Zn164  1  0.06469717  0.31215429  0.56175296  1
  Zn  Zn165  1  0.06482074  0.81212043  0.06311909  1
  Zn  Zn166  1  0.05964455  0.81341706  0.56446299  1
  Zn  Zn167  1  0.55637021  0.31918082  0.06236065  1
  Zn  Zn168  1  0.55982875  0.31137498  0.55997572  1
  Zn  Zn169  1  0.56188774  0.81229113  0.05980884  1
  Zn  Zn170  1  0.56561190  0.81162656  0.56270873  1
  O  O171  1  0.11317925  0.11386337  0.13065323  1
  O  O172  1  0.11533878  0.11819272  0.61827050  1
  O  O173  1  0.11005401  0.62707042  0.12986243  1
  O  O174  1  0.12202293  0.62225941  0.61826200  1
  O  O175  1  0.63205221  0.11936075  0.10893423  1
  O  O176  1  0.61611557  0.12030279  0.61539118  1
  O  O177  1  0.63573761  0.62517967  0.11683114  1
  O  O178  1  0.61104286  0.63294881  0.61405926  1
  O  O179  1  0.38046760  0.38716433  0.37365683  1
  O  O180  1  0.36330932  0.37297589  0.87982802  1
  O  O181  1  0.38360010  0.88354849  0.38007992  1
  O  O182  1  0.39114070  0.87107300  0.86993328  1
  O  O183  1  0.87968394  0.38441761  0.38401097  1
  O  O184  1  0.87799785  0.38482396  0.88038084  1
  O  O185  1  0.88449744  0.87975075  0.38036066  1
  O  O186  1  0.87275906  0.88862208  0.87276142  1
  O  O187  1  0.25846641  -0.00660161  0.36628338  1
  O  O188  1  0.24913919  -0.00613087  0.87765137  1
  O  O189  1  0.25608247  0.50305509  0.37042552  1
  O  O190  1  0.24395035  0.51500392  0.87320483  1
  O  O191  1  0.75624659  0.00713659  0.36679691  1
  O  O192  1  0.75940758  0.00833122  0.87948563  1
  O  O193  1  0.76585981  0.51004196  0.36356622  1
  O  O194  1  0.75956710  0.51268340  0.88760228  1
  O  O195  1  0.24895172  0.49322510  0.13344201  1
  O  O196  1  0.24998510  0.49070872  0.62644809  1
  O  O197  1  0.23818055  0.99193133  0.13324854  1
  O  O198  1  0.22971039  0.99554060  0.61784047  1
  O  O199  1  0.75921448  0.50739920  0.14149039  1
  O  O200  1  0.74681104  0.51465606  0.62036302  1
  O  O201  1  0.74574154  0.99679950  0.12791630  1
  O  O202  1  0.73829711  1.00784183  0.61803347  1
  O  O203  1  0.00975059  0.36900230  0.24798142  1
  O  O204  1  0.00713903  0.36589016  0.74920995  1
  O  O205  1  0.00518606  0.86960156  0.25805942  1
  O  O206  1  0.00488438  0.86542108  0.75495634  1
  O  O207  1  0.49397409  0.36589251  0.26140690  1
  O  O208  1  0.50193922  0.36590622  0.74788474  1
  O  O209  1  0.50713978  0.86906996  0.26310656  1
  O  O210  1  0.50707771  0.86455681  0.75565471  1
  O  O211  1  0.49567542  0.14033925  0.25447060  1
  O  O212  1  0.49838930  0.12971205  0.74157597  1
  O  O213  1  0.50296797  0.63758627  0.25603315  1
  O  O214  1  0.49292887  0.63683172  0.74031501  1
  O  O215  1  0.99324619  0.12888908  0.24004767  1
  O  O216  1  1.00092605  0.13054239  0.74049350  1
  O  O217  1  1.00020968  0.63540815  0.24472618  1
  O  O218  1  0.98658962  0.63347565  0.74994029  1
  O  O219  1  0.36609143  0.26083075  0.00561980  1
  O  O220  1  0.37729270  0.25037883  0.51108439  1
  O  O221  1  0.36565263  0.75923113  0.01029663  1
  O  O222  1  0.37037186  0.75584851  0.50229565  1
  O  O223  1  0.86960372  0.25229675  0.00683074  1
  O  O224  1  0.86943545  0.26037880  0.49419844  1
  O  O225  1  0.86856757  0.75021343  0.00740539  1
  O  O226  1  0.87921017  0.75812449  0.51502507  1
  O  O227  1  0.12489506  0.24022360  0.48998797  1
  O  O228  1  0.13236279  0.25635600  0.98797913  1
  O  O229  1  0.14007615  0.75606838  0.50350134  1
  O  O230  1  0.13223328  0.75293459  0.99093463  1
  O  O231  1  0.63281683  0.24548503  0.48924110  1
  O  O232  1  0.63019302  0.24138002  0.99468930  1
  O  O233  1  0.61826670  0.74047709  0.48671916  1
  O  O234  1  0.63723183  0.74805330  0.99364376  1
  O  O235  1  0.49050644  0.25846188  0.13323431  1
  O  O236  1  0.49664616  0.24518256  0.63392964  1
  O  O237  1  0.48933995  0.76531774  0.13795789  1
  O  O238  1  0.49258451  0.74384162  0.62801468  1
  O  O239  1  0.99591837  0.24254674  0.12778839  1
  O  O240  1  1.00039664  0.24127886  0.63102232  1
  O  O241  1  0.99659895  0.74469401  0.13133299  1
  O  O242  1  0.99678954  0.74823881  0.63650738  1
  O  O243  1  0.01195192  0.25087894  0.36493022  1
  O  O244  1  0.00612938  0.24834086  0.86784624  1
  O  O245  1  -0.00492884  0.75836114  0.36672133  1
  O  O246  1  0.00430063  0.74900043  0.86619083  1
  O  O247  1  0.50476608  0.25789497  0.36928882  1
  O  O248  1  0.50422460  0.25282989  0.86428116  1
  O  O249  1  0.50600388  0.75648904  0.36881809  1
  O  O250  1  0.50922325  0.75019704  0.86406928  1
  O  O251  1  0.23722631  0.12499350  0.50772911  1
  O  O252  1  0.24786405  0.13764583  1.00235298  1
  O  O253  1  0.25077790  0.63519768  0.49211012  1
  O  O254  1  0.25467104  0.63629537  0.99130981  1
  O  O255  1  0.74670468  0.13094040  0.48613614  1
  O  O256  1  0.74577622  0.13657662  0.99086252  1
  O  O257  1  0.74187745  0.62345891  0.48382542  1
  O  O258  1  0.74619059  0.63859375  0.99468058  1
  O  O259  1  0.25478906  0.36431673  0.00567776  1
  O  O260  1  0.24214072  0.36888697  0.51320059  1
  O  O261  1  0.24805391  0.86422975  0.01107821  1
  O  O262  1  0.26304270  0.86738630  0.49203574  1
  O  O263  1  0.76804713  0.35901839  -0.00695488  1
  O  O264  1  0.76046512  0.36679742  0.49537318  1
  O  O265  1  0.74499486  0.86528193  0.00414536  1
  O  O266  1  0.76426483  0.87740984  0.49164715  1
  O  O267  1  0.13472974  0.49177674  0.24800307  1
  O  O268  1  0.12550287  0.48883692  0.74803481  1
  O  O269  1  0.12632965  0.99028665  0.24349960  1
  O  O270  1  0.12151794  0.98791700  0.74314909  1
  O  O271  1  0.64200209  0.50179614  0.24835360  1
  O  O272  1  0.62592728  0.51275304  0.75824653  1
  O  O273  1  0.63467751  0.99710181  0.24600638  1
  O  O274  1  0.62206411  0.99130674  0.73776941  1
  O  O275  1  0.36361358  0.00273972  0.25528552  1
  O  O276  1  0.36426841  0.00677929  0.70900726  1
  O  O277  1  0.36284698  0.49979842  0.25582692  1
  O  O278  1  0.37549772  0.51557813  0.74749462  1
  O  O279  1  0.87031536  0.00603593  0.25424059  1
  O  O280  1  0.87940404  0.00301813  0.76578513  1
  O  O281  1  0.87186119  0.50283469  0.25708489  1
  O  O282  1  0.87723948  0.50900058  0.75843860  1
  O  O283  1  0.12421599  0.36735598  0.36198931  1
  O  O284  1  0.12471306  0.36417628  0.86045077  1
  O  O285  1  0.11059163  0.88212216  0.37012599  1
  O  O286  1  0.11726514  0.86159654  0.86761311  1
  O  O287  1  0.61458520  0.36395631  0.37459501  1
  O  O288  1  0.63056606  0.36668126  0.88339737  1
  O  O289  1  0.62001083  0.86886598  0.37145271  1
  O  O290  1  0.61883794  0.86728723  0.86755470  1
  O  O291  1  0.36773489  0.14079965  0.12585966  1
  O  O292  1  0.39418186  0.13643226  0.61885159  1
  O  O293  1  0.36862647  0.63961851  0.12767456  1
  O  O294  1  0.38377272  0.63346459  0.62881882  1
  O  O295  1  0.88150380  0.13480008  0.12849698  1
  O  O296  1  0.88864185  0.12643019  0.62608517  1
  O  O297  1  0.88582363  0.63962958  0.12728057  1
  O  O298  1  0.87758819  0.63877684  0.63150366  1
  O  O299  1  0.25281495  0.25655702  0.11723194  1
  O  O300  1  0.26162358  0.25435452  0.62402283  1
  O  O301  1  0.24987087  0.75351371  0.11899365  1
  O  O302  1  0.26440692  0.74637854  0.61506246  1
  O  O303  1  0.76113417  0.24505495  0.11725943  1
  O  O304  1  0.75801387  0.23243322  0.60284401  1
  O  O305  1  0.75996727  0.75622977  0.11877335  1
  O  O306  1  0.76161368  0.74939107  0.62597348  1
  O  O307  1  0.23879396  0.25350031  0.37532933  1
  O  O308  1  0.23918888  0.24707369  0.88143967  1
  O  O309  1  0.25861366  0.74117717  0.38256514  1
  O  O310  1  0.23974220  0.74691868  0.88365834  1
  O  O311  1  0.74359094  0.24775280  0.37889219  1
  O  O312  1  0.74083176  0.24314546  0.88451641  1
  O  O313  1  0.74066041  0.74468887  0.36777770  1
  O  O314  1  0.74604198  0.74575490  0.88144559  1
  O  O315  1  -0.00484931  0.11508453  0.01064636  1
  O  O316  1  0.00569659  0.11941186  0.50635314  1
  O  O317  1  -0.00223172  0.62772154  0.01418065  1
  O  O318  1  0.00295074  0.61673476  0.49909366  1
  O  O319  1  0.51378749  0.13313719  -0.00123149  1
  O  O320  1  0.50976755  0.12060896  0.50302935  1
  O  O321  1  0.52020219  0.65756462  0.01721775  1
  O  O322  1  0.50524933  0.61762965  0.50376243  1
  O  O323  1  0.50416618  0.38739649  0.48765311  1
  O  O324  1  0.47756527  0.37461641  0.99295433  1
  O  O325  1  0.49641387  0.87794685  0.48717149  1
  O  O326  1  0.50341019  0.86975563  0.97875563  1
  O  O327  1  0.99471157  0.38141974  0.49626126  1
  O  O328  1  0.98661895  0.37277597  0.99582525  1
  O  O329  1  0.99310880  0.87977768  0.49330779  1
  O  O330  1  0.99914906  0.88570225  1.00103120  1
  O  O331  1  0.49363610  0.49408613  0.37696575  1
  O  O332  1  0.47662749  0.55252169  0.90385493  1
  O  O333  1  0.49496453  0.99319634  0.37840653  1
  O  O334  1  0.50541375  0.98525032  0.86717531  1
  O  O335  1  0.99032246  0.50032448  0.37858488  1
  O  O336  1  0.98783386  0.50070955  0.87649786  1
  O  O337  1  0.99277897  0.99384790  0.37911857  1
  O  O338  1  0.98838554  0.99911801  0.88454485  1
  O  O339  1  0.00181950  0.00576313  0.11932420  1
  O  O340  1  0.00479066  0.00615341  0.62011134  1
  O  O341  1  -0.00202637  0.51874986  0.12745734  1
  O  O342  1  0.00110778  0.50335899  0.61383209  1
  O  O343  1  0.51930602  0.00166771  0.14204490  1
  O  O344  1  0.50910526  0.00840126  0.61545666  1
  O  O345  1  0.49766671  0.50108840  0.11883328  1
  O  O346  1  0.49354541  0.50983372  0.61421957  1
  O  O347  1  0.24432259  0.38126766  0.24356610  1
  O  O348  1  0.24248474  0.37401046  0.73968009  1
  O  O349  1  0.23880070  0.88080082  0.24922877  1
  O  O350  1  0.23655893  0.86983761  0.75237957  1
  O  O351  1  0.75543027  0.39004512  0.25107389  1
  O  O352  1  0.74014959  0.34156677  0.73937606  1
  O  O353  1  0.74443942  0.88097642  0.24276189  1
  O  O354  1  0.73622034  0.87233915  0.75212287  1
  O  O355  1  0.24631917  0.11185584  0.24770603  1
  O  O356  1  0.25441154  0.11507959  0.75184209  1
  O  O357  1  0.25004969  0.61674758  0.25608522  1
  O  O358  1  0.25683723  0.62476274  0.75454079  1
  O  O359  1  0.75637667  0.12268605  0.25332735  1
  O  O360  1  0.74833026  0.13996956  0.76251807  1
  O  O361  1  0.75464777  0.62199653  0.26122346  1
  O  O362  1  0.76391758  0.63196168  0.76306446  1
  O  O363  1  0.37840337  0.11078688  0.37658067  1
  O  O364  1  0.36815217  0.12648280  0.87406413  1
  O  O365  1  0.36623786  0.61271137  0.37068690  1
  O  O366  1  0.35723015  0.64796158  0.85807064  1
  O  O367  1  0.87078706  0.12159142  0.36854249  1
  O  O368  1  0.86437515  0.11609151  0.87215826  1
  O  O369  1  0.86925947  0.62106294  0.37442025  1
  O  O370  1  0.86896273  0.61956681  0.86949408  1
  O  O371  1  0.13571151  0.37098359  0.13608161  1
  O  O372  1  0.13223404  0.37320722  0.63480359  1
  O  O373  1  0.13130872  0.87969099  0.13475926  1
  O  O374  1  0.11577509  0.88268583  0.63649994  1
  O  O375  1  0.63619237  0.39252962  0.08144199  1
  O  O376  1  0.62888039  0.36959804  0.62318281  1
  O  O377  1  0.63166352  0.88307460  0.12771581  1
  O  O378  1  0.61985902  0.88581928  0.63076566  1
  O  O379  1  0.12256899  0.25425472  0.25435897  1
  O  O380  1  0.11613456  0.25272321  0.75457570  1
  O  O381  1  0.11530873  0.76356099  0.24849588  1
  O  O382  1  0.11704742  0.75490803  0.75356782  1
  O  O383  1  0.61723808  0.24797973  0.25622729  1
  O  O384  1  0.60548713  0.24239620  0.76368426  1
  O  O385  1  0.61954627  0.75690055  0.25750367  1
  O  O386  1  0.61610737  0.75763947  0.75722695  1
  O  O387  1  0.38084993  0.24687285  0.24303168  1
  O  O388  1  0.38804385  0.24735335  0.74023482  1
  O  O389  1  0.38527884  0.74454133  0.24758784  1
  O  O390  1  0.38192195  0.74806991  0.73738755  1
  O  O391  1  0.88004688  0.24802617  0.24329862  1
  O  O392  1  0.88975195  0.24680640  0.75060448  1
  O  O393  1  0.88677313  0.75098922  0.24254250  1
  O  O394  1  0.88032379  0.74715019  0.74081725  1
  O  O395  1  0.38535609  0.50589781  0.49056884  1
  O  O396  1  0.36298332  0.47930603  1.00274685  1
  O  O397  1  0.38024420  0.99168378  0.49579455  1
  O  O398  1  0.38236759  0.97802258  1.04617671  1
  O  O399  1  0.88505075  0.49519541  0.49235525  1
  O  O400  1  0.87801354  0.49324253  0.99482499  1
  O  O401  1  0.88059996  0.99389269  0.49506385  1
  O  O402  1  0.88004747  1.00396365  0.98767824  1
  O  O403  1  0.11401073  -0.00682889  0.01420149  1
  O  O404  1  0.11662568  0.00458696  0.50422521  1
  O  O405  1  0.11804587  0.48708893  0.00663064  1
  O  O406  1  0.11214789  0.49695700  0.49700800  1
  O  O407  1  0.62715118  0.01413765  0.00582320  1
  O  O408  1  0.62056704  0.00652405  0.50208624  1
  O  O409  1  0.61949019  0.52944450  -0.00728504  1
  O  O410  1  0.61560568  0.51402540  0.49609587  1
  O  O411  1  0.36028758  0.36446003  0.12756433  1
  O  O412  1  0.36611995  0.36593488  0.62929727  1
  O  O413  1  0.35329805  0.85828590  0.14577581  1
  O  O414  1  0.38705903  0.86516513  0.60791041  1
  O  O415  1  0.88191583  0.36292133  0.11841015  1
  O  O416  1  0.88005710  0.37275151  0.61126552  1
  O  O417  1  0.87064496  0.86445691  0.12903745  1
  O  O418  1  0.87685961  0.86438713  0.61901398  1
  O  O419  1  0.12083140  0.13133684  0.38342210  1
  O  O420  1  0.12496367  0.13373925  0.87210255  1
  O  O421  1  0.14062310  0.62067670  0.37752163  1
  O  O422  1  0.13185967  0.63818165  0.86602598  1
  O  O423  1  0.63114630  0.13297444  0.37820529  1
  O  O424  1  0.63057162  0.12864731  0.88550677  1
  O  O425  1  0.63227718  0.63251827  0.38044979  1
  O  O426  1  0.63396119  0.64077444  0.88161871  1
