# generated using pymatgen
data_V85Zn86O256
_symmetry_space_group_name_H-M   'P 1'
_cell_length_a   16.92695034
_cell_length_b   16.92328821
_cell_length_c   16.92204609
_cell_angle_alpha   89.99402118
_cell_angle_beta   90.04991385
_cell_angle_gamma   89.99487240
_symmetry_Int_Tables_number   1
_chemical_formula_structural   V85Zn86O256
_chemical_formula_sum   'V85 Zn86 O256'
_cell_volume   4847.48166782
_cell_formula_units_Z   1
loop_
 _symmetry_equiv_pos_site_id
 _symmetry_equiv_pos_as_xyz
  1  'x, y, z'
loop_
 _atom_site_type_symbol
 _atom_site_label
 _atom_site_symmetry_multiplicity
 _atom_site_fract_x
 _atom_site_fract_y
 _atom_site_fract_z
 _atom_site_occupancy
  V  V0  1  0.24878051  0.24496626  0.49335756  1
  V  V1  1  0.37349513  0.61602650  0.24885655  1
  V  V2  1  0.37736741  0.62249282  0.74810144  1
  V  V3  1  0.12087187  0.61613923  -0.00118981  1
  V  V4  1  0.37344380  0.24959081  0.62367617  1
  V  V5  1  -0.00019006  0.62655994  0.63055642  1
  V  V6  1  0.24538713  0.87544573  0.13950849  1
  V  V7  1  0.62808876  0.76459509  0.37420279  1
  V  V8  1  0.62310187  -0.00297586  0.13456216  1
  V  V9  1  0.76292070  0.36817862  0.62238622  1
  V  V10  1  0.00327908  0.87454536  0.37395429  1
  V  V11  1  0.00639408  -0.00479670  0.50856375  1
  V  V12  1  0.12440469  -0.00445288  0.14142595  1
  V  V13  1  0.00194612  0.87516470  0.87205218  1
  V  V14  1  0.12480765  0.61791539  0.50618686  1
  V  V15  1  0.61764666  0.87424717  0.76582508  1
  V  V16  1  0.13182345  0.50057038  0.13086965  1
  V  V17  1  0.12308576  0.25003471  0.87326379  1
  V  V18  1  -0.00256537  0.49261301  0.50585627  1
  V  V19  1  0.62352991  0.12428599  0.00077767  1
  V  V20  1  0.86244674  0.86921924  0.50347417  1
  V  V21  1  -0.00257537  0.61735723  0.12162989  1
  V  V22  1  0.37343180  0.12414631  0.74842091  1
  V  V23  1  0.24967948  -0.00129379  0.74681899  1
  V  V24  1  0.00115045  0.75129332  0.25119647  1
  V  V25  1  0.87598409  0.38373145  0.00023356  1
  V  V26  1  0.12762313  0.87677083  0.74316824  1
  V  V27  1  -0.01276819  0.12370078  0.62993510  1
  V  V28  1  0.37531382  0.37686530  0.00180865  1
  V  V29  1  0.38287475  0.74950178  0.62250042  1
  V  V30  1  0.87831416  0.51199513  0.86843754  1
  V  V31  1  0.62469119  0.13631444  0.49415799  1
  V  V32  1  -0.00227156  0.25273523  0.25262498  1
  V  V33  1  0.12605034  0.75005111  0.37218758  1
  V  V34  1  0.25113048  0.87899200  0.62332327  1
  V  V35  1  0.50220813  0.12262119  0.62344258  1
  V  V36  1  0.74592231  0.87630897  0.13204883  1
  V  V37  1  0.25129858  0.74892924  0.49852881  1
  V  V38  1  0.50131071  0.76187238  0.25323727  1
  V  V39  1  0.38073242  0.37259664  0.49140482  1
  V  V40  1  0.62643251  0.37435419  0.74582366  1
  V  V41  1  0.37525955  0.24922077  0.13283764  1
  V  V42  1  0.62650474  -0.00996480  0.62139228  1
  V  V43  1  0.24890259  0.75154719  0.00278898  1
  V  V44  1  -0.01469748  0.24679240  0.74752096  1
  V  V45  1  0.73806077  0.63340373  0.86569212  1
  V  V46  1  0.63137316  0.62998015  0.49542447  1
  V  V47  1  0.12750421  0.12040531  0.50632463  1
  V  V48  1  0.00304239  -0.00084942  -0.00031616  1
  V  V49  1  0.12380658  0.37764368  0.74510667  1
  V  V50  1  0.74836967  0.49990377  0.24209822  1
  V  V51  1  0.50098416  0.37658060  0.87566264  1
  V  V52  1  0.87383566  0.87459181  -0.00005432  1
  V  V53  1  0.49943291  -0.00345343  0.48568447  1
  V  V54  1  0.24832299  0.12624039  0.87372064  1
  V  V55  1  0.25042259  0.62075956  0.87397714  1
  V  V56  1  0.24971790  0.61341954  0.37201898  1
  V  V57  1  0.50381341  0.49727696  0.48761264  1
  V  V58  1  0.75197432  -0.00427043  0.74314235  1
  V  V59  1  0.87385181  0.49290706  0.37950105  1
  V  V60  1  0.37871855  -0.00159917  0.88208854  1
  V  V61  1  0.62600083  0.49917556  0.62102960  1
  V  V62  1  0.50678592  0.24962072  0.26316096  1
  V  V63  1  0.30878635  0.06119968  0.30960708  1
  V  V64  1  0.12449522  0.12325738  0.00017397  1
  V  V65  1  0.12696408  0.75084147  0.87273075  1
  V  V66  1  0.62522259  0.24979890  0.87367095  1
  V  V67  1  0.12900169  0.37739799  0.25493390  1
  V  V68  1  0.49508275  0.12571832  0.12677164  1
  V  V69  1  0.24732077  0.38044387  0.62204671  1
  V  V70  1  -0.00238086  0.12612720  0.12667135  1
  V  V71  1  0.61952429  0.38072494  0.25566270  1
  V  V72  1  0.75266496  0.25219193  0.00061070  1
  V  V73  1  0.51029310  0.61864688  0.12899795  1
  V  V74  1  0.87645525  0.00363227  0.86868773  1
  V  V75  1  0.24968218  0.25094192  0.00244607  1
  V  V76  1  0.86238008  0.74782182  0.62703689  1
  V  V77  1  0.87488613  0.75153249  0.12464492  1
  V  V78  1  0.87376321  0.00281360  0.37578851  1
  V  V79  1  0.75309083  0.12493159  0.86755544  1
  V  V80  1  -0.00053488  0.37869312  0.87918541  1
  V  V81  1  0.49975956  0.24942325  0.74833059  1
  V  V82  1  0.37924635  0.87713745  0.48610849  1
  V  V83  1  0.76870656  0.25274932  0.49517758  1
  V  V84  1  0.87305130  0.62501851  0.25290764  1
  Zn  Zn85  1  0.73932059  0.75393671  -0.00716971  1
  Zn  Zn86  1  0.50550226  -0.01007000  -0.00247077  1
  Zn  Zn87  1  0.50982697  0.49591407  0.00855396  1
  Zn  Zn88  1  0.12450666  0.24379795  0.37527552  1
  Zn  Zn89  1  0.37678106  0.86927836  0.00114587  1
  Zn  Zn90  1  0.25211072  0.37905666  0.13052099  1
  Zn  Zn91  1  0.51451746  0.74365611  0.77381261  1
  Zn  Zn92  1  -0.00167665  0.37194756  0.38225785  1
  Zn  Zn93  1  0.74580788  0.13129130  0.36844243  1
  Zn  Zn94  1  0.37592632  0.74988331  0.12862911  1
  Zn  Zn95  1  0.87459899  0.25454849  0.12498437  1
  Zn  Zn96  1  0.74169876  0.38279694  0.11963970  1
  Zn  Zn97  1  0.75511428  0.50466965  0.74397073  1
  Zn  Zn98  1  0.50344119  0.62539979  0.62451189  1
  Zn  Zn99  1  0.37426195  0.49713786  0.87288476  1
  Zn  Zn100  1  -0.00411802  0.74884940  0.74786171  1
  Zn  Zn101  1  0.74817040  0.00400604  0.25265328  1
  Zn  Zn102  1  0.87209212  0.12687398  0.25066161  1
  Zn  Zn103  1  0.24488656  0.50204238  0.74277957  1
  Zn  Zn104  1  0.62792372  0.62322072  0.00096840  1
  Zn  Zn105  1  0.75129179  0.63056748  0.37745315  1
  Zn  Zn106  1  0.37495090  0.49315683  0.37039689  1
  Zn  Zn107  1  0.18466205  0.18779774  0.18938719  1
  Zn  Zn108  1  0.18197358  0.18918405  0.68236414  1
  Zn  Zn109  1  0.18730994  0.68615937  0.19002607  1
  Zn  Zn110  1  0.19062152  0.69154677  0.68610870  1
  Zn  Zn111  1  0.68530500  0.18985700  0.18777237  1
  Zn  Zn112  1  0.69013892  0.18555149  0.68241744  1
  Zn  Zn113  1  0.68694908  0.69450329  0.18952179  1
  Zn  Zn114  1  0.68697655  0.68843987  0.68929743  1
  Zn  Zn115  1  0.31083193  0.30574596  0.31166053  1
  Zn  Zn116  1  0.31140258  0.31308199  0.81150554  1
  Zn  Zn117  1  0.31330741  0.80590773  0.31093303  1
  Zn  Zn118  1  0.34618036  0.79500666  0.82958975  1
  Zn  Zn119  1  0.81050126  0.31518149  0.31044387  1
  Zn  Zn120  1  0.81191013  0.31787588  0.81286142  1
  Zn  Zn121  1  0.81206379  0.81494754  0.31455529  1
  Zn  Zn122  1  0.80994243  0.81636677  0.80667257  1
  Zn  Zn123  1  0.18364849  0.43425412  0.44014870  1
  Zn  Zn124  1  0.18666596  0.43794365  0.93910441  1
  Zn  Zn125  1  0.18863378  0.93825164  0.43419912  1
  Zn  Zn126  1  0.19087087  0.93725122  0.93789188  1
  Zn  Zn127  1  0.69118688  0.43514931  0.43302512  1
  Zn  Zn128  1  0.68922190  0.44550251  0.93595172  1
  Zn  Zn129  1  0.68695944  0.94250817  0.43715312  1
  Zn  Zn130  1  0.68959245  0.93949502  0.94086451  1
  Zn  Zn131  1  0.30853540  0.06188200  0.07133336  1
  Zn  Zn132  1  0.31482463  0.05971267  0.55659582  1
  Zn  Zn133  1  0.31554247  0.56307957  0.06324618  1
  Zn  Zn134  1  0.31553873  0.56054631  0.55859772  1
  Zn  Zn135  1  0.81163424  0.06177812  0.06075522  1
  Zn  Zn136  1  0.81209771  0.06165725  0.55844558  1
  Zn  Zn137  1  0.81034037  0.56549054  0.05554610  1
  Zn  Zn138  1  0.81321171  0.56372034  0.56312683  1
  Zn  Zn139  1  0.43962154  0.43579146  0.19071172  1
  Zn  Zn140  1  0.43800276  0.43845938  0.68165950  1
  Zn  Zn141  1  0.43189797  0.93927014  0.18388727  1
  Zn  Zn142  1  0.43848765  0.93703719  0.68414884  1
  Zn  Zn143  1  0.93800263  0.43769464  0.18755086  1
  Zn  Zn144  1  0.94132834  0.43919116  0.68941302  1
  Zn  Zn145  1  0.93775878  0.93834432  0.19063938  1
  Zn  Zn146  1  0.93689547  0.93466185  0.68489054  1
  Zn  Zn147  1  0.06165719  0.06515423  0.31897089  1
  Zn  Zn148  1  0.06416120  0.06067410  0.80694392  1
  Zn  Zn149  1  0.05987359  0.56104509  0.31499580  1
  Zn  Zn150  1  0.06175293  0.56008617  0.81125213  1
  Zn  Zn151  1  0.55891337  0.06639254  0.31125605  1
  Zn  Zn152  1  0.56288245  0.06024493  0.81085456  1
  Zn  Zn153  1  0.56542156  0.56616963  0.31108263  1
  Zn  Zn154  1  0.56242264  0.55742315  0.80936302  1
  Zn  Zn155  1  0.43275638  0.17959846  0.43571489  1
  Zn  Zn156  1  0.43655640  0.18747464  0.94002429  1
  Zn  Zn157  1  0.44204126  0.68529786  0.43427192  1
  Zn  Zn158  1  0.43981491  0.68562413  0.94292145  1
  Zn  Zn159  1  0.94206526  0.18381774  0.43931817  1
  Zn  Zn160  1  0.93672421  0.18934548  0.93676506  1
  Zn  Zn161  1  0.93727067  0.68531005  0.44184556  1
  Zn  Zn162  1  0.93906241  0.69155956  0.93748643  1
  Zn  Zn163  1  0.06207146  0.31435331  0.06373646  1
  Zn  Zn164  1  0.06081027  0.30656525  0.56600341  1
  Zn  Zn165  1  0.06438690  0.81012338  0.06275899  1
  Zn  Zn166  1  0.06244707  0.80830379  0.56067048  1
  Zn  Zn167  1  0.56457817  0.31456143  0.06771488  1
  Zn  Zn168  1  0.56269718  0.31377030  0.56097676  1
  Zn  Zn169  1  0.56051719  0.80750778  0.05691155  1
  Zn  Zn170  1  0.56338784  0.81327026  0.55941731  1
  O  O171  1  0.11473319  0.11736869  0.12090939  1
  O  O172  1  0.11270382  0.12633230  0.61430681  1
  O  O173  1  0.11839357  0.61963603  0.11996482  1
  O  O174  1  0.11901791  0.63237573  0.61443362  1
  O  O175  1  0.61780326  0.12113495  0.11672341  1
  O  O176  1  0.61981810  0.11773120  0.61612472  1
  O  O177  1  0.61199905  0.62444685  0.13418999  1
  O  O178  1  0.62543514  0.61686473  0.61873858  1
  O  O179  1  0.36800450  0.37412476  0.38748833  1
  O  O180  1  0.38282256  0.37332607  0.88188342  1
  O  O181  1  0.37088062  0.86772142  0.38743375  1
  O  O182  1  0.35927081  0.89738505  0.88047022  1
  O  O183  1  0.87821881  0.38909080  0.37055119  1
  O  O184  1  0.88133731  0.38427067  0.87994372  1
  O  O185  1  0.88108153  0.87915097  0.38666645  1
  O  O186  1  0.87874977  0.88390289  0.88040066  1
  O  O187  1  0.24784915  -0.00231296  0.36207744  1
  O  O188  1  0.25488127  0.01065248  0.86839239  1
  O  O189  1  0.25032746  0.51069430  0.38180974  1
  O  O190  1  0.24968736  0.51049047  0.87371011  1
  O  O191  1  0.75980834  0.00407829  0.37429794  1
  O  O192  1  0.75764800  0.00702113  0.86910897  1
  O  O193  1  0.75852884  0.50413769  0.36445737  1
  O  O194  1  0.76232381  0.51259213  0.86904887  1
  O  O195  1  0.23582241  0.50047496  0.12187618  1
  O  O196  1  0.25247228  0.48478312  0.62138790  1
  O  O197  1  0.23856947  0.98588856  0.12248449  1
  O  O198  1  0.25729864  0.98650254  0.62984054  1
  O  O199  1  0.75799482  0.50357126  0.13806254  1
  O  O200  1  0.74225237  0.48872123  0.62186745  1
  O  O201  1  0.74164647  0.99497689  0.12403580  1
  O  O202  1  0.74140044  1.00870710  0.63335615  1
  O  O203  1  0.00832733  0.36761407  0.24985188  1
  O  O204  1  0.00515854  0.36632430  0.75655505  1
  O  O205  1  -0.00660269  0.86770907  0.26566210  1
  O  O206  1  0.01062709  0.87573934  0.75414651  1
  O  O207  1  0.51010524  0.36548819  0.24998827  1
  O  O208  1  0.50405392  0.36865263  0.75441535  1
  O  O209  1  0.49301918  0.85982706  0.24354715  1
  O  O210  1  0.51554992  0.87930841  0.74795760  1
  O  O211  1  0.50593127  0.13972060  0.23990616  1
  O  O212  1  0.49549237  0.13055017  0.74420165  1
  O  O213  1  0.49263332  0.62784225  0.24368925  1
  O  O214  1  0.49257802  0.62772431  0.74709433  1
  O  O215  1  0.99854958  0.13336986  0.24283867  1
  O  O216  1  1.00417487  0.13054239  0.73845430  1
  O  O217  1  0.98946000  0.62911343  0.24397627  1
  O  O218  1  1.00792988  0.62697881  0.73506387  1
  O  O219  1  0.37165313  0.25983627  0.00816744  1
  O  O220  1  0.37000008  0.25377129  0.50491786  1
  O  O221  1  0.35740405  0.74431302  0.00839779  1
  O  O222  1  0.37238188  0.75358926  0.50501717  1
  O  O223  1  0.86765666  0.26154508  -0.00304135  1
  O  O224  1  0.86690665  0.24788624  0.50291211  1
  O  O225  1  0.87603517  0.76408714  0.00411555  1
  O  O226  1  0.87710463  0.76215930  0.50591125  1
  O  O227  1  0.13316234  0.24200424  0.50163528  1
  O  O228  1  0.12878710  0.24443554  0.99438260  1
  O  O229  1  0.12935433  0.73944925  0.49014507  1
  O  O230  1  0.13273444  0.74016900  0.99393332  1
  O  O231  1  0.62799703  0.23837611  0.50430804  1
  O  O232  1  0.63145368  0.24226369  0.99404975  1
  O  O233  1  0.61651208  0.74315904  0.48537254  1
  O  O234  1  0.62792141  0.73751186  1.00422534  1
  O  O235  1  0.49286426  0.24360008  0.12979388  1
  O  O236  1  0.49370264  0.24351351  0.62866047  1
  O  O237  1  0.49845646  0.73802735  0.13974535  1
  O  O238  1  0.48880174  0.75012158  0.62615308  1
  O  O239  1  0.99936309  0.24144923  0.13087268  1
  O  O240  1  0.99879662  0.23651271  0.63387247  1
  O  O241  1  0.99560156  0.74298234  0.13136058  1
  O  O242  1  0.99278705  0.74154269  0.62384933  1
  O  O243  1  -0.00009785  0.25245724  0.36731687  1
  O  O244  1  0.00480346  0.25574524  0.86832484  1
  O  O245  1  0.00602692  0.75462334  0.37369868  1
  O  O246  1  0.00707636  0.75736580  0.86978878  1
  O  O247  1  0.49398893  0.24421984  0.36109914  1
  O  O248  1  0.50394318  0.25841880  0.87025125  1
  O  O249  1  0.50922730  0.74627788  0.36141696  1
  O  O250  1  0.45333577  0.76211042  0.86497116  1
  O  O251  1  0.24078527  0.13271135  0.51149380  1
  O  O252  1  0.24315197  0.13109002  0.99602813  1
  O  O253  1  0.24326039  0.62887804  0.49522120  1
  O  O254  1  0.24165977  0.62842053  0.99409909  1
  O  O255  1  0.74269803  0.13941107  0.50253404  1
  O  O256  1  0.74506070  0.13093864  0.98889482  1
  O  O257  1  0.73526165  0.62065365  0.49846043  1
  O  O258  1  0.75356647  0.62907945  0.98045099  1
  O  O259  1  0.25736512  0.36856973  0.00179181  1
  O  O260  1  0.25454895  0.36634291  0.50622752  1
  O  O261  1  0.24995094  0.86422452  0.00588112  1
  O  O262  1  0.25627228  0.87055898  0.50619987  1
  O  O263  1  0.75686215  0.36878272  -0.00260365  1
  O  O264  1  0.74682086  0.36183082  0.50961215  1
  O  O265  1  0.75956702  0.87508661  0.00752812  1
  O  O266  1  0.76441784  0.87985978  0.49941220  1
  O  O267  1  0.11908385  0.49196833  0.24281343  1
  O  O268  1  0.12511535  0.48255825  0.75352582  1
  O  O269  1  0.11399206  1.00038209  0.24017379  1
  O  O270  1  0.13512168  0.98613438  0.75401223  1
  O  O271  1  0.63264833  0.49054049  0.25356158  1
  O  O272  1  0.62877582  0.49213010  0.73859851  1
  O  O273  1  0.62541703  1.00492027  0.23789531  1
  O  O274  1  0.63062795  0.99345665  0.74304173  1
  O  O275  1  0.37195440  0.00935170  0.24787757  1
  O  O276  1  0.36944481  0.00531668  0.75810837  1
  O  O277  1  0.37637433  0.50976830  0.25357399  1
  O  O278  1  0.37168738  0.51019381  0.74629606  1
  O  O279  1  0.87688497  0.00280269  0.26352696  1
  O  O280  1  0.86626236  -0.00706210  0.75766771  1
  O  O281  1  0.87172891  0.50808794  0.25666846  1
  O  O282  1  0.87367100  0.49535805  0.76451053  1
  O  O283  1  0.11965288  0.37121335  0.36824709  1
  O  O284  1  0.11649205  0.37046606  0.87171641  1
  O  O285  1  0.11535448  0.86252615  0.38271439  1
  O  O286  1  0.12281469  0.86949940  0.86866260  1
  O  O287  1  0.63326171  0.37167219  0.35598848  1
  O  O288  1  0.62022937  0.36922548  0.86745320  1
  O  O289  1  0.62572213  0.86380481  0.37995464  1
  O  O290  1  0.62369799  0.88301562  0.86512567  1
  O  O291  1  0.38607546  0.13487599  0.11670863  1
  O  O292  1  0.38140586  0.12909952  0.62955077  1
  O  O293  1  0.37800701  0.62764762  0.13548260  1
  O  O294  1  0.37765677  0.63034749  0.62796171  1
  O  O295  1  0.88837074  0.12508026  0.12190248  1
  O  O296  1  0.88792912  0.12083258  0.62374304  1
  O  O297  1  0.88157099  0.63021252  0.12841272  1
  O  O298  1  0.88259370  0.64008288  0.61744761  1
  O  O299  1  0.25845687  0.25066936  0.11981285  1
  O  O300  1  0.25671944  0.25788740  0.61825000  1
  O  O301  1  0.24243800  0.75953347  0.11912286  1
  O  O302  1  0.25870715  0.75821959  0.61567534  1
  O  O303  1  0.75243277  0.24806400  0.10871691  1
  O  O304  1  0.74877972  0.26109292  0.61672709  1
  O  O305  1  0.75866578  0.75864995  0.12426002  1
  O  O306  1  0.76340875  0.74627982  0.62347642  1
  O  O307  1  0.24700009  0.25019587  0.38971291  1
  O  O308  1  0.24419269  0.24481768  0.88048066  1
  O  O309  1  0.24223214  0.74125355  0.38070831  1
  O  O310  1  0.24868251  0.73775756  0.88197033  1
  O  O311  1  0.75716571  0.25014354  0.39050537  1
  O  O312  1  0.74705289  0.24410709  0.88154641  1
  O  O313  1  0.73365175  0.74957152  0.36722415  1
  O  O314  1  0.76085194  0.73579805  0.87260956  1
  O  O315  1  0.00504869  0.12095659  0.00603960  1
  O  O316  1  0.00266697  0.11567822  0.51297919  1
  O  O317  1  0.00932380  0.63298332  0.00981668  1
  O  O318  1  0.00796151  0.61839652  0.50829991  1
  O  O319  1  0.50972809  0.12584900  0.00685631  1
  O  O320  1  0.50867548  0.12045029  0.50429641  1
  O  O321  1  0.49486423  0.62260654  0.01887408  1
  O  O322  1  0.51062953  0.61507724  0.50206180  1
  O  O323  1  0.49162986  0.38157081  0.50249543  1
  O  O324  1  0.49413712  0.37281966  0.99270987  1
  O  O325  1  0.49135667  0.88475665  0.50396260  1
  O  O326  1  0.48793050  0.87999196  1.01438491  1
  O  O327  1  1.00597469  0.38835765  0.50475401  1
  O  O328  1  0.99270621  0.36944737  0.98700904  1
  O  O329  1  0.99560138  0.87990421  0.49347914  1
  O  O330  1  0.99522354  0.87929212  0.99307808  1
  O  O331  1  0.49970241  0.50179079  0.38457446  1
  O  O332  1  0.49733494  0.48511476  0.87324204  1
  O  O333  1  0.50432902  1.00121942  0.38625114  1
  O  O334  1  0.48304695  1.00906365  0.87739934  1
  O  O335  1  0.99150981  0.50029012  0.38606666  1
  O  O336  1  0.99029373  0.49144015  0.87195915  1
  O  O337  1  0.99415353  0.99123564  0.38444873  1
  O  O338  1  0.99347251  0.99652421  0.87734710  1
  O  O339  1  0.00535847  0.00472879  0.11936270  1
  O  O340  1  -0.00175107  0.00899793  0.62050631  1
  O  O341  1  0.00728391  0.51299103  0.12770355  1
  O  O342  1  -0.00806362  0.51154106  0.61752949  1
  O  O343  1  0.50570184  0.01072101  0.12413395  1
  O  O344  1  0.50818371  0.00760445  0.61956321  1
  O  O345  1  0.49574233  0.51404623  0.12779156  1
  O  O346  1  0.51418210  0.49843653  0.61538823  1
  O  O347  1  0.23427114  0.36714858  0.24856232  1
  O  O348  1  0.24281036  0.37483877  0.74128591  1
  O  O349  1  0.24463219  0.86423399  0.23800660  1
  O  O350  1  0.24599517  0.87929121  0.74055659  1
  O  O351  1  0.74351797  0.38322992  0.24457581  1
  O  O352  1  0.74415092  0.37441144  0.73755664  1
  O  O353  1  0.75841395  0.88106859  0.23562645  1
  O  O354  1  0.73739460  0.88911436  0.75261444  1
  O  O355  1  0.25222417  0.12523901  0.25202447  1
  O  O356  1  0.25228611  0.12016472  0.75169196  1
  O  O357  1  0.25923757  0.63022910  0.26050902  1
  O  O358  1  0.25217984  0.62106488  0.75692895  1
  O  O359  1  0.75398766  0.12512898  0.25111929  1
  O  O360  1  0.74343240  0.11701603  0.76181674  1
  O  O361  1  0.76136102  0.62176301  0.24902567  1
  O  O362  1  0.75194075  0.62342584  0.76044425  1
  O  O363  1  0.36313269  0.11572230  0.37777519  1
  O  O364  1  0.36731647  0.12155522  0.86869945  1
  O  O365  1  0.36600417  0.62220577  0.37003479  1
  O  O366  1  0.36599198  0.61798810  0.86668556  1
  O  O367  1  0.87519584  0.11259118  0.37812067  1
  O  O368  1  0.86793518  0.11242856  0.88065714  1
  O  O369  1  0.87382578  0.62022838  0.36726576  1
  O  O370  1  0.88051972  0.61364509  0.87632442  1
  O  O371  1  0.12401598  0.38514254  0.13118868  1
  O  O372  1  0.13413181  0.36658490  0.63381411  1
  O  O373  1  0.13298256  0.88322129  0.12089428  1
  O  O374  1  0.13616142  0.86668470  0.63181643  1
  O  O375  1  0.62873498  0.36967054  0.14256343  1
  O  O376  1  0.63223080  0.38042000  0.62820069  1
  O  O377  1  0.63469342  0.88613489  0.11836500  1
  O  O378  1  0.62406274  0.88761594  0.62575806  1
  O  O379  1  0.11314977  0.25624698  0.25100701  1
  O  O380  1  0.11894156  0.25871532  0.75710186  1
  O  O381  1  0.11656008  0.74122598  0.26426530  1
  O  O382  1  0.12685650  0.76110312  0.75641127  1
  O  O383  1  0.61265419  0.25718088  0.25042039  1
  O  O384  1  0.62035715  0.25341925  0.75400987  1
  O  O385  1  0.61278617  0.74921374  0.26129533  1
  O  O386  1  0.62533766  0.76851379  0.74700687  1
  O  O387  1  0.38727541  0.25892583  0.23857372  1
  O  O388  1  0.37945321  0.24420382  0.74416349  1
  O  O389  1  0.38649315  0.73825748  0.25192044  1
  O  O390  1  0.36277514  0.73259269  0.73420997  1
  O  O391  1  0.88506685  0.25083119  0.24582161  1
  O  O392  1  0.88621636  0.24983633  0.75834992  1
  O  O393  1  0.87984435  0.74309508  0.24630142  1
  O  O394  1  0.87804081  0.76161567  0.73102216  1
  O  O395  1  0.38595652  0.49010107  0.49868895  1
  O  O396  1  0.37727509  0.48582192  0.99904812  1
  O  O397  1  0.38722334  0.98921321  0.50486693  1
  O  O398  1  0.37155464  1.00870318  0.98698605  1
  O  O399  1  0.88353788  0.50693700  0.49092098  1
  O  O400  1  0.87139150  0.49009126  0.98709511  1
  O  O401  1  0.88403869  0.98916374  0.49620318  1
  O  O402  1  0.88135461  0.99081754  0.99308038  1
  O  O403  1  0.11859641  0.00588030  0.00307369  1
  O  O404  1  0.11341965  0.00176203  0.50005509  1
  O  O405  1  0.12436786  0.51117741  0.00649459  1
  O  O406  1  0.11603171  0.51092718  0.49678502  1
  O  O407  1  0.62558130  0.01307016  0.00545395  1
  O  O408  1  0.62019735  0.00829876  0.50668610  1
  O  O409  1  0.62198653  0.50873968  -0.00369685  1
  O  O410  1  0.62147178  0.50270772  0.50220865  1
  O  O411  1  0.37393236  0.36886539  0.11881590  1
  O  O412  1  0.36878841  0.36810352  0.61572225  1
  O  O413  1  0.35596738  0.87194446  0.12482602  1
  O  O414  1  0.36875864  0.86625744  0.62019926  1
  O  O415  1  0.87313429  0.37591063  0.11339805  1
  O  O416  1  0.86105656  0.37879397  0.62898995  1
  O  O417  1  0.87210321  0.87305819  0.11674105  1
  O  O418  1  0.88019065  0.86446843  0.61073023  1
  O  O419  1  0.11448278  0.12692188  0.39793503  1
  O  O420  1  0.12934022  0.12954454  0.87847968  1
  O  O421  1  0.13076930  0.62887923  0.38196341  1
  O  O422  1  0.12889471  0.62818092  0.88117857  1
  O  O423  1  0.62786665  0.12027252  0.39073339  1
  O  O424  1  0.63103672  0.12921333  0.88088210  1
  O  O425  1  0.62789276  0.63359759  0.38104434  1
  O  O426  1  0.63562525  0.62659950  0.86730236  1
