# generated using pymatgen
data_V85Zn86O256
_symmetry_space_group_name_H-M   'P 1'
_cell_length_a   16.94482390
_cell_length_b   16.94987261
_cell_length_c   16.95034787
_cell_angle_alpha   90.02703647
_cell_angle_beta   89.95580499
_cell_angle_gamma   89.94846581
_symmetry_Int_Tables_number   1
_chemical_formula_structural   V85Zn86O256
_chemical_formula_sum   'V85 Zn86 O256'
_cell_volume   4868.34963226
_cell_formula_units_Z   1
loop_
 _symmetry_equiv_pos_site_id
 _symmetry_equiv_pos_as_xyz
  1  'x, y, z'
loop_
 _atom_site_type_symbol
 _atom_site_label
 _atom_site_symmetry_multiplicity
 _atom_site_fract_x
 _atom_site_fract_y
 _atom_site_fract_z
 _atom_site_occupancy
  V  V0  1  0.61710367  0.26376424  0.37107938  1
  V  V1  1  0.12970712  0.75098336  0.37437113  1
  V  V2  1  0.62662558  0.37056252  0.74888980  1
  V  V3  1  0.24891584  -0.00445159  0.73951430  1
  V  V4  1  0.87525115  0.61757584  0.24994223  1
  V  V5  1  0.89483849  0.09338822  0.70867218  1
  V  V6  1  0.87512067  0.87160652  0.50068535  1
  V  V7  1  0.74708006  0.75249779  0.00399738  1
  V  V8  1  0.74302528  0.87465894  0.13535161  1
  V  V9  1  0.37222635  0.75408985  0.62792763  1
  V  V10  1  0.00574846  0.62534832  0.12213755  1
  V  V11  1  0.50210115  0.62900360  0.62314668  1
  V  V12  1  0.50922414  0.86772112  0.35572605  1
  V  V13  1  0.87485457  0.25798116  0.62418884  1
  V  V14  1  0.12608890  0.37498059  0.24912873  1
  V  V15  1  0.24762711  0.24584721  0.50168609  1
  V  V16  1  0.38466661  0.62398680  0.25617424  1
  V  V17  1  0.63148694  0.73348688  0.36965442  1
  V  V18  1  0.74350127  0.37094585  0.12560858  1
  V  V19  1  0.87101831  0.12465937  0.25379582  1
  V  V20  1  0.00732849  0.11444373  0.11903646  1
  V  V21  1  0.63022506  0.24675000  0.88746727  1
  V  V22  1  0.74792698  0.00324182  0.75165971  1
  V  V23  1  0.49792948  0.38140922  0.87386359  1
  V  V24  1  0.10971460  0.11292613  0.50946354  1
  V  V25  1  0.12566913  0.88035646  0.24562013  1
  V  V26  1  0.00164334  0.74972972  0.25062153  1
  V  V27  1  0.00485611  0.50012116  -0.00095945  1
  V  V28  1  0.87260133  0.24762397  0.11920316  1
  V  V29  1  0.50681040  0.13029242  0.11710539  1
  V  V30  1  0.49681128  0.50151374  0.49753059  1
  V  V31  1  0.50261482  0.76594822  0.75483692  1
  V  V32  1  0.37717555  -0.00284602  0.36917886  1
  V  V33  1  0.87637448  0.50057643  0.87559940  1
  V  V34  1  0.87365402  0.75088869  0.12780476  1
  V  V35  1  0.62294949  0.76697984  0.87276125  1
  V  V36  1  0.00158515  0.88171929  0.37863570  1
  V  V37  1  0.25063466  0.00028746  0.24221557  1
  V  V38  1  0.37362207  0.24557749  0.62510245  1
  V  V39  1  0.62766349  0.00775271  0.12098541  1
  V  V40  1  0.88242646  -0.00304267  0.88512758  1
  V  V41  1  -0.00510180  0.24938729  0.74718506  1
  V  V42  1  0.75011859  0.49987828  0.75337210  1
  V  V43  1  -0.00104792  0.24850837  0.24815076  1
  V  V44  1  0.74547194  0.62689559  0.87753107  1
  V  V45  1  0.38132137  0.74841452  0.12788263  1
  V  V46  1  0.12531293  0.50158475  0.62792848  1
  V  V47  1  0.24593788  0.74158242  -0.00399336  1
  V  V48  1  0.24854867  0.24412122  -0.01066333  1
  V  V49  1  0.00334772  0.63331465  0.63282232  1
  V  V50  1  0.49945295  -0.00219260  0.49781385  1
  V  V51  1  0.74271035  -0.00083098  0.25953595  1
  V  V52  1  0.11604462  0.87675156  0.73902712  1
  V  V53  1  0.12777475  0.62545087  0.50191808  1
  V  V54  1  0.87918625  0.63809110  0.75615872  1
  V  V55  1  0.37276050  0.25170845  0.12392211  1
  V  V56  1  0.25505891  0.50012722  0.75661785  1
  V  V57  1  0.24906433  0.87573859  0.11590560  1
  V  V58  1  0.37984105  0.12525842  0.24868972  1
  V  V59  1  0.62362942  0.50211379  0.12199298  1
  V  V60  1  0.50153932  0.12385870  0.62712173  1
  V  V61  1  -0.00167273  0.37996963  0.37442617  1
  V  V62  1  0.50204298  0.24753014  0.75066429  1
  V  V63  1  0.81333733  0.56298320  0.41709982  1
  V  V64  1  0.25244140  0.75130417  0.50242445  1
  V  V65  1  0.62946385  0.12284261  0.49033811  1
  V  V66  1  0.75255967  0.12834709  0.89480835  1
  V  V67  1  0.74470264  0.87152655  0.62623063  1
  V  V68  1  0.37754447  0.62431903  0.75937931  1
  V  V69  1  0.12764643  0.50200350  0.12426953  1
  V  V70  1  0.37288248  0.87464564  0.49986711  1
  V  V71  1  0.12337286  0.24582975  0.37655657  1
  V  V72  1  0.37203302  0.38350326  -0.00604607  1
  V  V73  1  0.37696084  0.37708466  0.49661466  1
  V  V74  1  0.62528416  -0.00354213  0.62799497  1
  V  V75  1  0.10948096  0.75423929  0.87054778  1
  V  V76  1  0.87207605  0.37106307  -0.00018197  1
  V  V77  1  -0.00084476  0.50335377  0.49679992  1
  V  V78  1  0.74838113  0.49738716  0.24843069  1
  V  V79  1  0.62202279  0.50450283  0.62450370  1
  V  V80  1  0.87069343  0.37911498  0.49051723  1
  V  V81  1  0.74917506  0.24621779  0.49412088  1
  V  V82  1  0.87395612  0.00273174  0.37807908  1
  V  V83  1  0.12272495  0.37411943  0.74996862  1
  V  V84  1  0.25419135  0.61571176  0.37554969  1
  Zn  Zn85  1  0.50164655  0.62687839  0.12329165  1
  Zn  Zn86  1  0.49956024  0.26660573  0.25372726  1
  Zn  Zn87  1  0.35087446  0.12901078  0.76700471  1
  Zn  Zn88  1  0.24713897  0.62302715  0.87753845  1
  Zn  Zn89  1  0.13598517  0.10941002  -0.00732745  1
  Zn  Zn90  1  0.24886895  0.12146663  0.37559938  1
  Zn  Zn91  1  0.43646970  0.43984338  0.33231016  1
  Zn  Zn92  1  0.87227090  0.74979220  0.62656434  1
  Zn  Zn93  1  0.38420803  -0.00292487  0.87174294  1
  Zn  Zn94  1  0.39135013  0.87147107  -0.01607027  1
  Zn  Zn95  1  0.74737978  0.37625676  0.62330550  1
  Zn  Zn96  1  0.87629735  0.87453679  0.00126724  1
  Zn  Zn97  1  0.49457631  0.50781151  -0.00655362  1
  Zn  Zn98  1  0.74177294  0.73940971  0.49937234  1
  Zn  Zn99  1  0.24697424  0.37452050  0.12101319  1
  Zn  Zn100  1  0.25003707  0.37455545  0.62659829  1
  Zn  Zn101  1  0.02696431  -0.02503619  -0.00353834  1
  Zn  Zn102  1  0.12799975  0.24233304  0.86793485  1
  Zn  Zn103  1  0.61986363  0.62653325  -0.00030247  1
  Zn  Zn104  1  -0.00046162  0.37309645  0.87537771  1
  Zn  Zn105  1  0.25575261  0.49697144  0.25239201  1
  Zn  Zn106  1  0.50263651  -0.00329636  -0.00840485  1
  Zn  Zn107  1  0.19007773  0.18640835  0.18462969  1
  Zn  Zn108  1  0.18118326  0.18192955  0.68438764  1
  Zn  Zn109  1  0.19256872  0.68710291  0.18916580  1
  Zn  Zn110  1  0.18991375  0.69337965  0.69389509  1
  Zn  Zn111  1  0.68977886  0.18816211  0.19303701  1
  Zn  Zn112  1  0.69335883  0.18400204  0.68379751  1
  Zn  Zn113  1  0.68512178  0.68407741  0.19537111  1
  Zn  Zn114  1  0.68518814  0.68921393  0.69062456  1
  Zn  Zn115  1  0.30800687  0.30838178  0.31211424  1
  Zn  Zn116  1  0.31392779  0.31318993  0.81088298  1
  Zn  Zn117  1  0.31458255  0.81068844  0.31060257  1
  Zn  Zn118  1  0.30572228  0.82669507  0.81337930  1
  Zn  Zn119  1  0.80800757  0.31112767  0.31260054  1
  Zn  Zn120  1  0.81210017  0.31119094  0.81451467  1
  Zn  Zn121  1  0.80924951  0.80967749  0.31477340  1
  Zn  Zn122  1  0.80751442  0.81902554  0.81386651  1
  Zn  Zn123  1  0.18741471  0.43378635  0.44100739  1
  Zn  Zn124  1  0.18545128  0.43280864  0.93432519  1
  Zn  Zn125  1  0.19097592  0.93941097  0.43607732  1
  Zn  Zn126  1  0.19464572  0.93863963  0.92519486  1
  Zn  Zn127  1  0.67923505  0.43645701  0.44204984  1
  Zn  Zn128  1  0.68775039  0.43471197  0.93957146  1
  Zn  Zn129  1  0.68736648  0.93284019  0.43935150  1
  Zn  Zn130  1  0.69099308  0.94137013  0.94262613  1
  Zn  Zn131  1  0.31830061  0.06079546  0.05684621  1
  Zn  Zn132  1  0.30686644  0.06171599  0.56545605  1
  Zn  Zn133  1  0.31259095  0.56428025  0.06561694  1
  Zn  Zn134  1  0.31420265  0.56425392  0.56960863  1
  Zn  Zn135  1  0.81300536  0.06264346  0.06845304  1
  Zn  Zn136  1  0.81761149  0.05884944  0.55922088  1
  Zn  Zn137  1  0.81300934  0.56201769  0.06241020  1
  Zn  Zn138  1  0.81449696  0.56140824  0.58101304  1
  Zn  Zn139  1  0.43803591  0.43846959  0.17355081  1
  Zn  Zn140  1  0.43621204  0.43587315  0.68514328  1
  Zn  Zn141  1  0.45165907  0.92423244  0.15587127  1
  Zn  Zn142  1  0.43161200  0.93968241  0.68801139  1
  Zn  Zn143  1  0.93725810  0.43625276  0.18606289  1
  Zn  Zn144  1  0.93815460  0.44044964  0.68616708  1
  Zn  Zn145  1  0.93438261  0.93627966  0.18717327  1
  Zn  Zn146  1  0.93597749  0.92552253  0.69147174  1
  Zn  Zn147  1  0.06154174  0.06278021  0.31080966  1
  Zn  Zn148  1  0.06938533  0.05972454  0.81296087  1
  Zn  Zn149  1  0.06529453  0.56291893  0.31217366  1
  Zn  Zn150  1  0.06687416  0.56774777  0.81677110  1
  Zn  Zn151  1  0.55942180  0.06512120  0.30870804  1
  Zn  Zn152  1  0.56186995  0.06376647  0.81679397  1
  Zn  Zn153  1  0.56964422  0.56057561  0.30849121  1
  Zn  Zn154  1  0.56321233  0.56615160  0.80994137  1
  Zn  Zn155  1  0.43827055  0.18505460  0.43823082  1
  Zn  Zn156  1  0.43767090  0.18895601  0.93650299  1
  Zn  Zn157  1  0.44374617  0.68950049  0.43565508  1
  Zn  Zn158  1  0.43680720  0.69344505  0.93819508  1
  Zn  Zn159  1  0.93627376  0.18948322  0.43671975  1
  Zn  Zn160  1  0.94240721  0.18225353  0.93321846  1
  Zn  Zn161  1  0.94394003  0.69627204  0.44175558  1
  Zn  Zn162  1  0.93588940  0.68829844  0.94325960  1
  Zn  Zn163  1  0.06139792  0.31023499  0.06200565  1
  Zn  Zn164  1  0.06050183  0.31196842  0.56358263  1
  Zn  Zn165  1  0.06658682  0.80998282  0.06020333  1
  Zn  Zn166  1  0.06139493  0.81330588  0.56078831  1
  Zn  Zn167  1  0.55873405  0.31530440  0.06249864  1
  Zn  Zn168  1  0.56103627  0.31343637  0.56020527  1
  Zn  Zn169  1  0.56734573  0.81201302  0.06907458  1
  Zn  Zn170  1  0.56174858  0.81161794  0.55514947  1
  O  O171  1  0.10925093  0.13127980  0.12372194  1
  O  O172  1  0.11765176  0.12552160  0.60837726  1
  O  O173  1  0.11647443  0.61571682  0.13257867  1
  O  O174  1  0.11972268  0.62222387  0.62456882  1
  O  O175  1  0.61904953  0.12263943  0.13174858  1
  O  O176  1  0.61961739  0.11978597  0.61374255  1
  O  O177  1  0.62484408  0.61629511  0.12323172  1
  O  O178  1  0.61635146  0.61565037  0.63228480  1
  O  O179  1  0.36379397  0.37305526  0.39141291  1
  O  O180  1  0.38678545  0.36931441  0.88017693  1
  O  O181  1  0.38439066  0.87939161  0.37744377  1
  O  O182  1  0.38474576  0.87602205  0.87140000  1
  O  O183  1  0.88005481  0.37230697  0.38354147  1
  O  O184  1  0.87404018  0.38281369  0.88340449  1
  O  O185  1  0.88323419  0.87834367  0.37958639  1
  O  O186  1  0.86369567  0.89281256  0.88092127  1
  O  O187  1  0.26325729  -0.00089290  0.36359014  1
  O  O188  1  0.26134826  -0.00936504  0.85130043  1
  O  O189  1  0.24384383  0.51250745  0.37808738  1
  O  O190  1  0.24245475  0.50237327  0.86101568  1
  O  O191  1  0.75881567  -0.00592295  0.36906266  1
  O  O192  1  0.74848216  0.01389006  0.86903698  1
  O  O193  1  0.74584471  0.49707890  0.36784166  1
  O  O194  1  0.75363548  0.50889887  0.87293597  1
  O  O195  1  0.23665515  0.49788783  0.12469647  1
  O  O196  1  0.24105781  0.49943680  0.63571522  1
  O  O197  1  0.25758495  0.99067092  0.13612772  1
  O  O198  1  0.25415422  0.99285942  0.63591332  1
  O  O199  1  0.74682584  0.49235103  0.13020170  1
  O  O200  1  0.73940882  0.49666054  0.63456230  1
  O  O201  1  0.74673834  0.99465219  0.13593940  1
  O  O202  1  0.74344100  0.99340178  0.62875196  1
  O  O203  1  0.00879980  0.37062776  0.25364485  1
  O  O204  1  0.00660527  0.37083310  0.74979773  1
  O  O205  1  0.00735428  0.86990462  0.25390695  1
  O  O206  1  0.01399633  0.87633623  0.75171018  1
  O  O207  1  0.48792563  0.37885757  0.25405403  1
  O  O208  1  0.50591381  0.36826257  0.75437829  1
  O  O209  1  0.49525875  0.87900744  0.25868977  1
  O  O210  1  0.50156477  0.86306742  0.74031674  1
  O  O211  1  0.48797846  0.13372922  0.24636633  1
  O  O212  1  0.50832999  0.13169130  0.73466757  1
  O  O213  1  0.48717984  0.61976834  0.24989837  1
  O  O214  1  0.49362439  0.63004528  0.74114963  1
  O  O215  1  0.99177991  0.12908236  0.24121431  1
  O  O216  1  0.98413749  0.13105281  0.74934910  1
  O  O217  1  0.99533681  0.62743048  0.24228292  1
  O  O218  1  0.99090836  0.61896359  0.74422221  1
  O  O219  1  0.36635918  0.25781258  0.00488271  1
  O  O220  1  0.36716127  0.25307913  0.50486346  1
  O  O221  1  0.36531382  0.75375587  0.00993937  1
  O  O222  1  0.37371045  0.75611103  0.50595217  1
  O  O223  1  0.88171232  0.25748153  0.00894063  1
  O  O224  1  0.86748957  0.26070505  0.49986171  1
  O  O225  1  0.86045170  0.74747402  0.00936267  1
  O  O226  1  0.86868724  0.76153427  0.49904121  1
  O  O227  1  0.12938567  0.24615010  0.49339719  1
  O  O228  1  0.14253330  0.25503358  1.00099473  1
  O  O229  1  0.13208220  0.74478981  0.49456317  1
  O  O230  1  0.13858990  0.75252341  0.98949001  1
  O  O231  1  0.63029031  0.24417457  0.49365623  1
  O  O232  1  0.62487071  0.25807775  0.98612692  1
  O  O233  1  0.62616113  0.75620928  0.48101849  1
  O  O234  1  0.63294698  0.75003916  0.99465465  1
  O  O235  1  0.48958770  0.24829441  0.12819520  1
  O  O236  1  0.49413508  0.24310204  0.62784929  1
  O  O237  1  0.48506211  0.74656930  0.12541332  1
  O  O238  1  0.49776827  0.74464809  0.63218315  1
  O  O239  1  0.98985359  0.24475804  0.13107681  1
  O  O240  1  0.98890858  0.25722927  0.63530341  1
  O  O241  1  0.99762884  0.73977316  0.13215480  1
  O  O242  1  0.99541241  0.73567253  0.61892908  1
  O  O243  1  0.00589773  0.25792062  0.36805842  1
  O  O244  1  -0.00943902  0.25467085  0.85757868  1
  O  O245  1  0.00798820  0.76069333  0.36849722  1
  O  O246  1  0.01071480  0.74775773  0.88247301  1
  O  O247  1  0.51309316  0.24748433  0.37764071  1
  O  O248  1  0.51215256  0.25779509  0.86824797  1
  O  O249  1  0.50971310  0.76163099  0.37428240  1
  O  O250  1  0.50810596  0.74963283  0.86255262  1
  O  O251  1  0.24302457  0.13531824  0.49765446  1
  O  O252  1  0.25100322  0.14144783  1.00877441  1
  O  O253  1  0.24722134  0.62925466  0.49537829  1
  O  O254  1  0.25345125  0.63774144  0.99877495  1
  O  O255  1  0.74177855  0.13375391  0.50368487  1
  O  O256  1  0.74889035  0.12618440  0.99292105  1
  O  O257  1  0.76535320  0.61828150  0.49223152  1
  O  O258  1  0.74854223  0.63277116  0.99290141  1
  O  O259  1  0.25674146  0.36606967  -0.00224289  1
  O  O260  1  0.25258027  0.36218423  0.50568365  1
  O  O261  1  0.25129273  0.86522376  0.01172506  1
  O  O262  1  0.26500071  0.86812110  0.48982710  1
  O  O263  1  0.76469750  0.37990798  0.00912202  1
  O  O264  1  0.75673212  0.37083101  0.50000684  1
  O  O265  1  0.75189702  0.86671644  0.01264525  1
  O  O266  1  0.75711534  0.87501451  0.51179156  1
  O  O267  1  0.12545760  0.49078836  0.24215117  1
  O  O268  1  0.12856048  0.49306007  0.74548434  1
  O  O269  1  0.13626039  0.99168079  0.25587469  1
  O  O270  1  0.12981325  0.98584952  0.75218737  1
  O  O271  1  0.63602747  0.50102510  0.23591439  1
  O  O272  1  0.62849027  0.49224229  0.74326888  1
  O  O273  1  0.63931548  1.01012757  0.24616184  1
  O  O274  1  0.63425378  1.01091288  0.73508194  1
  O  O275  1  0.37108880  0.00778907  0.25492074  1
  O  O276  1  0.36393659  0.00790531  0.74282062  1
  O  O277  1  0.37318033  0.50975697  0.25117832  1
  O  O278  1  0.36644955  0.50932345  0.74160682  1
  O  O279  1  0.86849915  0.00587612  0.25924077  1
  O  O280  1  0.86773898  -0.00153467  0.76923022  1
  O  O281  1  0.87276119  0.51029752  0.24794435  1
  O  O282  1  0.86929890  0.50657596  0.75733731  1
  O  O283  1  0.12088893  0.36465829  0.37012230  1
  O  O284  1  0.12118884  0.36781172  0.86109933  1
  O  O285  1  0.11961838  0.87171840  0.36772579  1
  O  O286  1  0.12959375  0.85879222  0.86681940  1
  O  O287  1  0.62067204  0.36257412  0.37852894  1
  O  O288  1  0.62401854  0.36752356  0.86451328  1
  O  O289  1  0.60937904  0.88141721  0.37242647  1
  O  O290  1  0.63602533  0.86544409  0.87634820  1
  O  O291  1  0.38254606  0.13336902  0.13131078  1
  O  O292  1  0.38402421  0.13548219  0.61995861  1
  O  O293  1  0.37376228  0.63004279  0.13817625  1
  O  O294  1  0.38253358  0.63706022  0.63354467  1
  O  O295  1  0.88167391  0.13195790  0.13230849  1
  O  O296  1  0.86521970  0.15202120  0.61580797  1
  O  O297  1  0.88232763  0.62924728  0.13305643  1
  O  O298  1  0.88378258  0.62806298  0.63919100  1
  O  O299  1  0.26091137  0.25309298  0.11882612  1
  O  O300  1  0.25688303  0.24821250  0.61891192  1
  O  O301  1  0.25289717  0.75274005  0.11437443  1
  O  O302  1  0.26190904  0.74347993  0.61604231  1
  O  O303  1  0.76262016  0.25752264  0.13306595  1
  O  O304  1  0.75217175  0.25803329  0.61152256  1
  O  O305  1  0.74973288  0.75512592  0.12244311  1
  O  O306  1  0.74820468  0.75613555  0.62168262  1
  O  O307  1  0.23987809  0.24619855  0.38327507  1
  O  O308  1  0.25074259  0.25005472  0.88583550  1
  O  O309  1  0.24744828  0.74048827  0.38224075  1
  O  O310  1  0.25317072  0.75029337  0.88998532  1
  O  O311  1  0.73811661  0.25357452  0.38634682  1
  O  O312  1  0.74769722  0.23516466  0.87152557  1
  O  O313  1  0.73774956  0.75086595  0.37974026  1
  O  O314  1  0.74482607  0.74527436  0.88315313  1
  O  O315  1  -0.00324136  0.12334361  0.01623391  1
  O  O316  1  0.01107912  0.12665950  0.49288613  1
  O  O317  1  -0.00550359  0.61573225  0.01427514  1
  O  O318  1  0.00796347  0.62121021  0.50611801  1
  O  O319  1  0.50073551  0.12771966  0.01554673  1
  O  O320  1  0.50600078  0.11775698  0.50912254  1
  O  O321  1  0.50158866  0.62404615  0.00083303  1
  O  O322  1  0.49151850  0.61888602  0.51570783  1
  O  O323  1  0.48878618  0.38518568  0.50513655  1
  O  O324  1  0.49036749  0.37680452  0.99023500  1
  O  O325  1  0.48866274  0.88168177  0.49092358  1
  O  O326  1  0.49024057  0.88875881  1.04477830  1
  O  O327  1  0.99093288  0.38293089  0.49608468  1
  O  O328  1  0.98980630  0.38156885  1.00005423  1
  O  O329  1  0.99137481  0.87105404  0.48963372  1
  O  O330  1  0.98770312  0.87327688  1.01744890  1
  O  O331  1  0.50547596  0.50906493  0.39293948  1
  O  O332  1  0.51030174  0.48530405  0.87398541  1
  O  O333  1  0.49089494  0.99435990  0.37643250  1
  O  O334  1  0.50534638  0.99602347  0.87854947  1
  O  O335  1  1.00903892  0.49248703  0.38419438  1
  O  O336  1  0.99684149  0.50022763  0.88458072  1
  O  O337  1  0.99180877  0.98729924  0.36583013  1
  O  O338  1  0.98439255  1.00465933  0.88272596  1
  O  O339  1  -0.00459264  0.01306106  0.12692170  1
  O  O340  1  -0.07428788  0.02473491  0.63559339  1
  O  O341  1  0.00849436  0.50474873  0.12023878  1
  O  O342  1  0.00469467  0.51133591  0.61802407  1
  O  O343  1  0.51506099  0.01804234  0.13821589  1
  O  O344  1  0.50647126  0.00590590  0.61987064  1
  O  O345  1  0.51121992  0.50343403  0.11616318  1
  O  O346  1  0.50475955  0.50820817  0.62180607  1
  O  O347  1  0.23748253  0.37701524  0.24901478  1
  O  O348  1  0.24305439  0.38097494  0.74740289  1
  O  O349  1  0.24223164  0.88083758  0.24685086  1
  O  O350  1  0.23578845  0.88123372  0.74374150  1
  O  O351  1  0.76088905  0.38793769  0.23984024  1
  O  O352  1  0.74193108  0.38128093  0.74970007  1
  O  O353  1  0.75613458  0.88670786  0.24654912  1
  O  O354  1  0.75336906  0.88752732  0.73599408  1
  O  O355  1  0.25948007  0.11733589  0.24911736  1
  O  O356  1  0.23982260  0.10732483  0.74360476  1
  O  O357  1  0.25696972  0.61944140  0.26040320  1
  O  O358  1  0.26076584  0.61806721  0.74962218  1
  O  O359  1  0.76476378  0.11695234  0.24799938  1
  O  O360  1  0.77250908  0.10974175  0.73683539  1
  O  O361  1  0.76159594  0.61003901  0.24832915  1
  O  O362  1  0.75785417  0.62094467  0.75837906  1
  O  O363  1  0.37422989  0.11616788  0.36800771  1
  O  O364  1  0.38730777  0.11716798  0.87134373  1
  O  O365  1  0.36967385  0.62995752  0.36531400  1
  O  O366  1  0.37419665  0.62900683  0.86186970  1
  O  O367  1  0.88171448  0.11491361  0.36699006  1
  O  O368  1  0.86124946  0.11484693  0.87864412  1
  O  O369  1  0.88339735  0.62561895  0.36796029  1
  O  O370  1  0.86607005  0.62151259  0.87291424  1
  O  O371  1  0.12320275  0.38120421  0.13361575  1
  O  O372  1  0.12449299  0.38171961  0.63433899  1
  O  O373  1  0.13466309  0.86686896  0.13929554  1
  O  O374  1  0.12014583  0.86721585  0.63851220  1
  O  O375  1  0.63899665  0.37851894  0.11908173  1
  O  O376  1  0.62194656  0.38092264  0.63659384  1
  O  O377  1  0.63783806  0.88526850  0.13135642  1
  O  O378  1  0.63085996  0.88608081  0.61678332  1
  O  O379  1  0.12156452  0.25567161  0.25594488  1
  O  O380  1  0.11446052  0.25683293  0.74543097  1
  O  O381  1  0.12198243  0.75627594  0.25687496  1
  O  O382  1  0.12693340  0.76008992  0.76123052  1
  O  O383  1  0.62458005  0.24684062  0.26821563  1
  O  O384  1  0.62445374  0.25675504  0.75096546  1
  O  O385  1  0.62829236  0.75023293  0.26765403  1
  O  O386  1  0.61156082  0.74811595  0.75813735  1
  O  O387  1  0.37166476  0.24279352  0.24174777  1
  O  O388  1  0.37966434  0.24546158  0.74081570  1
  O  O389  1  0.36676793  0.73286103  0.24306801  1
  O  O390  1  0.38574279  0.74569441  0.74336672  1
  O  O391  1  0.87901843  0.24232099  0.24604570  1
  O  O392  1  0.87854079  0.25924051  0.73617100  1
  O  O393  1  0.87999200  0.73832647  0.24707637  1
  O  O394  1  0.86987228  0.74069202  0.75360249  1
  O  O395  1  0.38248318  0.48976530  0.51093207  1
  O  O396  1  0.37222596  0.48753795  1.00238400  1
  O  O397  1  0.37738580  0.99390752  0.49109803  1
  O  O398  1  0.38107072  0.99058399  1.00050992  1
  O  O399  1  0.87342103  0.50004923  0.49109718  1
  O  O400  1  0.88536410  0.49400579  0.99697731  1
  O  O401  1  0.86964306  0.98756954  0.48455810  1
  O  O402  1  0.86654746  0.99888488  0.99014326  1
  O  O403  1  0.13587977  -0.00368075  0.00078780  1
  O  O404  1  0.12778476  0.01452731  0.49087968  1
  O  O405  1  0.11291113  0.49184997  0.00683318  1
  O  O406  1  0.12185884  0.50576109  0.50935885  1
  O  O407  1  0.62670655  0.00027976  0.01762608  1
  O  O408  1  0.62071680  0.00617036  0.50659015  1
  O  O409  1  0.62801421  0.50157240  0.01093003  1
  O  O410  1  0.61492767  0.49419982  0.51713562  1
  O  O411  1  0.37010921  0.36748000  0.11271587  1
  O  O412  1  0.37375346  0.36081779  0.61721215  1
  O  O413  1  0.35767125  0.85910909  0.14176364  1
  O  O414  1  0.38256206  0.86223967  0.61408335  1
  O  O415  1  0.86969695  0.36721177  0.11906224  1
  O  O416  1  0.87325206  0.37443321  0.61016136  1
  O  O417  1  0.86183134  0.86541884  0.13081082  1
  O  O418  1  0.86758093  0.86851997  0.61641996  1
  O  O419  1  0.12512035  0.13671116  0.37581669  1
  O  O420  1  0.10609462  0.13437358  0.88527977  1
  O  O421  1  0.13311487  0.63147442  0.38038253  1
  O  O422  1  0.13184871  0.64550812  0.86710366  1
  O  O423  1  0.61925174  0.12751142  0.38809545  1
  O  O424  1  0.64357249  0.13496070  0.86579584  1
  O  O425  1  0.62460465  0.63364070  0.37545745  1
  O  O426  1  0.63686870  0.63206099  0.87372928  1
