# generated using pymatgen
data_V85Zn86O256
_symmetry_space_group_name_H-M   'P 1'
_cell_length_a   16.93833680
_cell_length_b   16.93776117
_cell_length_c   16.92618198
_cell_angle_alpha   89.96698401
_cell_angle_beta   90.04979690
_cell_angle_gamma   89.99908550
_symmetry_Int_Tables_number   1
_chemical_formula_structural   V85Zn86O256
_chemical_formula_sum   'V85 Zn86 O256'
_cell_volume   4856.07670841
_cell_formula_units_Z   1
loop_
 _symmetry_equiv_pos_site_id
 _symmetry_equiv_pos_as_xyz
  1  'x, y, z'
loop_
 _atom_site_type_symbol
 _atom_site_label
 _atom_site_symmetry_multiplicity
 _atom_site_fract_x
 _atom_site_fract_y
 _atom_site_fract_z
 _atom_site_occupancy
  V  V0  1  0.25598928  0.74596471  0.51577759  1
  V  V1  1  0.92404478  -0.05135862  0.82789743  1
  V  V2  1  0.87670202  0.74897986  0.12331210  1
  V  V3  1  0.25333705  0.12434750  0.35573081  1
  V  V4  1  0.63005284  0.62270624  -0.00369356  1
  V  V5  1  0.37385337  0.74523144  0.12197077  1
  V  V6  1  0.25022911  0.37729246  0.12683083  1
  V  V7  1  0.37137853  0.62728026  0.74110079  1
  V  V8  1  0.12112775  0.13512638  -0.00438072  1
  V  V9  1  0.12822993  0.11625818  0.50194018  1
  V  V10  1  0.24779583  0.48772393  0.74037734  1
  V  V11  1  0.89386439  0.62849352  0.75047322  1
  V  V12  1  0.49345050  0.49907350  0.48973556  1
  V  V13  1  0.62559398  0.24903513  0.87756112  1
  V  V14  1  0.50174973  0.87576734  0.87056383  1
  V  V15  1  0.12747267  0.50227816  0.12768523  1
  V  V16  1  0.87488612  0.37331862  0.00063736  1
  V  V17  1  0.75359605  0.00075783  0.25704927  1
  V  V18  1  0.87593854  0.25301611  0.62912345  1
  V  V19  1  0.37044231  0.24071646  0.12826943  1
  V  V20  1  0.87622017  0.13127951  0.75702389  1
  V  V21  1  0.74523653  0.23680818  0.49754977  1
  V  V22  1  0.50328255  0.12802793  0.61424124  1
  V  V23  1  0.11835845  0.48797649  0.62653313  1
  V  V24  1  0.24821956  0.62897530  0.87081382  1
  V  V25  1  0.74695074  0.51431236  0.75384381  1
  V  V26  1  0.13915449  0.74402373  0.37218234  1
  V  V27  1  0.10905780  0.75956424  0.86654382  1
  V  V28  1  0.75160158  0.38204617  0.13008354  1
  V  V29  1  0.36791481  0.87973214  0.51215835  1
  V  V30  1  -0.00466973  0.25455416  0.24511122  1
  V  V31  1  0.24471757  -0.00462049  0.73178554  1
  V  V32  1  0.12874329  0.88995826  0.24516470  1
  V  V33  1  0.49998149  0.74761696  0.24893761  1
  V  V34  1  0.50304743  -0.00101619  -0.00336129  1
  V  V35  1  0.25279963  0.50261773  0.26600813  1
  V  V36  1  0.01673319  0.25454716  0.75463829  1
  V  V37  1  0.62519638  0.74971674  0.37478951  1
  V  V38  1  0.37603965  0.12684597  0.74533463  1
  V  V39  1  0.00433698  0.12171714  0.62614589  1
  V  V40  1  0.62781936  0.00233107  0.61419934  1
  V  V41  1  0.87063146  0.49801384  0.37036963  1
  V  V42  1  0.89023546  0.74512905  0.61965819  1
  V  V43  1  0.36922017  0.00218364  0.87491713  1
  V  V44  1  0.36426914  0.37812483  0.50609681  1
  V  V45  1  0.87269371  0.37675676  0.50159239  1
  V  V46  1  0.74622504  -0.00124879  0.75384057  1
  V  V47  1  0.00700580  -0.00230892  0.00632382  1
  V  V48  1  0.62826648  0.74628889  0.87164346  1
  V  V49  1  0.62402779  0.62405890  0.49848323  1
  V  V50  1  0.62553768  0.12525231  0.00380829  1
  V  V51  1  0.75219013  0.12546289  0.87784334  1
  V  V52  1  0.62477085  0.37797690  0.25526048  1
  V  V53  1  0.12186519  0.62286153  0.50342122  1
  V  V54  1  0.00043405  0.62428479  0.12506009  1
  V  V55  1  -0.00174417  0.12629583  0.12567970  1
  V  V56  1  0.87651764  0.12539352  0.25712846  1
  V  V57  1  0.50029286  0.37336887  0.87475068  1
  V  V58  1  -0.00294749  0.87657345  0.38186723  1
  V  V59  1  0.25209872  0.24796240  0.52075356  1
  V  V60  1  0.87324068  0.62243932  0.25010068  1
  V  V61  1  0.75155746  0.74686545  -0.00448878  1
  V  V62  1  0.37455423  0.87273866  -0.00076266  1
  V  V63  1  0.49397995  0.87624376  0.37595026  1
  V  V64  1  0.75068027  0.87391478  0.12509816  1
  V  V65  1  0.74913476  0.37782901  0.62657078  1
  V  V66  1  0.62626131  0.00104795  0.12589502  1
  V  V67  1  0.37386850  0.50060986  0.87277061  1
  V  V68  1  0.75270498  0.24848803  0.01623001  1
  V  V69  1  0.50134668  0.49966565  0.00142048  1
  V  V70  1  0.49478486  0.75076839  0.74380308  1
  V  V71  1  0.00042100  0.37456707  0.37790032  1
  V  V72  1  0.01144222  0.37469943  0.87410238  1
  V  V73  1  0.62596019  0.37503609  0.75025682  1
  V  V74  1  0.37523125  0.37400919  0.00144236  1
  V  V75  1  0.75333239  0.75807736  0.50175192  1
  V  V76  1  0.37088834  0.62195888  0.26298992  1
  V  V77  1  0.49485722  0.24317907  0.25084520  1
  V  V78  1  0.00518010  0.74930434  0.25152427  1
  V  V79  1  0.24345085  0.25131878  -0.00812816  1
  V  V80  1  0.49686990  0.62727147  0.62104522  1
  V  V81  1  0.49751437  0.25059100  0.74349236  1
  V  V82  1  0.87921816  0.88196342  0.00024409  1
  V  V83  1  0.12385538  0.62645221  -0.00347583  1
  V  V84  1  0.74985208  0.62115138  0.37165453  1
  Zn  Zn85  1  0.62554977  0.87324860  0.25075551  1
  Zn  Zn86  1  0.61819929  0.23402967  0.38734817  1
  Zn  Zn87  1  0.76223528  0.87838376  0.62279229  1
  Zn  Zn88  1  0.25116708  0.87740072  0.13421275  1
  Zn  Zn89  1  0.48807690  0.11759231  0.12627724  1
  Zn  Zn90  1  0.62220377  0.50050910  0.62277118  1
  Zn  Zn91  1  0.49895776  0.00552219  0.49462094  1
  Zn  Zn92  1  0.12704416  0.25103702  0.37679765  1
  Zn  Zn93  1  0.13062208  0.86954559  0.74416093  1
  Zn  Zn94  1  0.24130077  0.13051532  0.87067055  1
  Zn  Zn95  1  0.50065398  0.62273185  0.12424520  1
  Zn  Zn96  1  0.86958496  -0.00150462  0.38677374  1
  Zn  Zn97  1  0.62776872  0.50277239  0.12967818  1
  Zn  Zn98  1  -0.00517128  0.50510793  0.50612431  1
  Zn  Zn99  1  0.62669515  0.87397706  0.74234360  1
  Zn  Zn100  1  -0.00084203  -0.00158404  0.50280781  1
  Zn  Zn101  1  0.24805681  0.75183174  -0.00281166  1
  Zn  Zn102  1  0.12541996  0.37657575  0.25346005  1
  Zn  Zn103  1  -0.00280235  0.50018797  -0.00164727  1
  Zn  Zn104  1  0.87165812  0.50509783  0.87692912  1
  Zn  Zn105  1  0.37037390  0.00208841  0.35912941  1
  Zn  Zn106  1  0.49164524  0.37316235  0.37415518  1
  Zn  Zn107  1  0.17590546  0.19461601  0.18169806  1
  Zn  Zn108  1  0.18727468  0.18088308  0.68918595  1
  Zn  Zn109  1  0.19236352  0.68824614  0.18592299  1
  Zn  Zn110  1  0.17936407  0.68223100  0.68655957  1
  Zn  Zn111  1  0.67062934  0.17148419  0.22383282  1
  Zn  Zn112  1  0.68684961  0.18753325  0.68494312  1
  Zn  Zn113  1  0.68677992  0.68533618  0.18570503  1
  Zn  Zn114  1  0.68455255  0.69126466  0.68099436  1
  Zn  Zn115  1  0.31167268  0.31374412  0.31801761  1
  Zn  Zn116  1  0.31550392  0.31123802  0.81031253  1
  Zn  Zn117  1  0.31334682  0.81355394  0.31179366  1
  Zn  Zn118  1  0.31086121  0.81408263  0.80968600  1
  Zn  Zn119  1  0.81071137  0.30912291  0.31276390  1
  Zn  Zn120  1  0.81341298  0.31416273  0.81773739  1
  Zn  Zn121  1  0.81513465  0.81036342  0.31211233  1
  Zn  Zn122  1  0.81113731  0.80440925  0.80389629  1
  Zn  Zn123  1  0.18601782  0.43421153  0.44282932  1
  Zn  Zn124  1  0.18918294  0.44227232  0.93805374  1
  Zn  Zn125  1  0.18790375  0.93759200  0.43344114  1
  Zn  Zn126  1  0.22278195  0.98408014  0.99574794  1
  Zn  Zn127  1  0.68483495  0.43614572  0.43666112  1
  Zn  Zn128  1  0.68974120  0.43642989  0.93703339  1
  Zn  Zn129  1  0.68366889  0.93594898  0.43773187  1
  Zn  Zn130  1  0.68976778  0.93526951  0.93525098  1
  Zn  Zn131  1  0.30014828  0.05195299  0.17859508  1
  Zn  Zn132  1  0.31669397  0.06388311  0.55915470  1
  Zn  Zn133  1  0.31183376  0.56399395  0.06287848  1
  Zn  Zn134  1  0.30889220  0.56233207  0.55992317  1
  Zn  Zn135  1  0.81725288  0.06383023  0.06952678  1
  Zn  Zn136  1  0.82161127  0.05978107  0.56729608  1
  Zn  Zn137  1  0.81171154  0.56032495  0.06094360  1
  Zn  Zn138  1  0.81251026  0.56566631  0.56300211  1
  Zn  Zn139  1  0.43634935  0.43602493  0.18924577  1
  Zn  Zn140  1  0.43493803  0.43827415  0.68100511  1
  Zn  Zn141  1  0.43924697  0.93308729  0.18626628  1
  Zn  Zn142  1  0.43892020  0.94396056  0.68639734  1
  Zn  Zn143  1  0.93560956  0.43736633  0.18637737  1
  Zn  Zn144  1  0.93681318  0.44000136  0.69308013  1
  Zn  Zn145  1  0.94160533  0.93882260  0.18944728  1
  Zn  Zn146  1  0.97731399  0.90782038  0.65347787  1
  Zn  Zn147  1  0.06469373  0.06527390  0.31585225  1
  Zn  Zn148  1  0.06687898  0.06596022  0.81359418  1
  Zn  Zn149  1  0.06392565  0.56246279  0.31730092  1
  Zn  Zn150  1  0.06513307  0.55543389  0.81287664  1
  Zn  Zn151  1  0.56095491  0.06256468  0.31363542  1
  Zn  Zn152  1  0.56504648  0.06408547  0.80865305  1
  Zn  Zn153  1  0.56090440  0.56175970  0.31163999  1
  Zn  Zn154  1  0.56235845  0.56320603  0.81200269  1
  Zn  Zn155  1  0.42658245  0.19331261  0.43369971  1
  Zn  Zn156  1  0.43576160  0.18618684  0.93871040  1
  Zn  Zn157  1  0.43300900  0.69246531  0.43945223  1
  Zn  Zn158  1  0.44005474  0.68531870  0.93316996  1
  Zn  Zn159  1  0.93562111  0.18838152  0.43923560  1
  Zn  Zn160  1  0.93754472  0.19249502  0.93881019  1
  Zn  Zn161  1  0.94107858  0.68821920  0.43784734  1
  Zn  Zn162  1  0.93546894  0.68625975  0.93437888  1
  Zn  Zn163  1  0.06003924  0.31493885  0.06537287  1
  Zn  Zn164  1  0.06337836  0.30814233  0.56159846  1
  Zn  Zn165  1  0.06474773  0.81245175  0.05981527  1
  Zn  Zn166  1  0.07475615  0.80596222  0.56192240  1
  Zn  Zn167  1  0.56382679  0.31136957  0.07028287  1
  Zn  Zn168  1  0.56164218  0.31571477  0.56122059  1
  Zn  Zn169  1  0.56264643  0.81096844  0.06131816  1
  Zn  Zn170  1  0.56235343  0.81577595  0.56092650  1
  O  O171  1  0.10910748  0.13101158  0.11183955  1
  O  O172  1  0.11586802  0.12903067  0.61646491  1
  O  O173  1  0.12263391  0.62190761  0.11626150  1
  O  O174  1  0.13022947  0.61151111  0.61267872  1
  O  O175  1  0.62627962  0.11097786  0.12350249  1
  O  O176  1  0.61487629  0.11628418  0.63085789  1
  O  O177  1  0.62289984  0.62206521  0.11241375  1
  O  O178  1  0.61537022  0.62336116  0.61565784  1
  O  O179  1  0.37639688  0.36835061  0.39636846  1
  O  O180  1  0.38157680  0.38145739  0.88086715  1
  O  O181  1  0.38449100  0.87452505  0.37916062  1
  O  O182  1  0.38660531  0.87942766  0.87607820  1
  O  O183  1  0.87662268  0.38278075  0.37956977  1
  O  O184  1  0.87880814  0.37855326  0.88795512  1
  O  O185  1  0.89377026  0.87246237  0.36806372  1
  O  O186  1  0.86737299  0.87802281  0.88163532  1
  O  O187  1  0.24792570  0.02023003  0.37777758  1
  O  O188  1  0.26519934  0.00716747  0.88616756  1
  O  O189  1  0.24540836  0.49600158  0.36484899  1
  O  O190  1  0.25209695  0.51058165  0.86417097  1
  O  O191  1  0.75087997  -0.01193498  0.36053227  1
  O  O192  1  0.74257961  0.00856497  0.86319760  1
  O  O193  1  0.75727362  0.50905556  0.37919617  1
  O  O194  1  0.75126947  0.49365296  0.85732195  1
  O  O195  1  0.23984439  0.49663009  0.12676539  1
  O  O196  1  0.24440217  0.49979922  0.63586525  1
  O  O197  1  0.25101129  0.98637787  0.10393073  1
  O  O198  1  0.24958723  1.00304120  0.63346186  1
  O  O199  1  0.74790046  0.48677245  0.12391305  1
  O  O200  1  0.74732719  0.49459813  0.63523185  1
  O  O201  1  0.74617237  0.98972602  0.12949082  1
  O  O202  1  0.74549956  1.00079980  0.63563446  1
  O  O203  1  -0.00226945  0.36982701  0.25729257  1
  O  O204  1  -0.00494352  0.36913819  0.76476309  1
  O  O205  1  0.01023658  0.86615876  0.25512244  1
  O  O206  1  -0.01741382  0.89280237  0.77135925  1
  O  O207  1  0.50714994  0.37037051  0.25286721  1
  O  O208  1  0.50288860  0.36924025  0.75321290  1
  O  O209  1  0.50144755  0.86093446  0.25594210  1
  O  O210  1  0.50004699  0.86762307  0.75326330  1
  O  O211  1  0.49905904  0.13909489  0.24259099  1
  O  O212  1  0.49504450  0.13286876  0.74363097  1
  O  O213  1  0.49409638  0.63349101  0.24743557  1
  O  O214  1  0.49264886  0.62982384  0.74217747  1
  O  O215  1  0.99755017  0.13208952  0.24489590  1
  O  O216  1  0.99455944  0.13478267  0.74854188  1
  O  O217  1  0.99524321  0.63100253  0.24611311  1
  O  O218  1  0.99176729  0.61901581  0.74844055  1
  O  O219  1  0.36778775  0.25551924  0.00729123  1
  O  O220  1  0.35769534  0.25562832  0.50266592  1
  O  O221  1  0.37868729  0.75321699  0.00472203  1
  O  O222  1  0.36228381  0.76005416  0.49981174  1
  O  O223  1  0.86363949  0.25917464  -0.00147982  1
  O  O224  1  0.86639567  0.25729995  0.50916466  1
  O  O225  1  0.87130217  0.75970967  0.00234965  1
  O  O226  1  0.86640461  0.73769120  0.51107195  1
  O  O227  1  0.13883761  0.24496168  0.49946068  1
  O  O228  1  0.13281981  0.24959972  1.00454871  1
  O  O229  1  0.13750122  0.74256684  0.49300279  1
  O  O230  1  0.12668398  0.74060440  0.98924533  1
  O  O231  1  0.63921103  0.25226253  0.50227709  1
  O  O232  1  0.63041843  0.24338954  0.99854834  1
  O  O233  1  0.63181178  0.74392898  0.49378125  1
  O  O234  1  0.62920196  0.74295133  0.99187844  1
  O  O235  1  0.48592662  0.24901730  0.12870817  1
  O  O236  1  0.50857312  0.24399605  0.63697305  1
  O  O237  1  0.49550696  0.74757357  0.13292349  1
  O  O238  1  0.50399922  0.73871907  0.63070661  1
  O  O239  1  0.99910239  0.24517309  0.13522656  1
  O  O240  1  0.99448288  0.24596249  0.63540092  1
  O  O241  1  0.99648119  0.74382978  0.13152804  1
  O  O242  1  0.98841045  0.73925547  0.61210535  1
  O  O243  1  -0.00227115  0.26307649  0.37112685  1
  O  O244  1  -0.00389405  0.26468502  0.86813314  1
  O  O245  1  0.00849657  0.75696913  0.36786611  1
  O  O246  1  0.01010906  0.74974911  0.87629838  1
  O  O247  1  0.50084776  0.25037567  0.36632983  1
  O  O248  1  0.50543395  0.25376849  0.86711948  1
  O  O249  1  0.50352667  0.75482877  0.36818118  1
  O  O250  1  0.50816345  0.75608682  0.86637395  1
  O  O251  1  0.24505477  0.13567364  0.50225254  1
  O  O252  1  0.23444366  0.13774577  0.99795461  1
  O  O253  1  0.24706798  0.63981690  0.50139771  1
  O  O254  1  0.24244803  0.62540886  0.98942351  1
  O  O255  1  0.75442331  0.13910571  0.51001087  1
  O  O256  1  0.74782437  0.13095787  0.99998753  1
  O  O257  1  0.74432405  0.63148991  0.48914457  1
  O  O258  1  0.74203288  0.63256970  1.00135737  1
  O  O259  1  0.25434153  0.37190942  0.00537267  1
  O  O260  1  0.25576175  0.36325127  0.50165490  1
  O  O261  1  0.27017987  0.86960306  -0.01107840  1
  O  O262  1  0.26057597  0.86650842  0.49467203  1
  O  O263  1  0.75479879  0.36851283  0.00711893  1
  O  O264  1  0.75330316  0.37588530  0.51375553  1
  O  O265  1  0.75677078  0.87025236  0.00831771  1
  O  O266  1  0.74980458  0.86148521  0.49849612  1
  O  O267  1  0.13307667  0.50222333  0.24279548  1
  O  O268  1  0.13709099  0.50298795  0.73780150  1
  O  O269  1  0.12115958  0.98834757  0.24843043  1
  O  O270  1  0.14441565  1.00327753  0.75768259  1
  O  O271  1  0.61838416  0.48398300  0.24873546  1
  O  O272  1  0.63269810  0.49477072  0.74892262  1
  O  O273  1  0.63337270  0.99281861  0.23987072  1
  O  O274  1  0.63269204  0.99874840  0.74059174  1
  O  O275  1  0.37337254  -0.00185101  0.24520278  1
  O  O276  1  0.36578943  0.00499572  0.75658980  1
  O  O277  1  0.36552132  0.51008104  0.24306807  1
  O  O278  1  0.36598203  0.50612356  0.75143386  1
  O  O279  1  0.86956181  0.00414563  0.25316142  1
  O  O280  1  0.86828985  0.00864828  0.75990718  1
  O  O281  1  0.87791993  0.50604657  0.26212013  1
  O  O282  1  0.86370245  0.51414500  0.74850819  1
  O  O283  1  0.11375254  0.37394455  0.37502895  1
  O  O284  1  0.11038277  0.37988375  0.88164671  1
  O  O285  1  0.11864242  0.86641392  0.36310973  1
  O  O286  1  0.12615208  0.85733851  0.86877383  1
  O  O287  1  0.62404333  0.36843565  0.36310060  1
  O  O288  1  0.61915809  0.36935196  0.87032673  1
  O  O289  1  0.61150090  0.86751011  0.37503944  1
  O  O290  1  0.61426045  0.86842440  0.87220186  1
  O  O291  1  0.36774795  0.13849759  0.12485257  1
  O  O292  1  0.38616488  0.11739767  0.63822063  1
  O  O293  1  0.37768059  0.63538161  0.12707853  1
  O  O294  1  0.37939130  0.62318690  0.63431661  1
  O  O295  1  0.88991941  0.12259619  0.13613580  1
  O  O296  1  0.87922540  0.13515172  0.64044514  1
  O  O297  1  0.87915801  0.62950140  0.12937502  1
  O  O298  1  0.86916898  0.63264915  0.63820594  1
  O  O299  1  0.25316906  0.25977548  0.11816911  1
  O  O300  1  0.25031344  0.24819647  0.61930766  1
  O  O301  1  0.25990773  0.75552485  0.11894718  1
  O  O302  1  0.24425986  0.75192894  0.61399585  1
  O  O303  1  0.74417224  0.25975438  0.11660363  1
  O  O304  1  0.75489691  0.25960139  0.62067294  1
  O  O305  1  0.75552888  0.75658595  0.11912080  1
  O  O306  1  0.75510857  0.75248725  0.61519271  1
  O  O307  1  0.24677815  0.23572837  0.37609473  1
  O  O308  1  0.25711843  0.25028691  0.88796013  1
  O  O309  1  0.24080779  0.75283249  0.38056381  1
  O  O310  1  0.24853367  0.73704359  0.87313033  1
  O  O311  1  0.75267889  0.25424776  0.39598877  1
  O  O312  1  0.74232983  0.24498371  0.88441344  1
  O  O313  1  0.74679744  0.74426508  0.38069496  1
  O  O314  1  0.73465020  0.75612166  0.87698994  1
  O  O315  1  -0.00092614  0.12172606  0.00676759  1
  O  O316  1  0.01037459  0.13218484  0.50930545  1
  O  O317  1  0.00662971  0.62382085  0.00600268  1
  O  O318  1  0.01563499  0.62110538  0.49345570  1
  O  O319  1  0.50637781  0.11797558  0.00401851  1
  O  O320  1  0.49021586  0.12919811  0.51098245  1
  O  O321  1  0.50733692  0.61542744  -0.00091719  1
  O  O322  1  0.49972316  0.62146637  0.50463624  1
  O  O323  1  0.49401334  0.38423883  0.49768103  1
  O  O324  1  0.49725365  0.38071012  0.99498329  1
  O  O325  1  0.48615724  0.87328862  0.49236048  1
  O  O326  1  0.49566551  0.87590606  0.98896032  1
  O  O327  1  0.99049764  0.37521736  0.49406949  1
  O  O328  1  0.99223683  0.37508875  0.99213245  1
  O  O329  1  1.00946988  0.87079781  0.48335938  1
  O  O330  1  0.99288712  0.88429097  1.00470725  1
  O  O331  1  0.49805489  0.50072818  0.38672278  1
  O  O332  1  0.49512118  0.49510864  0.88259671  1
  O  O333  1  0.49754936  0.99141555  0.37538469  1
  O  O334  1  0.49636349  0.99213803  0.87405278  1
  O  O335  1  0.99161109  0.48894305  0.37684057  1
  O  O336  1  0.99549548  0.48788287  0.87562112  1
  O  O337  1  1.00247895  0.98393286  0.37302491  1
  O  O338  1  0.98951813  1.00698998  0.88276829  1
  O  O339  1  -0.00212806  0.00895896  0.11615534  1
  O  O340  1  -0.01010403  0.02031195  0.62756770  1
  O  O341  1  0.01217513  0.50561380  0.12543134  1
  O  O342  1  0.01343650  0.49611909  0.62636360  1
  O  O343  1  0.51087359  -0.00324001  0.11675147  1
  O  O344  1  0.50945345  0.00971598  0.62129675  1
  O  O345  1  0.50056595  0.49957576  0.11101123  1
  O  O346  1  0.49995081  0.51339796  0.61758103  1
  O  O347  1  0.24939463  0.38417203  0.24337217  1
  O  O348  1  0.25454540  0.38984043  0.75488550  1
  O  O349  1  0.23346553  0.87110306  0.25261519  1
  O  O350  1  0.25187762  0.89131492  0.75018834  1
  O  O351  1  0.73663072  0.36680612  0.24330555  1
  O  O352  1  0.74768552  0.38012978  0.74086937  1
  O  O353  1  0.75143875  0.87691039  0.23761941  1
  O  O354  1  0.74906082  0.88550172  0.74778390  1
  O  O355  1  0.24134140  0.12714057  0.25188715  1
  O  O356  1  0.25894758  0.11582254  0.75319392  1
  O  O357  1  0.25933696  0.61555867  0.24537301  1
  O  O358  1  0.25667524  0.61864440  0.75290860  1
  O  O359  1  0.76669454  0.11005959  0.23476578  1
  O  O360  1  0.75799235  0.12065490  0.75449698  1
  O  O361  1  0.75607215  0.63189186  0.26277247  1
  O  O362  1  0.74260671  0.61458336  0.74783866  1
  O  O363  1  0.35716844  0.12414898  0.37232285  1
  O  O364  1  0.37961581  0.11611012  0.86351484  1
  O  O365  1  0.37660432  0.63013732  0.36204002  1
  O  O366  1  0.36936602  0.61924215  0.86359582  1
  O  O367  1  0.88317743  0.11951880  0.36198627  1
  O  O368  1  0.86865586  0.13335948  0.86494113  1
  O  O369  1  0.86917005  0.61811850  0.37171419  1
  O  O370  1  0.87574001  0.62508889  0.85710065  1
  O  O371  1  0.13073733  0.38667938  0.12694293  1
  O  O372  1  0.12510533  0.38890261  0.61906785  1
  O  O373  1  0.12432854  0.86575269  0.14262536  1
  O  O374  1  0.08718069  0.88046521  0.64085198  1
  O  O375  1  0.63311953  0.38068574  0.13227017  1
  O  O376  1  0.63222229  0.37861109  0.63242245  1
  O  O377  1  0.63414699  0.88213893  0.12248772  1
  O  O378  1  0.62864963  0.88643865  0.62410961  1
  O  O379  1  0.10960977  0.25581492  0.25392116  1
  O  O380  1  0.11592969  0.24724766  0.75082269  1
  O  O381  1  0.11653870  0.74430044  0.25621205  1
  O  O382  1  0.12602081  0.74756719  0.76166945  1
  O  O383  1  0.60824621  0.26758998  0.23680012  1
  O  O384  1  0.61927886  0.25583806  0.75658592  1
  O  O385  1  0.61689377  0.74989927  0.25474939  1
  O  O386  1  0.61375790  0.75000750  0.75502534  1
  O  O387  1  0.38313667  0.26226217  0.23959246  1
  O  O388  1  0.38570754  0.24068191  0.75395955  1
  O  O389  1  0.38038930  0.74424169  0.24146577  1
  O  O390  1  0.38645111  0.74221459  0.75448827  1
  O  O391  1  0.88483698  0.24175021  0.25532110  1
  O  O392  1  0.87839958  0.24590920  0.74702016  1
  O  O393  1  0.88763001  0.74408459  0.24494341  1
  O  O394  1  0.87420166  0.73513253  0.73873888  1
  O  O395  1  0.37734933  0.48898187  0.50381572  1
  O  O396  1  0.38152210  0.49651834  0.99347300  1
  O  O397  1  0.37499313  0.98769164  0.49319318  1
  O  O398  1  0.38972902  0.98816851  0.98894138  1
  O  O399  1  0.87514399  0.49569690  0.49162397  1
  O  O400  1  0.87674523  0.49239946  0.99629646  1
  O  O401  1  0.88458570  1.00102076  0.49872107  1
  O  O402  1  0.88105351  0.98813108  1.00394362  1
  O  O403  1  0.11002317  0.01286166  -0.00626956  1
  O  O404  1  0.12087169  0.01243925  0.49598772  1
  O  O405  1  0.12370183  0.51254065  0.00672834  1
  O  O406  1  0.12641112  0.50529554  0.51117804  1
  O  O407  1  0.62332549  0.00400252  0.00532085  1
  O  O408  1  0.62319264  0.00179304  0.50953862  1
  O  O409  1  0.61911520  0.50692193  -0.00254380  1
  O  O410  1  0.61433900  0.50639012  0.49989255  1
  O  O411  1  0.36707356  0.37126061  0.11730401  1
  O  O412  1  0.38306423  0.36997634  0.60636113  1
  O  O413  1  0.38039901  0.86043722  0.11405439  1
  O  O414  1  0.37864901  0.87964562  0.61057375  1
  O  O415  1  0.86706060  0.37931362  0.11373590  1
  O  O416  1  0.86812132  0.37299550  0.62351534  1
  O  O417  1  0.87047264  0.86873776  0.11906352  1
  O  O418  1  0.87894580  0.85165327  0.63020604  1
  O  O419  1  0.13367118  0.12953556  0.38284345  1
  O  O420  1  0.12159973  0.13155653  0.88890437  1
  O  O421  1  0.12508414  0.63385366  0.38385054  1
  O  O422  1  0.13083783  0.62714422  0.87976841  1
  O  O423  1  0.63990410  0.13761123  0.33351980  1
  O  O424  1  0.63040744  0.12988767  0.88300227  1
  O  O425  1  0.63173747  0.62930069  0.37729713  1
  O  O426  1  0.61865300  0.63381956  0.88520144  1
