# generated using pymatgen
data_V85Zn86O256
_symmetry_space_group_name_H-M   'P 1'
_cell_length_a   16.95256600
_cell_length_b   16.96748829
_cell_length_c   16.97276274
_cell_angle_alpha   90.05225231
_cell_angle_beta   89.95456731
_cell_angle_gamma   90.07386270
_symmetry_Int_Tables_number   1
_chemical_formula_structural   V85Zn86O256
_chemical_formula_sum   'V85 Zn86 O256'
_cell_volume   4882.07969507
_cell_formula_units_Z   1
loop_
 _symmetry_equiv_pos_site_id
 _symmetry_equiv_pos_as_xyz
  1  'x, y, z'
loop_
 _atom_site_type_symbol
 _atom_site_label
 _atom_site_symmetry_multiplicity
 _atom_site_fract_x
 _atom_site_fract_y
 _atom_site_fract_z
 _atom_site_occupancy
  V  V0  1  0.37461190  0.00261448  0.87378098  1
  V  V1  1  0.50382597  0.62929726  0.11734271  1
  V  V2  1  0.75117903  0.25388062  0.00393070  1
  V  V3  1  0.00196374  0.12480070  0.12947105  1
  V  V4  1  0.88343670  0.24784080  0.62238165  1
  V  V5  1  -0.00146942  0.37455603  0.86174625  1
  V  V6  1  0.86539260  0.49724278  0.87282387  1
  V  V7  1  0.49793523  0.24114433  0.74574703  1
  V  V8  1  0.74755938  0.75076902  0.49048501  1
  V  V9  1  0.74503477  0.61015172  0.37174119  1
  V  V10  1  0.50301466  -0.00131016  0.49306755  1
  V  V11  1  0.74848011  0.00320177  0.25699725  1
  V  V12  1  0.62616409  0.00186655  0.62409543  1
  V  V13  1  0.12585789  0.12460146  0.00033420  1
  V  V14  1  0.24882317  0.74613123  0.50166755  1
  V  V15  1  0.37332956  0.50398140  0.86388590  1
  V  V16  1  0.00120517  0.87551409  0.37508641  1
  V  V17  1  0.24584962  0.75340203  0.00384646  1
  V  V18  1  0.87877342  0.87552217  0.49934788  1
  V  V19  1  0.25797144  0.00307797  0.74808009  1
  V  V20  1  0.12871028  0.00007858  0.12079389  1
  V  V21  1  0.37504282  0.25001616  0.12499280  1
  V  V22  1  -0.01334762  0.88624630  0.87409113  1
  V  V23  1  0.42307040  0.69515672  0.58316623  1
  V  V24  1  0.14007188  0.12615191  0.49746743  1
  V  V25  1  0.00420318  0.00488051  0.50056623  1
  V  V26  1  0.62502948  0.87084738  0.74936085  1
  V  V27  1  0.00342675  0.25399626  0.25377246  1
  V  V28  1  -0.00226152  0.74755618  0.75031525  1
  V  V29  1  -0.00222934  0.38315370  0.37664814  1
  V  V30  1  0.75203567  0.24592126  0.49411545  1
  V  V31  1  0.24425406  0.62602420  0.35912952  1
  V  V32  1  0.11427143  0.25086833  0.86954089  1
  V  V33  1  0.50082847  0.87662064  0.87521598  1
  V  V34  1  0.62281603  0.12423761  0.00314992  1
  V  V35  1  0.25406553  0.87132313  0.62388657  1
  V  V36  1  0.35979085  0.49409350  0.36924658  1
  V  V37  1  0.74583583  0.37973756  0.14221911  1
  V  V38  1  0.75612625  -0.00192056  0.75145639  1
  V  V39  1  0.49673030  0.12599127  0.12669778  1
  V  V40  1  0.14065432  0.37421588  0.74348122  1
  V  V41  1  0.25268558  0.62206991  0.86424523  1
  V  V42  1  0.13657457  0.25033687  0.37599155  1
  V  V43  1  0.37798773  0.75241267  0.12491089  1
  V  V44  1  0.74194837  0.62429135  0.88760895  1
  V  V45  1  0.63034946  -0.00483445  0.12588281  1
  V  V46  1  0.12632497  0.87406721  0.75114165  1
  V  V47  1  0.13555315  0.49839366  0.62850297  1
  V  V48  1  0.62515956  0.50138209  0.12864375  1
  V  V49  1  0.62566444  0.24671175  0.36764029  1
  V  V50  1  0.12821009  0.00073289  0.62427925  1
  V  V51  1  0.25046787  0.38463819  0.12945968  1
  V  V52  1  0.12543723  0.87459017  0.24038749  1
  V  V53  1  0.51737072  0.39221254  0.36843402  1
  V  V54  1  0.49889740  -0.00051832  0.00111054  1
  V  V55  1  0.87595929  0.25154993  0.12899814  1
  V  V56  1  0.87260875  0.00882085  0.37801061  1
  V  V57  1  0.12274135  0.74950241  0.87532782  1
  V  V58  1  0.62081848  0.74939527  0.37383046  1
  V  V59  1  0.88316118  0.12607890  0.74806584  1
  V  V60  1  0.62492504  0.24555739  0.87696857  1
  V  V61  1  0.25111325  0.25418932  -0.00177348  1
  V  V62  1  0.37224155  0.12665393  0.26165581  1
  V  V63  1  0.38052169  0.87411685  0.49841823  1
  V  V64  1  0.63952715  0.37395232  0.75653760  1
  V  V65  1  0.12156896  0.62311912  0.49715053  1
  V  V66  1  0.61360758  0.87908763  0.26067789  1
  V  V67  1  0.37071151  -0.00272472  0.37618629  1
  V  V68  1  0.87214232  0.60578686  0.25477278  1
  V  V69  1  -0.01040328  0.62734499  0.11973761  1
  V  V70  1  0.87313924  0.74927075  0.62214477  1
  V  V71  1  0.85949967  0.61989781  0.74709105  1
  V  V72  1  0.25448655  0.12865857  0.86999585  1
  V  V73  1  -0.00997383  0.74902489  0.24935772  1
  V  V74  1  0.37097913  0.87704354  0.00522144  1
  V  V75  1  0.62985941  0.12692099  0.49421409  1
  V  V76  1  0.24878723  0.00046309  0.24974607  1
  V  V77  1  0.75738386  0.11619467  0.88023603  1
  V  V78  1  -0.00451760  0.61978070  0.62550455  1
  V  V79  1  0.87150271  0.38736190  0.49874568  1
  V  V80  1  0.00105470  0.49591184  -0.00211919  1
  V  V81  1  0.48504405  0.74504778  0.74950020  1
  V  V82  1  0.12516061  0.62492416  -0.00237664  1
  V  V83  1  0.49882778  0.37573599  0.87615942  1
  V  V84  1  0.62441061  0.74040513  0.87989481  1
  Zn  Zn85  1  -0.00682938  0.50439589  0.49610613  1
  Zn  Zn86  1  0.24761098  0.27626368  0.51734135  1
  Zn  Zn87  1  0.37110890  0.25110875  0.62438296  1
  Zn  Zn88  1  0.37810465  0.38043658  0.00082856  1
  Zn  Zn89  1  0.37613818  0.37840477  0.50365539  1
  Zn  Zn90  1  0.50505212  0.50719834  -0.00596613  1
  Zn  Zn91  1  0.75324717  0.36964512  0.62885752  1
  Zn  Zn92  1  0.75241833  0.87395990  0.62283644  1
  Zn  Zn93  1  0.12397508  0.75140264  0.37245013  1
  Zn  Zn94  1  0.87850095  0.37109822  -0.00022539  1
  Zn  Zn95  1  -0.05395793  -0.03346576  0.02653448  1
  Zn  Zn96  1  0.37177684  0.61906451  0.24063749  1
  Zn  Zn97  1  0.50398236  0.25355623  0.24988032  1
  Zn  Zn98  1  0.49543536  0.12163533  0.62973603  1
  Zn  Zn99  1  0.79733814  0.80934685  0.06356628  1
  Zn  Zn100  1  0.00732355  0.12820063  0.62986371  1
  Zn  Zn101  1  0.56023399  0.57102334  0.56005397  1
  Zn  Zn102  1  0.49626955  0.75420325  0.24848141  1
  Zn  Zn103  1  0.65021415  0.50163324  0.64818230  1
  Zn  Zn104  1  0.86731480  0.13062151  0.25834342  1
  Zn  Zn105  1  0.13118437  0.38356704  0.25510882  1
  Zn  Zn106  1  0.12982563  0.50374460  0.12760103  1
  Zn  Zn107  1  0.19042830  0.18937788  0.19026689  1
  Zn  Zn108  1  0.19294895  0.19006448  0.68509753  1
  Zn  Zn109  1  0.17867174  0.69418960  0.17902091  1
  Zn  Zn110  1  0.18751269  0.68582525  0.68287939  1
  Zn  Zn111  1  0.68916687  0.18371298  0.18832740  1
  Zn  Zn112  1  0.69169246  0.18769062  0.68607401  1
  Zn  Zn113  1  0.68806441  0.68294289  0.17843603  1
  Zn  Zn114  1  0.68134760  0.68916696  0.68250361  1
  Zn  Zn115  1  0.31454035  0.31271638  0.31059345  1
  Zn  Zn116  1  0.31622967  0.31388178  0.80911195  1
  Zn  Zn117  1  0.30937024  0.81513852  0.31263329  1
  Zn  Zn118  1  0.31041757  0.81435054  0.81871775  1
  Zn  Zn119  1  0.81424287  0.31274150  0.31806101  1
  Zn  Zn120  1  0.82041378  0.29946435  0.81796704  1
  Zn  Zn121  1  0.78510509  0.79317216  0.26743915  1
  Zn  Zn122  1  0.80962404  0.80632262  0.81513752  1
  Zn  Zn123  1  0.18525024  0.43860562  0.43842877  1
  Zn  Zn124  1  0.18914587  0.43772169  0.93433107  1
  Zn  Zn125  1  0.18981997  0.93649542  0.43420703  1
  Zn  Zn126  1  0.18463287  0.93707647  0.93742149  1
  Zn  Zn127  1  0.67775038  0.43523229  0.45339996  1
  Zn  Zn128  1  0.68482632  0.43768248  0.94273570  1
  Zn  Zn129  1  0.69038051  0.93526292  0.43463855  1
  Zn  Zn130  1  0.69499980  0.93242025  0.93786210  1
  Zn  Zn131  1  0.30934378  0.06430330  0.06410731  1
  Zn  Zn132  1  0.31982175  0.06951962  0.56660870  1
  Zn  Zn133  1  0.31996679  0.56455112  0.05057711  1
  Zn  Zn134  1  0.30825908  0.54889795  0.54830032  1
  Zn  Zn135  1  0.80891876  0.06446636  0.07178129  1
  Zn  Zn136  1  0.81215217  0.06302225  0.56424713  1
  Zn  Zn137  1  0.81269805  0.56011256  0.06131708  1
  Zn  Zn138  1  0.77982834  0.57016730  0.56759115  1
  Zn  Zn139  1  0.44094997  0.43936802  0.19071957  1
  Zn  Zn140  1  0.44941050  0.45013767  0.68808572  1
  Zn  Zn141  1  0.43937373  0.93785175  0.18685498  1
  Zn  Zn142  1  0.43887842  0.93528145  0.68247260  1
  Zn  Zn143  1  0.94111317  0.43433661  0.18325900  1
  Zn  Zn144  1  0.92932613  0.43967542  0.68389904  1
  Zn  Zn145  1  0.93243013  0.93640505  0.19367035  1
  Zn  Zn146  1  0.93888734  0.93806132  0.68742324  1
  Zn  Zn147  1  0.06522548  0.06643947  0.31449494  1
  Zn  Zn148  1  0.06822170  0.06214282  0.81161324  1
  Zn  Zn149  1  0.06341116  0.56011047  0.30710093  1
  Zn  Zn150  1  0.06041395  0.55883635  0.80975217  1
  Zn  Zn151  1  0.55841779  0.06762991  0.31526032  1
  Zn  Zn152  1  0.56822020  0.06072375  0.81354625  1
  Zn  Zn153  1  0.56371126  0.56668681  0.29861655  1
  Zn  Zn154  1  0.55657416  0.55659373  0.78866077  1
  Zn  Zn155  1  0.44207247  0.19661097  0.44760499  1
  Zn  Zn156  1  0.43628848  0.18872413  0.93705983  1
  Zn  Zn157  1  0.43549590  0.68035432  0.41788010  1
  Zn  Zn158  1  0.43764603  0.68833553  0.93560991  1
  Zn  Zn159  1  0.94473730  0.19087614  0.43999450  1
  Zn  Zn160  1  0.91963957  0.14847049  0.95888700  1
  Zn  Zn161  1  0.93212669  0.68603366  0.43216987  1
  Zn  Zn162  1  0.92889189  0.68759475  0.93309050  1
  Zn  Zn163  1  0.06512086  0.31232088  0.05995567  1
  Zn  Zn164  1  0.06272621  0.31405625  0.56114973  1
  Zn  Zn165  1  -0.03517164  0.80698147  0.05587136  1
  Zn  Zn166  1  0.06337515  0.81011496  0.56376824  1
  Zn  Zn167  1  0.56411651  0.31613421  0.06398452  1
  Zn  Zn168  1  0.54072092  0.37264196  0.57075009  1
  Zn  Zn169  1  0.59784709  0.82467338  0.05067683  1
  Zn  Zn170  1  0.56713319  0.81594353  0.55956750  1
  O  O171  1  0.12210510  0.11970741  0.12317521  1
  O  O172  1  0.12558623  0.11780355  0.61840803  1
  O  O173  1  0.11522989  0.62398672  0.11043995  1
  O  O174  1  0.11416814  0.62010791  0.61868456  1
  O  O175  1  0.61635743  0.11740417  0.12277093  1
  O  O176  1  0.62649290  0.11147820  0.62101580  1
  O  O177  1  0.61817730  0.61519905  0.12573645  1
  O  O178  1  0.66170709  0.61314030  0.60364990  1
  O  O179  1  0.37370782  0.39004261  0.36903356  1
  O  O180  1  0.38279536  0.38348046  0.87550014  1
  O  O181  1  0.37038387  0.88152174  0.38807585  1
  O  O182  1  0.38020055  0.88276164  0.88618801  1
  O  O183  1  0.88549791  0.36850509  0.38724342  1
  O  O184  1  0.88190896  0.37900553  0.87675177  1
  O  O185  1  0.89257262  0.88955418  0.38249466  1
  O  O186  1  0.88713409  0.87299642  0.86769089  1
  O  O187  1  0.26288873  -0.00046362  0.36855529  1
  O  O188  1  0.25285307  0.00815032  0.86773560  1
  O  O189  1  0.25334518  0.50981522  0.37072214  1
  O  O190  1  0.26338752  0.50757152  0.87983539  1
  O  O191  1  0.76275179  -0.00007267  0.37319983  1
  O  O192  1  0.74311911  0.00683927  0.86728387  1
  O  O193  1  0.73748063  0.51302029  0.38758495  1
  O  O194  1  0.76081987  0.50254925  0.88129270  1
  O  O195  1  0.25435329  0.48619606  0.11262588  1
  O  O196  1  0.23396453  0.51079818  0.62580778  1
  O  O197  1  0.23755528  1.00239020  0.13274510  1
  O  O198  1  0.24709277  0.99336681  0.63177466  1
  O  O199  1  0.74444642  0.48534437  0.11970222  1
  O  O200  1  0.76297829  0.48309951  0.63416935  1
  O  O201  1  0.73741898  1.00462811  0.13595330  1
  O  O202  1  0.74347835  0.99526165  0.63221829  1
  O  O203  1  -0.00008570  0.36521258  0.25657884  1
  O  O204  1  0.00040735  0.37763534  0.76053165  1
  O  O205  1  0.00366857  0.86857557  0.25743403  1
  O  O206  1  0.00737044  0.86899139  0.75460478  1
  O  O207  1  0.49415330  0.36875681  0.26608556  1
  O  O208  1  0.51757897  0.36083254  0.76601653  1
  O  O209  1  0.50871704  0.87814077  0.25661674  1
  O  O210  1  0.51064542  0.87446455  0.75368979  1
  O  O211  1  0.48896084  0.12501544  0.24118951  1
  O  O212  1  0.50663051  0.13727230  0.75651722  1
  O  O213  1  0.49446970  0.63400589  0.23383779  1
  O  O214  1  0.48949421  0.64749054  0.75687327  1
  O  O215  1  1.00461234  0.13713327  0.24253513  1
  O  O216  1  0.98701904  0.11639231  0.75015871  1
  O  O217  1  0.99030818  0.62918214  0.24396070  1
  O  O218  1  0.99259684  0.62940810  0.74235972  1
  O  O219  1  0.36674059  0.25124939  0.00664919  1
  O  O220  1  0.36564229  0.25454715  0.50255521  1
  O  O221  1  0.36827153  0.75828642  0.00566809  1
  O  O222  1  0.37127728  0.75183686  0.50112180  1
  O  O223  1  0.86600107  0.24499339  0.01023569  1
  O  O224  1  0.86909179  0.25006851  0.50474508  1
  O  O225  1  0.87893551  0.75171268  0.00650249  1
  O  O226  1  0.87199596  0.75842402  0.50096795  1
  O  O227  1  0.13033154  0.24354726  0.49497609  1
  O  O228  1  0.13477500  0.24665505  0.99022738  1
  O  O229  1  0.13052939  0.73951922  0.49825527  1
  O  O230  1  0.13210826  0.74093575  0.99068356  1
  O  O231  1  0.63581283  0.23945947  0.49061993  1
  O  O232  1  0.62976204  0.24375898  0.99418079  1
  O  O233  1  0.63694746  0.75770700  0.48883527  1
  O  O234  1  0.60462297  0.73754633  0.97726489  1
  O  O235  1  0.49364937  0.24492297  0.12698573  1
  O  O236  1  0.51641888  0.24293206  0.64633506  1
  O  O237  1  0.49070844  0.74737412  0.12283782  1
  O  O238  1  0.49689520  0.75449405  0.63424790  1
  O  O239  1  0.99852901  0.24958877  0.13544607  1
  O  O240  1  0.98839825  0.24412606  0.61640788  1
  O  O241  1  1.00479412  0.73599194  0.13562689  1
  O  O242  1  0.99459381  0.73946198  0.62916262  1
  O  O243  1  0.00920626  0.25799704  0.36903703  1
  O  O244  1  0.01275548  0.25823553  0.88088141  1
  O  O245  1  0.00251927  0.75955385  0.37021728  1
  O  O246  1  0.00558891  0.75634331  0.86652140  1
  O  O247  1  0.51428774  0.24423759  0.36943282  1
  O  O248  1  0.50863742  0.25160737  0.87203494  1
  O  O249  1  0.51556469  0.74224051  0.36940597  1
  O  O250  1  0.49993034  0.75915637  0.86345549  1
  O  O251  1  0.23953332  0.11695137  0.49893573  1
  O  O252  1  0.24519979  0.13613811  0.99329194  1
  O  O253  1  0.24004920  0.63043119  0.48927173  1
  O  O254  1  0.24139019  0.63182341  0.99161592  1
  O  O255  1  0.73926781  0.12865617  0.50460996  1
  O  O256  1  0.74122363  0.13440834  0.99788176  1
  O  O257  1  0.76628384  0.64138719  0.47770964  1
  O  O258  1  0.75065760  0.62211462  0.98716478  1
  O  O259  1  0.25217517  0.36441353  0.00316363  1
  O  O260  1  0.26069743  0.39054502  0.50259375  1
  O  O261  1  0.25910263  0.86636650  -0.00786828  1
  O  O262  1  0.25478845  0.86467078  0.50195569  1
  O  O263  1  0.75267080  0.36029530  0.00212443  1
  O  O264  1  0.75829168  0.36289642  0.50140541  1
  O  O265  1  0.70702491  0.86022070  0.01772891  1
  O  O266  1  0.76015386  0.86628639  0.49701344  1
  O  O267  1  0.12083539  0.49483348  0.23949170  1
  O  O268  1  0.11871346  0.48515523  0.74264548  1
  O  O269  1  0.13171165  0.99796589  0.24612716  1
  O  O270  1  0.13583370  0.99185872  0.74514158  1
  O  O271  1  0.62258201  0.49511460  0.23034306  1
  O  O272  1  0.64117886  0.47480688  0.77162334  1
  O  O273  1  0.62536675  0.99708520  0.24971120  1
  O  O274  1  0.63377623  0.99281941  0.74289604  1
  O  O275  1  0.36842086  0.00223370  0.25620086  1
  O  O276  1  0.36391286  -0.00945291  0.75542321  1
  O  O277  1  0.37858602  0.50445663  0.26379103  1
  O  O278  1  0.37573483  0.49557080  0.76461410  1
  O  O279  1  0.86621651  0.00103178  0.26146631  1
  O  O280  1  0.86160374  0.00507976  0.74321967  1
  O  O281  1  0.88165237  0.50797539  0.25063609  1
  O  O282  1  0.88218785  0.50960732  0.76172833  1
  O  O283  1  0.11610347  0.36744302  0.37603467  1
  O  O284  1  0.12002382  0.37116824  0.86398093  1
  O  O285  1  0.11454289  0.87791150  0.36580338  1
  O  O286  1  0.12282754  0.87082821  0.86202208  1
  O  O287  1  0.62033507  0.36764936  0.37394008  1
  O  O288  1  0.62272083  0.36134136  0.87562759  1
  O  O289  1  0.62220192  0.86986649  0.36730495  1
  O  O290  1  0.61974481  0.86558375  0.86425914  1
  O  O291  1  0.37894589  0.13047895  0.13104391  1
  O  O292  1  0.38344286  0.13282327  0.62785915  1
  O  O293  1  0.37793439  0.63582071  0.12373305  1
  O  O294  1  0.36297432  0.62702827  0.62268798  1
  O  O295  1  0.88567969  0.13329121  0.13512192  1
  O  O296  1  0.87871538  0.12915613  0.63177199  1
  O  O297  1  0.88340950  0.61643153  0.13602364  1
  O  O298  1  0.87774276  0.62950120  0.63022673  1
  O  O299  1  0.25562658  0.25577141  0.11558799  1
  O  O300  1  0.25551498  0.26069998  0.63091819  1
  O  O301  1  0.25519653  0.74764622  0.10940975  1
  O  O302  1  0.24545340  0.75427641  0.61018747  1
  O  O303  1  0.75300568  0.25798070  0.12222800  1
  O  O304  1  0.76052580  0.24840349  0.61321220  1
  O  O305  1  0.76081272  0.76086050  0.16010554  1
  O  O306  1  0.75669423  0.75382369  0.61052995  1
  O  O307  1  0.23792815  0.25603218  0.37471897  1
  O  O308  1  0.24591262  0.24502412  0.87852403  1
  O  O309  1  0.24670006  0.74411135  0.38436157  1
  O  O310  1  0.24455337  0.74361396  0.88353062  1
  O  O311  1  0.74507979  0.25094290  0.38646069  1
  O  O312  1  0.74354908  0.23990536  0.88642675  1
  O  O313  1  0.73974809  0.74686270  0.37275470  1
  O  O314  1  0.73608938  0.73847939  0.87069115  1
  O  O315  1  0.01433965  0.13882015  0.02062350  1
  O  O316  1  0.00979641  0.11298130  0.50216521  1
  O  O317  1  0.00391153  0.61835502  0.00374541  1
  O  O318  1  0.00394701  0.62658697  0.50543141  1
  O  O319  1  0.50343894  0.11977811  0.00561390  1
  O  O320  1  0.51419236  0.11690175  0.50347434  1
  O  O321  1  0.49306030  0.62579051  0.01292685  1
  O  O322  1  0.48497556  0.64178909  0.51518722  1
  O  O323  1  0.49104673  0.36297160  0.46370189  1
  O  O324  1  0.49955417  0.36966324  0.98534653  1
  O  O325  1  0.49206292  0.88413690  0.50359163  1
  O  O326  1  0.49668331  0.88270596  0.99351474  1
  O  O327  1  0.99206174  0.37725734  0.49243302  1
  O  O328  1  1.00104651  0.38176909  0.99069402  1
  O  O329  1  1.00247348  0.88483913  0.49465730  1
  O  O330  1  1.01017765  0.88122259  0.97791861  1
  O  O331  1  0.50455940  0.49419697  0.36891884  1
  O  O332  1  0.49334089  0.49238329  0.87088707  1
  O  O333  1  0.48942117  1.00370325  0.38700401  1
  O  O334  1  0.49542995  0.99680575  0.88013398  1
  O  O335  1  1.00314489  0.48672115  0.37651912  1
  O  O336  1  0.99280336  0.49332664  0.88235195  1
  O  O337  1  0.99944374  0.99549974  0.38270950  1
  O  O338  1  1.00156220  0.98521672  0.86379184  1
  O  O339  1  0.01032957  0.01111919  0.12793441  1
  O  O340  1  0.00991188  -0.00046688  0.61680124  1
  O  O341  1  -0.00026788  0.50480552  0.10987228  1
  O  O342  1  0.00232135  0.51221244  0.62340502  1
  O  O343  1  0.50385552  0.00868410  0.11903835  1
  O  O344  1  0.50935045  0.00039368  0.61521143  1
  O  O345  1  0.50631809  0.50834798  0.12279918  1
  O  O346  1  0.53391984  0.52485075  0.67052320  1
  O  O347  1  0.25065831  0.37110063  0.23190806  1
  O  O348  1  0.23823458  0.37859075  0.75437870  1
  O  O349  1  0.23902988  0.88842636  0.25511358  1
  O  O350  1  0.24321399  0.87971482  0.74652482  1
  O  O351  1  0.75548058  0.37374186  0.23968174  1
  O  O352  1  0.74118909  0.35553936  0.75696755  1
  O  O353  1  0.72992966  0.89461623  0.25724250  1
  O  O354  1  0.74039996  0.87940160  0.75026282  1
  O  O355  1  0.25869389  0.11192059  0.24587239  1
  O  O356  1  0.24182210  0.11390213  0.75959616  1
  O  O357  1  0.24306220  0.63719973  0.25748915  1
  O  O358  1  0.24155191  0.63180456  0.76580386  1
  O  O359  1  0.75065664  0.11055506  0.25060032  1
  O  O360  1  0.75535952  0.11511241  0.75797504  1
  O  O361  1  0.76342577  0.62007352  0.25935015  1
  O  O362  1  0.75862858  0.62903175  0.75527276  1
  O  O363  1  0.38081965  0.11789307  0.36448706  1
  O  O364  1  0.36157131  0.11979167  0.87918296  1
  O  O365  1  0.36033096  0.61927492  0.36275229  1
  O  O366  1  0.36724217  0.61431271  0.87756285  1
  O  O367  1  0.88822545  0.11237212  0.37535807  1
  O  O368  1  0.86078755  0.13923570  0.86122324  1
  O  O369  1  0.86668427  0.62139073  0.36158713  1
  O  O370  1  0.86530834  0.61650804  0.86611412  1
  O  O371  1  0.14241431  0.37479295  0.12065478  1
  O  O372  1  0.11817372  0.38230128  0.63724652  1
  O  O373  1  0.11719928  0.88739489  0.13914541  1
  O  O374  1  0.13079294  0.87832099  0.63464130  1
  O  O375  1  0.64020304  0.37602109  0.12586401  1
  O  O376  1  0.62910198  0.36498361  0.65148530  1
  O  O377  1  0.60896743  0.89198044  0.14347818  1
  O  O378  1  0.62786273  0.88516949  0.63164871  1
  O  O379  1  0.12020547  0.25477915  0.25801079  1
  O  O380  1  0.12587830  0.26402242  0.75658997  1
  O  O381  1  0.11459848  0.75989077  0.25101619  1
  O  O382  1  0.11944987  0.75702427  0.75273900  1
  O  O383  1  0.62853089  0.24332054  0.26368247  1
  O  O384  1  0.62491968  0.24778751  0.76627314  1
  O  O385  1  0.62191134  0.76759796  0.25532621  1
  O  O386  1  0.61413263  0.75753535  0.74957480  1
  O  O387  1  0.37330684  0.23971340  0.24297616  1
  O  O388  1  0.39516745  0.25749584  0.74948081  1
  O  O389  1  0.37125112  0.75778015  0.23342004  1
  O  O390  1  0.38632473  0.76641527  0.74777535  1
  O  O391  1  0.88462833  0.24883941  0.24795780  1
  O  O392  1  0.87147138  0.23742312  0.73622333  1
  O  O393  1  0.88887603  0.74047223  0.25877377  1
  O  O394  1  0.87864211  0.74078682  0.74339985  1
  O  O395  1  0.38138957  0.50652713  0.47246656  1
  O  O396  1  0.38478775  0.49671633  0.98552555  1
  O  O397  1  0.38084092  0.99415136  0.49297052  1
  O  O398  1  0.37655988  0.99484281  0.99579830  1
  O  O399  1  0.87290672  0.48821861  0.50437739  1
  O  O400  1  0.88398124  0.49747965  0.98992231  1
  O  O401  1  0.88460867  0.99670155  0.49736720  1
  O  O402  1  0.87683254  1.04237755  0.98624379  1
  O  O403  1  0.13163126  0.00897328  0.00927328  1
  O  O404  1  0.12139397  0.00434842  0.50282291  1
  O  O405  1  0.11811834  0.50734200  -0.00164372  1
  O  O406  1  0.11869563  0.51188828  0.50717669  1
  O  O407  1  0.62008656  0.00614263  0.01009843  1
  O  O408  1  0.62054907  0.00155626  0.50452710  1
  O  O409  1  0.61820025  0.48961317  0.01660234  1
  O  O410  1  0.60310802  0.46815307  0.53050219  1
  O  O411  1  0.36740694  0.36870138  0.12286622  1
  O  O412  1  0.42793588  0.37430264  0.61033048  1
  O  O413  1  0.37952550  0.87200107  0.11127600  1
  O  O414  1  0.36709637  0.87951837  0.60931844  1
  O  O415  1  0.86435416  0.36962162  0.12141523  1
  O  O416  1  0.87918915  0.36302077  0.61535582  1
  O  O417  1  0.89207899  0.88970074  0.10049203  1
  O  O418  1  0.87686251  0.86773661  0.61799277  1
  O  O419  1  0.12003959  0.13779807  0.38543603  1
  O  O420  1  0.13200782  0.13339828  0.87819372  1
  O  O421  1  0.12695024  0.62646889  0.38152514  1
  O  O422  1  0.12682929  0.62657748  0.88243851  1
  O  O423  1  0.62551494  0.13037745  0.38439604  1
  O  O424  1  0.63551589  0.12800364  0.88273926  1
  O  O425  1  0.63904152  0.63289710  0.36292768  1
  O  O426  1  0.63228882  0.62887080  0.85850027  1
