# generated using pymatgen
data_V85Zn86O256
_symmetry_space_group_name_H-M   'P 1'
_cell_length_a   16.94380303
_cell_length_b   16.92423452
_cell_length_c   16.93350615
_cell_angle_alpha   90.00594892
_cell_angle_beta   89.99255397
_cell_angle_gamma   90.05318845
_symmetry_Int_Tables_number   1
_chemical_formula_structural   V85Zn86O256
_chemical_formula_sum   'V85 Zn86 O256'
_cell_volume   4855.86523720
_cell_formula_units_Z   1
loop_
 _symmetry_equiv_pos_site_id
 _symmetry_equiv_pos_as_xyz
  1  'x, y, z'
loop_
 _atom_site_type_symbol
 _atom_site_label
 _atom_site_symmetry_multiplicity
 _atom_site_fract_x
 _atom_site_fract_y
 _atom_site_fract_z
 _atom_site_occupancy
  V  V0  1  0.49620294  0.24016141  0.75221299  1
  V  V1  1  -0.00244246  -0.00379721  -0.01672480  1
  V  V2  1  0.12605248  0.37550045  0.25147671  1
  V  V3  1  0.37597213  0.00769287  0.87125070  1
  V  V4  1  0.76126798  0.25395616  0.00214371  1
  V  V5  1  0.12585359  0.50145573  0.12645921  1
  V  V6  1  0.13575550  0.50184884  0.62589090  1
  V  V7  1  0.12227431  -0.00419417  0.61744621  1
  V  V8  1  0.37120830  0.61725542  0.74511843  1
  V  V9  1  0.75009348  0.74786793  0.00172934  1
  V  V10  1  0.37433291  0.87301042  0.00200282  1
  V  V11  1  0.49942130  0.50888703  0.50316096  1
  V  V12  1  0.88312641  0.87337133  -0.02062487  1
  V  V13  1  0.00011719  0.75234700  0.26397849  1
  V  V14  1  0.49203616  0.62531984  0.11962733  1
  V  V15  1  -0.00016822  0.62781585  0.12838671  1
  V  V16  1  0.37981666  0.37975306  0.00254841  1
  V  V17  1  0.51264280  0.87813756  0.37373813  1
  V  V18  1  0.49819877  0.11318107  0.62204266  1
  V  V19  1  0.62668583  0.24744214  0.87707676  1
  V  V20  1  0.24859614  0.61985107  0.87078509  1
  V  V21  1  0.12484369  0.87376014  0.25318612  1
  V  V22  1  0.88462069  0.88709729  0.51045210  1
  V  V23  1  0.75324408  0.49143306  0.74362209  1
  V  V24  1  0.00589303  0.49559299  0.50118609  1
  V  V25  1  0.87499414  0.48776457  0.88077377  1
  V  V26  1  0.86421923  0.62447078  0.25312076  1
  V  V27  1  0.75059800  0.62109938  0.87662747  1
  V  V28  1  0.37080052  0.63975723  0.25198874  1
  V  V29  1  0.86495480  0.73502753  0.60363310  1
  V  V30  1  0.13385466  0.37959512  0.75109874  1
  V  V31  1  0.70366557  0.81388611  0.56509098  1
  V  V32  1  -0.00322539  0.75404446  0.75103467  1
  V  V33  1  0.12556443  0.24763559  0.37717372  1
  V  V34  1  0.37532474  0.24437157  0.12709559  1
  V  V35  1  0.36971228  0.75474306  0.62183146  1
  V  V36  1  0.62315583  0.50067967  0.11710420  1
  V  V37  1  -0.00135668  0.12151903  0.12355799  1
  V  V38  1  0.62374393  0.74947874  0.87509400  1
  V  V39  1  0.37518323  0.24339031  0.62938365  1
  V  V40  1  0.25244337  0.00337443  0.74446056  1
  V  V41  1  0.75757637  0.38131980  0.12531187  1
  V  V42  1  0.37275858  0.88105169  0.49517796  1
  V  V43  1  -0.00264473  0.12119645  0.61743909  1
  V  V44  1  0.00700264  0.62200994  0.61837714  1
  V  V45  1  0.88076263  0.62235195  0.75511629  1
  V  V46  1  0.85565400  0.37422594  0.50360697  1
  V  V47  1  0.49990569  0.12027305  0.13240652  1
  V  V48  1  0.12716404  0.12259789  -0.00248967  1
  V  V49  1  0.12114319  0.75666151  0.87507993  1
  V  V50  1  0.63735582  0.00095599  0.62051411  1
  V  V51  1  0.87725222  0.75876526  0.12726261  1
  V  V52  1  -0.00296051  0.49264975  0.00253095  1
  V  V53  1  0.25252837  0.37533368  0.12598968  1
  V  V54  1  0.49715283  0.25008068  0.25214940  1
  V  V55  1  0.23484312  0.63082429  0.38076572  1
  V  V56  1  0.23492251  0.75378476  0.50094735  1
  V  V57  1  0.63366442  0.25733643  0.38064194  1
  V  V58  1  0.12548275  0.62510412  0.00016549  1
  V  V59  1  0.25144317  0.86972278  0.12596821  1
  V  V60  1  0.12910225  0.87503763  0.74528010  1
  V  V61  1  0.25087767  0.24951476  0.50303212  1
  V  V62  1  0.49656520  0.74931226  0.75036661  1
  V  V63  1  0.49590319  0.37691953  0.37772365  1
  V  V64  1  0.75219135  -0.00952741  0.77117429  1
  V  V65  1  0.25163988  0.74951677  0.00170386  1
  V  V66  1  -0.00074806  0.24981783  0.74586305  1
  V  V67  1  0.26225494  0.12577729  0.37137762  1
  V  V68  1  0.62695424  0.38256188  0.24862186  1
  V  V69  1  0.50132413  0.38042097  0.87706288  1
  V  V70  1  0.86078609  0.25270486  0.62433796  1
  V  V71  1  0.51877352  0.75169778  0.25300329  1
  V  V72  1  0.62825065  0.37136099  0.74232362  1
  V  V73  1  0.25096661  0.50417779  0.25293828  1
  V  V74  1  0.37496066  0.49909590  0.87422388  1
  V  V75  1  -0.00081979  0.24852225  0.24984377  1
  V  V76  1  0.12689816  0.24993255  0.87373412  1
  V  V77  1  0.00442807  0.88556228  0.38075408  1
  V  V78  1  0.87641689  0.00522322  0.37355695  1
  V  V79  1  0.62554302  0.12817493  0.00900586  1
  V  V80  1  0.73858746  0.00163506  0.24234818  1
  V  V81  1  0.86921316  0.50145944  0.37209581  1
  V  V82  1  0.50309119  -0.00246159  0.00501675  1
  V  V83  1  0.63005377  0.12841453  0.49959390  1
  V  V84  1  0.25764502  0.00288507  0.24803342  1
  Zn  Zn85  1  0.62578176  0.87172582  0.74711359  1
  Zn  Zn86  1  0.75882526  0.11736077  0.88321805  1
  Zn  Zn87  1  0.73412697  0.87736319  0.13047502  1
  Zn  Zn88  1  0.12374389  -0.00238149  0.12234953  1
  Zn  Zn89  1  0.87851485  0.25578374  0.12299846  1
  Zn  Zn90  1  0.87231128  0.12617368  0.24852935  1
  Zn  Zn91  1  0.61590008  0.61847051  -0.00504115  1
  Zn  Zn92  1  0.37425754  0.37569567  0.50382385  1
  Zn  Zn93  1  0.75208963  0.12999372  0.37550238  1
  Zn  Zn94  1  0.25424237  0.12642577  0.87122384  1
  Zn  Zn95  1  0.63234794  0.49962975  0.62027396  1
  Zn  Zn96  1  0.50837792  0.62548314  0.62209545  1
  Zn  Zn97  1  0.12122539  0.12001734  0.49700214  1
  Zn  Zn98  1  0.49835232  0.87553181  0.87402748  1
  Zn  Zn99  1  0.37175602  0.50410500  0.37734973  1
  Zn  Zn100  1  -0.00067819  0.37300524  0.37903377  1
  Zn  Zn101  1  0.66804847  0.69821911  0.39370835  1
  Zn  Zn102  1  0.38163909  0.00201540  0.37390021  1
  Zn  Zn103  1  0.25121241  0.24871465  0.00019733  1
  Zn  Zn104  1  0.25451921  0.37739297  0.62890775  1
  Zn  Zn105  1  0.87404608  0.11648401  0.75328928  1
  Zn  Zn106  1  0.00045426  0.37245731  0.87858971  1
  Zn  Zn107  1  0.18666355  0.18515573  0.18756965  1
  Zn  Zn108  1  0.18537200  0.18242482  0.68692534  1
  Zn  Zn109  1  0.18504632  0.69159530  0.19082475  1
  Zn  Zn110  1  0.18872091  0.68884171  0.68626897  1
  Zn  Zn111  1  0.68826275  0.19106336  0.19073452  1
  Zn  Zn112  1  0.68704256  0.17824670  0.69465366  1
  Zn  Zn113  1  0.68756998  0.68351864  0.18280477  1
  Zn  Zn114  1  0.68528362  0.67744291  0.69300594  1
  Zn  Zn115  1  0.31412222  0.31211302  0.31190945  1
  Zn  Zn116  1  0.31371736  0.30934556  0.81259714  1
  Zn  Zn117  1  0.31137825  0.81282652  0.31719965  1
  Zn  Zn118  1  0.31020520  0.81465544  0.81443697  1
  Zn  Zn119  1  0.81324968  0.31981802  0.31115706  1
  Zn  Zn120  1  0.81324159  0.30634084  0.81372833  1
  Zn  Zn121  1  0.81060356  0.82397660  0.31190823  1
  Zn  Zn122  1  0.81001037  0.80935122  0.80691119  1
  Zn  Zn123  1  0.18806518  0.43675898  0.43994000  1
  Zn  Zn124  1  0.18925134  0.43673590  0.93936367  1
  Zn  Zn125  1  0.18997707  0.93770108  0.43568736  1
  Zn  Zn126  1  0.18806757  0.93887035  0.93437565  1
  Zn  Zn127  1  0.66686939  0.48907334  0.41460407  1
  Zn  Zn128  1  0.68709965  0.43455551  0.93862184  1
  Zn  Zn129  1  0.68924786  0.94700262  0.43351215  1
  Zn  Zn130  1  0.67542103  0.92356390  0.96475508  1
  Zn  Zn131  1  0.31374281  0.05993006  0.06276923  1
  Zn  Zn132  1  0.30805334  0.06342444  0.56320428  1
  Zn  Zn133  1  0.31493126  0.56211975  0.06230990  1
  Zn  Zn134  1  0.31478630  0.56644381  0.55811416  1
  Zn  Zn135  1  0.81770730  0.06010331  0.05971377  1
  Zn  Zn136  1  0.81081055  0.06673341  0.56305074  1
  Zn  Zn137  1  0.81334042  0.56295072  0.06649648  1
  Zn  Zn138  1  0.81871290  0.55843748  0.56533310  1
  Zn  Zn139  1  0.43691589  0.44282069  0.19043592  1
  Zn  Zn140  1  0.43808309  0.43248786  0.68826838  1
  Zn  Zn141  1  0.43867751  0.93179611  0.18853142  1
  Zn  Zn142  1  0.43608820  0.93458901  0.68703132  1
  Zn  Zn143  1  0.93986022  0.43760287  0.19073948  1
  Zn  Zn144  1  0.94108929  0.43279380  0.68638964  1
  Zn  Zn145  1  0.93550232  0.94148806  0.18703067  1
  Zn  Zn146  1  0.93520059  0.93483365  0.69185923  1
  Zn  Zn147  1  0.06802194  0.06191239  0.30973851  1
  Zn  Zn148  1  0.06367254  0.06478728  0.80656746  1
  Zn  Zn149  1  0.05631248  0.56305942  0.31562048  1
  Zn  Zn150  1  0.06340303  0.56141582  0.81244151  1
  Zn  Zn151  1  0.56400500  0.06546631  0.31502678  1
  Zn  Zn152  1  0.56755258  0.05921899  0.81356938  1
  Zn  Zn153  1  0.55626482  0.56379077  0.30779364  1
  Zn  Zn154  1  0.56295017  0.56188378  0.80582850  1
  Zn  Zn155  1  0.44195665  0.18803165  0.44299257  1
  Zn  Zn156  1  0.43868916  0.18893153  0.94178275  1
  Zn  Zn157  1  0.43325520  0.69126138  0.43327216  1
  Zn  Zn158  1  0.43327840  0.68883708  0.93588349  1
  Zn  Zn159  1  0.93476253  0.19181483  0.44079612  1
  Zn  Zn160  1  0.93983827  0.18387087  0.93344879  1
  Zn  Zn161  1  0.84510315  0.69588308  0.43381576  1
  Zn  Zn162  1  0.94007139  0.68412161  0.93890611  1
  Zn  Zn163  1  0.06525713  0.31080299  0.06389686  1
  Zn  Zn164  1  0.06237052  0.31408354  0.56507298  1
  Zn  Zn165  1  0.06228807  0.81452867  0.06458186  1
  Zn  Zn166  1  0.05333846  0.81339888  0.56357019  1
  Zn  Zn167  1  0.56343109  0.31288780  0.06333975  1
  Zn  Zn168  1  0.55982424  0.31265621  0.56190170  1
  Zn  Zn169  1  0.56221460  0.80851662  0.06594924  1
  Zn  Zn170  1  0.54330510  0.80954018  0.55676688  1
  O  O171  1  0.11547483  0.12503493  0.11579549  1
  O  O172  1  0.11547625  0.11573970  0.62274365  1
  O  O173  1  0.12018616  0.62123750  0.12158884  1
  O  O174  1  0.11729602  0.61529766  0.63491418  1
  O  O175  1  0.61528562  0.13311522  0.11698270  1
  O  O176  1  0.61964559  0.11777146  0.61992985  1
  O  O177  1  0.61437574  0.61693677  0.12270116  1
  O  O178  1  0.62072413  0.61222617  0.63334227  1
  O  O179  1  0.38601458  0.37707611  0.37384831  1
  O  O180  1  0.38070634  0.37792542  0.88151801  1
  O  O181  1  0.38197534  0.87667221  0.38048619  1
  O  O182  1  0.37334441  0.88449940  0.88655635  1
  O  O183  1  0.87882375  0.38199366  0.38501099  1
  O  O184  1  0.87913558  0.38453197  0.87404275  1
  O  O185  1  0.88402508  0.89016965  0.38350189  1
  O  O186  1  0.88373663  0.86007120  0.88103799  1
  O  O187  1  0.25165561  0.01001059  0.36695132  1
  O  O188  1  0.25802537  0.00197667  0.86736059  1
  O  O189  1  0.24837929  0.51263852  0.37253083  1
  O  O190  1  0.25465984  0.51301558  0.87974285  1
  O  O191  1  0.75913178  0.00453659  0.36339524  1
  O  O192  1  0.73984836  -0.00616759  0.87262884  1
  O  O193  1  0.77049894  0.49403084  0.37181608  1
  O  O194  1  0.75829955  0.50245422  0.87262941  1
  O  O195  1  0.24502369  0.49680778  0.13196375  1
  O  O196  1  0.23969308  0.50047614  0.61846598  1
  O  O197  1  0.24831093  0.99003842  0.13000577  1
  O  O198  1  0.23919388  1.00242892  0.63358179  1
  O  O199  1  0.73924469  0.49289479  0.12092853  1
  O  O200  1  0.75465961  0.49845854  0.64003944  1
  O  O201  1  0.75751788  1.00245998  0.13885636  1
  O  O202  1  0.73897420  1.00268705  0.63173041  1
  O  O203  1  0.00873120  0.36629102  0.25256468  1
  O  O204  1  0.01146215  0.36335455  0.75077055  1
  O  O205  1  0.00723792  0.87343573  0.25391727  1
  O  O206  1  0.00697941  0.85988683  0.74757833  1
  O  O207  1  0.50431879  0.37013759  0.25567920  1
  O  O208  1  0.50711438  0.36317910  0.75815041  1
  O  O209  1  0.50048419  0.85939164  0.25563532  1
  O  O210  1  0.50196853  0.86100959  0.75131638  1
  O  O211  1  0.50431883  0.13343942  0.24021101  1
  O  O212  1  0.50930496  0.13506344  0.74338596  1
  O  O213  1  0.49091205  0.63639480  0.24555560  1
  O  O214  1  0.48789272  0.63465834  0.75128124  1
  O  O215  1  1.00240059  0.13191717  0.24075482  1
  O  O216  1  1.00089764  0.13752689  0.74089208  1
  O  O217  1  0.99565485  0.63603068  0.24691366  1
  O  O218  1  0.99674378  0.63241143  0.74687344  1
  O  O219  1  0.37299164  0.26037552  0.00853379  1
  O  O220  1  0.36754664  0.25024563  0.50899621  1
  O  O221  1  0.36398211  0.76055266  -0.00630757  1
  O  O222  1  0.36790384  0.75657592  0.50607927  1
  O  O223  1  0.86434474  0.24914552  0.00019975  1
  O  O224  1  0.87417603  0.26517776  0.50703220  1
  O  O225  1  0.87480052  0.75251912  0.00796058  1
  O  O226  1  0.89702388  0.77079616  0.50598191  1
  O  O227  1  0.13178565  0.24911963  0.49281006  1
  O  O228  1  0.12589687  0.24243436  0.99150758  1
  O  O229  1  0.13619569  0.75492589  0.50671089  1
  O  O230  1  0.12874709  0.74559987  0.99246682  1
  O  O231  1  0.61983297  0.24666871  0.49028869  1
  O  O232  1  0.63065882  0.24399077  0.99525478  1
  O  O233  1  0.64089646  0.75487803  0.51023712  1
  O  O234  1  0.63488677  0.73981411  0.99264555  1
  O  O235  1  0.49390140  0.24495929  0.13247174  1
  O  O236  1  0.49357321  0.24133127  0.63349294  1
  O  O237  1  0.50707492  0.73919681  0.13999207  1
  O  O238  1  0.48940288  0.74430341  0.63259336  1
  O  O239  1  1.00006177  0.24444527  0.13265194  1
  O  O240  1  0.99436888  0.24415766  0.63101922  1
  O  O241  1  0.99375071  0.74672016  0.13269749  1
  O  O242  1  0.99091950  0.73756880  0.63027913  1
  O  O243  1  0.00929560  0.24952637  0.36919501  1
  O  O244  1  0.01192821  0.25239464  0.86828879  1
  O  O245  1  -0.00660953  0.76811995  0.36361732  1
  O  O246  1  0.01089785  0.73926988  0.86492415  1
  O  O247  1  0.50464955  0.25740799  0.36841273  1
  O  O248  1  0.50471784  0.25534646  0.86973393  1
  O  O249  1  0.49917017  0.75749684  0.36199108  1
  O  O250  1  0.50533741  0.74896382  0.86810024  1
  O  O251  1  0.24633525  0.13520126  0.49110831  1
  O  O252  1  0.23741491  0.12485436  1.00071707  1
  O  O253  1  0.25102159  0.63655541  0.48800352  1
  O  O254  1  0.24541901  0.63041066  0.99519813  1
  O  O255  1  0.73598817  0.12691536  0.49712758  1
  O  O256  1  0.74172450  0.13176047  1.00288102  1
  O  O257  1  0.80091198  0.66631239  0.53741427  1
  O  O258  1  0.75403446  0.63501970  0.99478031  1
  O  O259  1  0.25813890  0.37235382  0.00897821  1
  O  O260  1  0.25249837  0.36087941  0.50188239  1
  O  O261  1  0.25324563  0.87146960  0.00696825  1
  O  O262  1  0.25612719  0.85976485  0.49079382  1
  O  O263  1  0.74362559  0.36526162  0.01158466  1
  O  O264  1  0.76048011  0.38414100  0.49924396  1
  O  O265  1  0.76909086  0.85698999  -0.00739745  1
  O  O266  1  0.75861282  0.87525794  0.50361108  1
  O  O267  1  0.12976456  0.49668628  0.24590255  1
  O  O268  1  0.12040414  0.48977213  0.74232158  1
  O  O269  1  0.13590468  0.98973181  0.24610884  1
  O  O270  1  0.13055526  0.99153882  0.74389150  1
  O  O271  1  0.61637714  0.48831471  0.23741017  1
  O  O272  1  0.63642809  0.48763653  0.75461740  1
  O  O273  1  0.63961300  1.00657001  0.25090996  1
  O  O274  1  0.63386318  0.99213724  0.74386743  1
  O  O275  1  0.36107843  -0.00726807  0.25042187  1
  O  O276  1  0.36532917  -0.00917746  0.75848056  1
  O  O277  1  0.36523647  0.51198295  0.25223530  1
  O  O278  1  0.37853912  0.50965305  0.75492881  1
  O  O279  1  0.87131565  0.00534922  0.25908503  1
  O  O280  1  0.85617489  -0.00484930  0.75013269  1
  O  O281  1  0.88646084  0.50845430  0.26393993  1
  O  O282  1  0.87324034  0.50136820  0.75925325  1
  O  O283  1  0.12698072  0.36251226  0.36964681  1
  O  O284  1  0.12457573  0.36860595  0.86985641  1
  O  O285  1  0.11681681  0.88163712  0.36618954  1
  O  O286  1  0.12809642  0.86184324  0.86874227  1
  O  O287  1  0.61446169  0.37663869  0.36660939  1
  O  O288  1  0.61720873  0.36475683  0.87180540  1
  O  O289  1  0.61173670  0.87596963  0.38270910  1
  O  O290  1  0.62090682  0.85804130  0.87886778  1
  O  O291  1  0.38219077  0.13755697  0.11925510  1
  O  O292  1  0.38419555  0.13253979  0.61966242  1
  O  O293  1  0.38514766  0.62263073  0.13307738  1
  O  O294  1  0.37456690  0.63481536  0.63230129  1
  O  O295  1  0.88913346  0.13023860  0.12344067  1
  O  O296  1  0.88091105  0.13229351  0.63010248  1
  O  O297  1  0.88189446  0.63389653  0.13254433  1
  O  O298  1  0.89002903  0.61915278  0.64375994  1
  O  O299  1  0.25956266  0.25504023  0.12748014  1
  O  O300  1  0.25673598  0.24505793  0.61872443  1
  O  O301  1  0.24527168  0.76178902  0.11921521  1
  O  O302  1  0.25557637  0.74549411  0.61030796  1
  O  O303  1  0.75272827  0.25906278  0.11879157  1
  O  O304  1  0.76201943  0.24375076  0.63550534  1
  O  O305  1  0.75702770  0.75219170  0.11750433  1
  O  O306  1  0.75334713  0.76280986  0.64192212  1
  O  O307  1  0.24589160  0.24414479  0.37934752  1
  O  O308  1  0.24000867  0.24652402  0.87712023  1
  O  O309  1  0.24836081  0.74027894  0.38562217  1
  O  O310  1  0.24207382  0.74027862  0.88028231  1
  O  O311  1  0.73614212  0.25299854  0.36757843  1
  O  O312  1  0.74065100  0.25116508  0.88538536  1
  O  O313  1  0.76269883  0.74939108  0.37805262  1
  O  O314  1  0.74301597  0.74081544  0.87813037  1
  O  O315  1  0.00924804  0.11920892  0.00442319  1
  O  O316  1  0.00133851  0.13008078  0.51341634  1
  O  O317  1  0.00782877  0.61640195  0.00754179  1
  O  O318  1  -0.00567153  0.60943148  0.51694397  1
  O  O319  1  0.50500341  0.12248325  0.01284802  1
  O  O320  1  0.51185522  0.12835547  0.51273886  1
  O  O321  1  0.49545991  0.63315575  0.01611950  1
  O  O322  1  0.49251154  0.61233968  0.49841580  1
  O  O323  1  0.49384361  0.37888202  0.49148894  1
  O  O324  1  0.49196159  0.36831468  0.99002785  1
  O  O325  1  0.48841645  0.87132617  0.48185409  1
  O  O326  1  0.48970174  0.88179937  0.99976545  1
  O  O327  1  0.99643319  0.38514794  0.50099183  1
  O  O328  1  1.00589058  0.38857885  1.00177539  1
  O  O329  1  0.99773757  0.88483068  0.49152459  1
  O  O330  1  0.99396726  0.88315075  1.00217338  1
  O  O331  1  0.49470181  0.49279127  0.38424067  1
  O  O332  1  0.49547899  0.48672078  0.86857960  1
  O  O333  1  0.49781276  0.98324697  0.36142681  1
  O  O334  1  0.49282555  0.99701287  0.88016125  1
  O  O335  1  0.99532816  0.49613228  0.38613041  1
  O  O336  1  0.99334500  0.49899124  0.88459448  1
  O  O337  1  0.99441576  0.99392147  0.36809272  1
  O  O338  1  1.00444713  1.00370366  0.88397276  1
  O  O339  1  0.00228844  0.00838741  0.11706351  1
  O  O340  1  0.00755172  0.01015252  0.63628244  1
  O  O341  1  0.00524089  0.50591005  0.12067950  1
  O  O342  1  0.01040084  0.50245888  0.62189422  1
  O  O343  1  0.49254279  0.00894002  0.11891319  1
  O  O344  1  0.50946383  0.00955093  0.63546242  1
  O  O345  1  0.50438577  0.51676333  0.12959504  1
  O  O346  1  0.49363268  0.50008672  0.61233748  1
  O  O347  1  0.24628122  0.38226538  0.24591327  1
  O  O348  1  0.23830891  0.37019076  0.74953548  1
  O  O349  1  0.24390911  0.87698166  0.24431641  1
  O  O350  1  0.23658183  0.88217441  0.75363253  1
  O  O351  1  0.73785017  0.37133579  0.23958159  1
  O  O352  1  0.74089391  0.38045233  0.75978079  1
  O  O353  1  0.75150944  0.89320665  0.24474014  1
  O  O354  1  0.74369186  0.88535559  0.75419160  1
  O  O355  1  0.24615217  0.11589686  0.25773949  1
  O  O356  1  0.24487008  0.10891741  0.75332956  1
  O  O357  1  0.25303142  0.62581397  0.25899956  1
  O  O358  1  0.25987771  0.63127565  0.75909092  1
  O  O359  1  0.75313516  0.11947454  0.25309343  1
  O  O360  1  0.74618447  0.10501939  0.75956689  1
  O  O361  1  0.76503770  0.62571540  0.24426368  1
  O  O362  1  0.76231353  0.61435249  0.75848917  1
  O  O363  1  0.36630166  0.12418139  0.37966797  1
  O  O364  1  0.37466904  0.11233339  0.88267731  1
  O  O365  1  0.36345166  0.62568760  0.36616245  1
  O  O366  1  0.36796581  0.61930560  0.86857805  1
  O  O367  1  0.87560841  0.11648821  0.37722674  1
  O  O368  1  0.87024890  0.13194150  0.86612960  1
  O  O369  1  0.88257984  0.61090658  0.36813868  1
  O  O370  1  0.87411198  0.61552688  0.86783455  1
  O  O371  1  0.13259233  0.38012393  0.13136247  1
  O  O372  1  0.12968848  0.38210200  0.63383682  1
  O  O373  1  0.13371270  0.87730269  0.13176843  1
  O  O374  1  0.11676982  0.88189473  0.63498134  1
  O  O375  1  0.62838516  0.38181571  0.13040952  1
  O  O376  1  0.61966452  0.37524184  0.63990868  1
  O  O377  1  0.63826715  0.88789030  0.07326420  1
  O  O378  1  0.63046666  0.87483946  0.61427875  1
  O  O379  1  0.11727366  0.25301619  0.25639411  1
  O  O380  1  0.12055202  0.25428070  0.75608761  1
  O  O381  1  0.11532442  0.76461242  0.24656487  1
  O  O382  1  0.11968710  0.75602199  0.75446098  1
  O  O383  1  0.61330475  0.26137693  0.25470110  1
  O  O384  1  0.62074274  0.25343578  0.75925485  1
  O  O385  1  0.61866946  0.74107757  0.25757031  1
  O  O386  1  0.61529753  0.74968661  0.75748450  1
  O  O387  1  0.38819001  0.25502428  0.24194110  1
  O  O388  1  0.38456011  0.24803888  0.74476937  1
  O  O389  1  0.37646410  0.74201808  0.24984653  1
  O  O390  1  0.37792406  0.74632448  0.74375642  1
  O  O391  1  0.88916003  0.24966530  0.25183862  1
  O  O392  1  0.88511044  0.25474015  0.74049307  1
  O  O393  1  0.88194417  0.74622299  0.24394662  1
  O  O394  1  0.88053949  0.73908131  0.74300318  1
  O  O395  1  0.38268365  0.49543305  0.49747366  1
  O  O396  1  0.37282759  0.48724531  0.99384017  1
  O  O397  1  0.36466403  0.98483783  0.49909004  1
  O  O398  1  0.38424262  0.99535702  0.99359258  1
  O  O399  1  0.88162474  0.49103344  0.49343145  1
  O  O400  1  0.88519778  0.50705353  0.99298517  1
  O  O401  1  0.86883481  0.99441474  0.49345634  1
  O  O402  1  0.88346048  0.98494871  0.99917613  1
  O  O403  1  0.11876713  0.00657946  -0.00054790  1
  O  O404  1  0.13105324  -0.00034746  0.51348554  1
  O  O405  1  0.12005652  0.50594782  0.00656893  1
  O  O406  1  0.11739647  0.49483489  0.51033665  1
  O  O407  1  0.60746855  0.01739001  -0.01195046  1
  O  O408  1  0.62722898  0.01010959  0.50861552  1
  O  O409  1  0.62267070  0.50014368  0.01076949  1
  O  O410  1  0.60330089  0.48561349  0.50745303  1
  O  O411  1  0.37432905  0.36934080  0.11972671  1
  O  O412  1  0.37246393  0.35886736  0.62702155  1
  O  O413  1  0.36640429  0.87890382  0.11183152  1
  O  O414  1  0.38119165  0.86238539  0.61451072  1
  O  O415  1  0.86217111  0.37714047  0.13127566  1
  O  O416  1  0.87602156  0.36925679  0.61270983  1
  O  O417  1  0.87608592  0.86335696  0.12103849  1
  O  O418  1  0.88071318  0.86482586  0.61549843  1
  O  O419  1  0.13336665  0.13510113  0.37565894  1
  O  O420  1  0.12604724  0.13294502  0.88120494  1
  O  O421  1  0.13636893  0.62666388  0.36991882  1
  O  O422  1  0.13242535  0.63089605  0.87868619  1
  O  O423  1  0.62253807  0.13873188  0.38328802  1
  O  O424  1  0.62374071  0.13792506  0.88432721  1
  O  O425  1  0.63161289  0.59657379  0.38219769  1
  O  O426  1  0.62860582  0.63095642  0.87521770  1
