# generated using pymatgen
data_V85Zn86O256
_symmetry_space_group_name_H-M   'P 1'
_cell_length_a   16.94548009
_cell_length_b   16.94086053
_cell_length_c   16.92424448
_cell_angle_alpha   89.97677981
_cell_angle_beta   89.92555048
_cell_angle_gamma   90.05320538
_symmetry_Int_Tables_number   1
_chemical_formula_structural   V85Zn86O256
_chemical_formula_sum   'V85 Zn86 O256'
_cell_volume   4858.45343886
_cell_formula_units_Z   1
loop_
 _symmetry_equiv_pos_site_id
 _symmetry_equiv_pos_as_xyz
  1  'x, y, z'
loop_
 _atom_site_type_symbol
 _atom_site_label
 _atom_site_symmetry_multiplicity
 _atom_site_fract_x
 _atom_site_fract_y
 _atom_site_fract_z
 _atom_site_occupancy
  V  V0  1  0.81512046  0.45574705  0.81546141  1
  V  V1  1  0.12030870  0.87491753  0.74732336  1
  V  V2  1  0.37718287  0.62014969  0.76268190  1
  V  V3  1  0.49343295  0.75670180  0.26289074  1
  V  V4  1  0.75232801  0.26008669  0.50183431  1
  V  V5  1  0.24455772  0.12363401  0.37191006  1
  V  V6  1  0.12938274  0.37508964  0.74888450  1
  V  V7  1  0.62850234  0.24884101  0.87394224  1
  V  V8  1  0.25634008  0.50052435  0.76217683  1
  V  V9  1  0.49849687  -0.00023426  0.00013977  1
  V  V10  1  0.87018334  0.61901144  0.25581570  1
  V  V11  1  0.37510731  -0.00717262  0.37075357  1
  V  V12  1  0.00465360  0.50549405  -0.00260339  1
  V  V13  1  0.25133122  0.88635869  0.12870827  1
  V  V14  1  0.12109984  0.88723464  0.24336095  1
  V  V15  1  0.50527773  0.75400328  0.74870249  1
  V  V16  1  0.37390491  0.38340039  -0.00516804  1
  V  V17  1  0.37051415  0.62936975  0.24744828  1
  V  V18  1  0.24111459  0.73881037  0.00309635  1
  V  V19  1  0.12452442  0.37388987  0.25511967  1
  V  V20  1  0.00142527  0.12036370  0.62335404  1
  V  V21  1  0.25125701  -0.00858723  0.74060976  1
  V  V22  1  0.74219393  0.37532472  0.13444063  1
  V  V23  1  0.49820764  0.63220580  0.12821257  1
  V  V24  1  0.00322898  0.24572298  0.75066425  1
  V  V25  1  0.50564222  0.25448040  0.24748594  1
  V  V26  1  0.75224437  0.12526015  0.37590326  1
  V  V27  1  0.37286996  0.86477207  0.00413431  1
  V  V28  1  0.50066226  0.12510390  0.62398785  1
  V  V29  1  0.24729833  0.50237909  0.25167053  1
  V  V30  1  0.62456782  0.12701696  0.49879581  1
  V  V31  1  0.63336350  0.12266309  -0.00548242  1
  V  V32  1  0.87688443  0.25497501  0.62177762  1
  V  V33  1  0.37535549  0.25051931  0.12414030  1
  V  V34  1  0.24406680  0.62571900  0.38536732  1
  V  V35  1  0.75008547  0.87547396  0.12923034  1
  V  V36  1  0.75363490  0.62492399  0.87534515  1
  V  V37  1  0.87829422  0.87560368  -0.00709076  1
  V  V38  1  0.00746284  0.62860452  0.12803901  1
  V  V39  1  0.74984831  0.74993639  0.00154752  1
  V  V40  1  0.87611173  0.12277235  0.24545880  1
  V  V41  1  0.23811244  0.75920689  0.50812473  1
  V  V42  1  0.24884572  0.37519515  0.12591518  1
  V  V43  1  0.87271877  0.38018392  0.00338313  1
  V  V44  1  0.74831372  0.00231604  0.75516630  1
  V  V45  1  0.01567684  0.12128820  0.11864070  1
  V  V46  1  0.36630415  0.75517933  0.62500806  1
  V  V47  1  0.24392039  0.11994020  0.87718678  1
  V  V48  1  0.63978712  0.62724444  0.49471904  1
  V  V49  1  -0.00496828  0.37071050  0.37922796  1
  V  V50  1  0.50123740  0.38285747  0.87351451  1
  V  V51  1  -0.00061244  0.37968184  0.87514065  1
  V  V52  1  0.87262255  0.01123243  0.87975794  1
  V  V53  1  0.49935285  0.50329828  0.49859733  1
  V  V54  1  0.50061348  -0.00915302  0.49415478  1
  V  V55  1  0.12231697  0.74830384  0.36768532  1
  V  V56  1  0.00676409  0.24648320  0.25312327  1
  V  V57  1  0.50545786  0.25566046  0.75013620  1
  V  V58  1  0.37538347  0.37490296  0.49842366  1
  V  V59  1  0.01443618  -0.00331122  -0.00252325  1
  V  V60  1  0.62490652  -0.00413475  0.63089320  1
  V  V61  1  0.62317200  -0.00001082  0.12774162  1
  V  V62  1  0.87809227  0.74878295  0.13181039  1
  V  V63  1  0.24291295  0.25006445  0.49470796  1
  V  V64  1  0.87034526  0.62614922  0.74924861  1
  V  V65  1  0.37293891  0.12202335  0.24991705  1
  V  V66  1  0.00424015  0.62848211  0.62002372  1
  V  V67  1  0.12652572  0.24753326  0.87658023  1
  V  V68  1  0.37446381  -0.00216826  0.87602839  1
  V  V69  1  0.63112889  0.49551243  0.63406124  1
  V  V70  1  0.24680961  0.24532221  0.00006092  1
  V  V71  1  0.37590287  0.24995433  0.62323432  1
  V  V72  1  -0.00219711  0.49849976  0.49919349  1
  V  V73  1  0.37432727  0.12473454  0.75050816  1
  V  V74  1  -0.00338496  0.75561969  0.76000581  1
  V  V75  1  0.87169019  0.74941494  0.61716004  1
  V  V76  1  0.87158493  0.87649697  0.49876712  1
  V  V77  1  0.63896072  0.75455649  0.37883402  1
  V  V78  1  0.62525671  0.62424084  0.00348557  1
  V  V79  1  0.12938414  0.50426605  0.62131934  1
  V  V80  1  0.50717637  0.37714335  0.36985269  1
  V  V81  1  -0.00085217  0.87227312  0.37119919  1
  V  V82  1  0.50672909  0.87499113  0.87292260  1
  V  V83  1  0.74652893  0.87079818  0.62723201  1
  V  V84  1  0.49835099  0.62748007  0.62131156  1
  Zn  Zn85  1  0.75326335  0.24780736  -0.00109404  1
  Zn  Zn86  1  0.12601849  0.74290997  0.88009697  1
  Zn  Zn87  1  0.73821927  0.50097362  0.26440922  1
  Zn  Zn88  1  0.87595623  0.00001852  0.37499213  1
  Zn  Zn89  1  0.00172387  0.00016617  0.49810094  1
  Zn  Zn90  1  0.37259033  0.50234210  0.37567290  1
  Zn  Zn91  1  0.62833965  0.75320525  0.87042140  1
  Zn  Zn92  1  0.49965570  0.12597282  0.12335439  1
  Zn  Zn93  1  0.12261192  0.12449695  0.49470361  1
  Zn  Zn94  1  0.87647202  0.24941429  0.12152189  1
  Zn  Zn95  1  0.37195494  0.87428104  0.49885683  1
  Zn  Zn96  1  0.75107417  0.37725511  0.63702540  1
  Zn  Zn97  1  0.74819602  0.00074919  0.25264489  1
  Zn  Zn98  1  0.13159872  -0.00195041  0.61702733  1
  Zn  Zn99  1  0.25229096  0.37631613  0.62381595  1
  Zn  Zn100  1  0.61985029  0.87976769  0.26008470  1
  Zn  Zn101  1  0.61870530  0.49694716  0.13421634  1
  Zn  Zn102  1  0.12768063  0.50475164  0.12166637  1
  Zn  Zn103  1  0.49496979  0.50553551  -0.00082380  1
  Zn  Zn104  1  0.86945760  0.49826883  0.38339935  1
  Zn  Zn105  1  0.62880085  0.25391053  0.36824992  1
  Zn  Zn106  1  0.87324468  0.12320328  0.75071540  1
  Zn  Zn107  1  0.18890399  0.18677684  0.18993571  1
  Zn  Zn108  1  0.18931986  0.18454665  0.68440575  1
  Zn  Zn109  1  0.19000738  0.69672027  0.18635302  1
  Zn  Zn110  1  0.17468725  0.67170020  0.72111201  1
  Zn  Zn111  1  0.68918568  0.18841357  0.18316967  1
  Zn  Zn112  1  0.68883034  0.18557142  0.68770371  1
  Zn  Zn113  1  0.68531376  0.68767322  0.19241772  1
  Zn  Zn114  1  0.68707388  0.68500738  0.68490255  1
  Zn  Zn115  1  0.31627693  0.31169550  0.31362151  1
  Zn  Zn116  1  0.31517350  0.31195858  0.81309221  1
  Zn  Zn117  1  0.30648022  0.81330967  0.31231711  1
  Zn  Zn118  1  0.31219863  0.81020992  0.81518211  1
  Zn  Zn119  1  0.81816787  0.30885823  0.31141496  1
  Zn  Zn120  1  0.81563890  0.29348247  0.81600678  1
  Zn  Zn121  1  0.81389129  0.81029298  0.30985429  1
  Zn  Zn122  1  0.81086084  0.81555296  0.81033829  1
  Zn  Zn123  1  0.18328303  0.43703407  0.43703431  1
  Zn  Zn124  1  0.18544445  0.43745762  0.93865728  1
  Zn  Zn125  1  0.18655983  0.93919379  0.43460473  1
  Zn  Zn126  1  0.18897326  0.92458599  0.92931410  1
  Zn  Zn127  1  0.68764587  0.44097751  0.43827780  1
  Zn  Zn128  1  0.67974667  0.43441260  0.94715193  1
  Zn  Zn129  1  0.68979700  0.93779780  0.44140817  1
  Zn  Zn130  1  0.68919097  0.93752563  0.94007454  1
  Zn  Zn131  1  0.31162482  0.06110366  0.06241574  1
  Zn  Zn132  1  0.31451663  0.06397036  0.55708271  1
  Zn  Zn133  1  0.31401635  0.56326991  0.06666723  1
  Zn  Zn134  1  0.31185567  0.56576788  0.56668519  1
  Zn  Zn135  1  0.81425956  0.06117835  0.06548139  1
  Zn  Zn136  1  0.81431159  0.06324253  0.56331606  1
  Zn  Zn137  1  0.81473447  0.55823534  0.06656432  1
  Zn  Zn138  1  0.81322621  0.55933566  0.56220055  1
  Zn  Zn139  1  0.43605526  0.44239485  0.18655614  1
  Zn  Zn140  1  0.44054038  0.43822068  0.68590179  1
  Zn  Zn141  1  0.43561973  0.93597977  0.18721781  1
  Zn  Zn142  1  0.43769640  0.93551563  0.68666714  1
  Zn  Zn143  1  0.93754535  0.43940031  0.18558454  1
  Zn  Zn144  1  0.94484723  0.43424702  0.68189393  1
  Zn  Zn145  1  0.93997608  0.93980295  0.18451944  1
  Zn  Zn146  1  0.93529073  0.93699222  0.68960976  1
  Zn  Zn147  1  0.06210324  0.05885539  0.31274510  1
  Zn  Zn148  1  0.06240939  0.05797146  0.81380937  1
  Zn  Zn149  1  0.05997710  0.56315963  0.31025749  1
  Zn  Zn150  1  0.06000538  0.56413401  0.81313151  1
  Zn  Zn151  1  0.55995561  0.06653514  0.31211333  1
  Zn  Zn152  1  0.56248552  0.06404835  0.81158341  1
  Zn  Zn153  1  0.56406775  0.56601062  0.31321862  1
  Zn  Zn154  1  0.56365354  0.56707882  0.81430317  1
  Zn  Zn155  1  0.43664162  0.18670285  0.43340580  1
  Zn  Zn156  1  0.43823954  0.18803628  0.93743503  1
  Zn  Zn157  1  0.43121803  0.68933122  0.43643129  1
  Zn  Zn158  1  0.43796997  0.69134269  0.93909742  1
  Zn  Zn159  1  0.93663088  0.18902840  0.43765453  1
  Zn  Zn160  1  0.94127333  0.18782730  0.94193530  1
  Zn  Zn161  1  0.94134785  0.68935387  0.43846275  1
  Zn  Zn162  1  0.93479435  0.68483195  0.94140359  1
  Zn  Zn163  1  0.06283581  0.31274460  0.06459482  1
  Zn  Zn164  1  0.06280252  0.31249639  0.56289030  1
  Zn  Zn165  1  0.06429066  0.81266512  0.06323226  1
  Zn  Zn166  1  0.06212136  0.81572214  0.56385064  1
  Zn  Zn167  1  0.56182924  0.31181232  0.05847751  1
  Zn  Zn168  1  0.56490193  0.31545252  0.56159651  1
  Zn  Zn169  1  0.56182017  0.81035995  0.06595342  1
  Zn  Zn170  1  0.56350107  0.81100537  0.56048736  1
  O  O171  1  0.11409896  0.12394301  0.12807203  1
  O  O172  1  0.11569141  0.12172038  0.62294687  1
  O  O173  1  0.11052569  0.62785022  0.13278596  1
  O  O174  1  0.11517050  0.61576445  0.63460024  1
  O  O175  1  0.62344747  0.11313209  0.11913221  1
  O  O176  1  0.62076401  0.11713522  0.61751085  1
  O  O177  1  0.61813195  0.62690817  0.11888793  1
  O  O178  1  0.61573524  0.62222322  0.61313897  1
  O  O179  1  0.38413387  0.37770469  0.38600534  1
  O  O180  1  0.38619358  0.36700177  0.88461834  1
  O  O181  1  0.37013921  0.88892679  0.37331036  1
  O  O182  1  0.38423163  0.87912419  0.88361577  1
  O  O183  1  0.89126539  0.37703067  0.36913892  1
  O  O184  1  0.87530993  0.38272815  0.87638316  1
  O  O185  1  0.87999123  0.87314174  0.38011247  1
  O  O186  1  0.87063562  0.88017704  0.88954516  1
  O  O187  1  0.26265642  0.01161934  0.38066708  1
  O  O188  1  0.25481731  0.00448724  0.86805124  1
  O  O189  1  0.24748774  0.50870324  0.37028327  1
  O  O190  1  0.24763627  0.49508496  0.86144040  1
  O  O191  1  0.75026064  0.01332613  0.37425916  1
  O  O192  1  0.75748090  -0.00642146  0.86715298  1
  O  O193  1  0.75747283  0.49872877  0.37717082  1
  O  O194  1  0.74717310  0.50628793  0.87877338  1
  O  O195  1  0.24782957  0.49356371  0.13312204  1
  O  O196  1  0.24377759  0.49792965  0.63125970  1
  O  O197  1  0.24626965  0.98577890  0.11937021  1
  O  O198  1  0.25310484  1.00750172  0.63776404  1
  O  O199  1  0.74956759  0.48397924  0.12721841  1
  O  O200  1  0.73635798  0.49705660  0.62142845  1
  O  O201  1  0.74246072  0.99213886  0.12753780  1
  O  O202  1  0.74247465  0.99376811  0.62963860  1
  O  O203  1  0.00627148  0.36657203  0.25204686  1
  O  O204  1  0.00973606  0.36841134  0.75558834  1
  O  O205  1  0.01152169  0.87759169  0.25269734  1
  O  O206  1  0.00609605  0.86904622  0.74969877  1
  O  O207  1  0.49070516  0.36890719  0.25917102  1
  O  O208  1  0.49431164  0.36371686  0.75693077  1
  O  O209  1  0.50183572  0.85928456  0.24482094  1
  O  O210  1  0.49408785  0.86584365  0.75977967  1
  O  O211  1  0.48897846  0.13526682  0.24810018  1
  O  O212  1  0.49347113  0.13321075  0.74446073  1
  O  O213  1  0.49033930  0.63501353  0.24854414  1
  O  O214  1  0.49228507  0.62992694  0.74236549  1
  O  O215  1  0.99740341  0.12760840  0.24160220  1
  O  O216  1  1.00078183  0.13006745  0.74360129  1
  O  O217  1  0.98916961  0.62111878  0.23448738  1
  O  O218  1  0.98525845  0.63199926  0.73960655  1
  O  O219  1  0.36604806  0.25639038  0.00483421  1
  O  O220  1  0.37196821  0.25733474  0.50427917  1
  O  O221  1  0.37120062  0.76150763  0.00182121  1
  O  O222  1  0.36582271  0.75236516  0.50790669  1
  O  O223  1  0.87486990  0.26425292  -0.00334879  1
  O  O224  1  0.86416464  0.24534936  0.50905914  1
  O  O225  1  0.86973803  0.75753909  0.00916869  1
  O  O226  1  0.87683951  0.75513834  0.51097582  1
  O  O227  1  0.14003522  0.24951714  0.50333286  1
  O  O228  1  0.13907046  0.25685113  0.99377231  1
  O  O229  1  0.12997556  0.75646214  0.48845380  1
  O  O230  1  0.13488953  0.75087428  0.99727060  1
  O  O231  1  0.63065156  0.23817930  0.50215651  1
  O  O232  1  0.62332326  0.23834680  0.99254693  1
  O  O233  1  0.61997303  0.73880712  0.48990063  1
  O  O234  1  0.63149661  0.74033275  0.99905306  1
  O  O235  1  0.49289172  0.25032599  0.12987711  1
  O  O236  1  0.49763534  0.24708030  0.63175418  1
  O  O237  1  0.50605172  0.73921187  0.14032103  1
  O  O238  1  0.49430332  0.74414557  0.62971769  1
  O  O239  1  1.00007622  0.23620231  0.12854966  1
  O  O240  1  0.99573848  0.24217261  0.62934091  1
  O  O241  1  0.99184214  0.73747783  0.11690222  1
  O  O242  1  0.99082706  0.74351151  0.62929783  1
  O  O243  1  -0.00024342  0.25595433  0.36581676  1
  O  O244  1  0.00768433  0.25537237  0.87114209  1
  O  O245  1  0.00777178  0.76270024  0.37805438  1
  O  O246  1  -0.00361900  0.74372836  0.86252866  1
  O  O247  1  0.49989640  0.25898841  0.36615524  1
  O  O248  1  0.50653389  0.25549957  0.86707451  1
  O  O249  1  0.50466104  0.74763861  0.36561860  1
  O  O250  1  0.50164811  0.75768957  0.86691876  1
  O  O251  1  0.25101994  0.13417309  0.49059469  1
  O  O252  1  0.25561754  0.13329524  0.99044609  1
  O  O253  1  0.25303502  0.63047994  0.48851325  1
  O  O254  1  0.25429070  0.63975894  1.00800637  1
  O  O255  1  0.74258739  0.13041445  0.49450552  1
  O  O256  1  0.73713652  0.12447935  1.00500907  1
  O  O257  1  0.73756993  0.62644366  0.50440878  1
  O  O258  1  0.74661881  0.62798827  0.99512783  1
  O  O259  1  0.25651036  0.36799511  0.00299707  1
  O  O260  1  0.25833190  0.36869302  0.49788366  1
  O  O261  1  0.25636035  0.87272608  0.00917502  1
  O  O262  1  0.25148444  0.86328390  0.49746128  1
  O  O263  1  0.75842292  0.37431200  0.00825665  1
  O  O264  1  0.74152179  0.36133787  0.50595360  1
  O  O265  1  0.75706979  0.87140156  0.01142935  1
  O  O266  1  0.76245899  0.87901159  0.51059564  1
  O  O267  1  0.13107753  0.49257999  0.24700719  1
  O  O268  1  0.13316786  0.49069999  0.74101041  1
  O  O269  1  0.12830704  0.98567740  0.25184499  1
  O  O270  1  0.13318638  0.99035454  0.75015723  1
  O  O271  1  0.62606036  0.50426338  0.24713409  1
  O  O272  1  0.62131574  0.51151013  0.73149189  1
  O  O273  1  0.62451037  0.99871064  0.24275631  1
  O  O274  1  0.62927096  1.00258268  0.73837386  1
  O  O275  1  0.38251967  0.01041011  0.25721506  1
  O  O276  1  0.36915840  0.00283136  0.75569162  1
  O  O277  1  0.36468602  0.50911104  0.25380519  1
  O  O278  1  0.37277421  0.51078824  0.74543917  1
  O  O279  1  0.87347702  0.01154464  0.25039364  1
  O  O280  1  0.86844859  0.00003177  0.76236414  1
  O  O281  1  0.87382656  0.51239499  0.25038886  1
  O  O282  1  0.88023035  0.50809712  0.74896742  1
  O  O283  1  0.11581048  0.37830910  0.36157637  1
  O  O284  1  0.12245487  0.36883291  0.86392531  1
  O  O285  1  0.11886711  0.87147120  0.36381405  1
  O  O286  1  0.12591931  0.86396426  0.85514171  1
  O  O287  1  0.61032704  0.37131769  0.38411764  1
  O  O288  1  0.61332531  0.36266658  0.88395472  1
  O  O289  1  0.62886565  0.86089668  0.37914920  1
  O  O290  1  0.61085783  0.87402551  0.88245565  1
  O  O291  1  0.37525809  0.13115402  0.13155605  1
  O  O292  1  0.38282583  0.12981093  0.62887832  1
  O  O293  1  0.38079564  0.62576799  0.13950370  1
  O  O294  1  0.38744322  0.63246830  0.62879402  1
  O  O295  1  0.88304901  0.12756964  0.13119425  1
  O  O296  1  0.88306253  0.13503761  0.62665370  1
  O  O297  1  0.88196754  0.63143082  0.13090615  1
  O  O298  1  0.87765654  0.63199272  0.63015561  1
  O  O299  1  0.25410015  0.25423601  0.11759576  1
  O  O300  1  0.25984032  0.25097648  0.61609247  1
  O  O301  1  0.24637473  0.76378915  0.11112457  1
  O  O302  1  0.25570716  0.73702849  0.61460647  1
  O  O303  1  0.75353884  0.26066433  0.12032030  1
  O  O304  1  0.75738315  0.25300215  0.62142604  1
  O  O305  1  0.75516316  0.75691755  0.12127225  1
  O  O306  1  0.75705866  0.75991551  0.63109982  1
  O  O307  1  0.25961991  0.24016921  0.38472404  1
  O  O308  1  0.24748940  0.24098398  0.88076870  1
  O  O309  1  0.24156636  0.74433297  0.38363376  1
  O  O310  1  0.25278383  0.75746117  0.89749160  1
  O  O311  1  0.74988047  0.24270445  0.38259142  1
  O  O312  1  0.73374411  0.24956802  0.87864780  1
  O  O313  1  0.73743178  0.74786360  0.37153412  1
  O  O314  1  0.74839779  0.74471739  0.88124447  1
  O  O315  1  0.00154390  0.11514428  0.01079923  1
  O  O316  1  0.00250873  0.12573000  0.50791008  1
  O  O317  1  -0.00625938  0.61610010  0.01170310  1
  O  O318  1  -0.00095949  0.61949587  0.51333149  1
  O  O319  1  0.50650079  0.11606089  0.00140064  1
  O  O320  1  0.50770567  0.12040025  0.50440785  1
  O  O321  1  0.50615848  0.62888563  0.00874727  1
  O  O322  1  0.49904513  0.61892518  0.50539196  1
  O  O323  1  0.49400201  0.38321853  0.49538070  1
  O  O324  1  0.49063699  0.37700380  0.99272647  1
  O  O325  1  0.49803642  0.88816671  0.50381185  1
  O  O326  1  0.49246317  0.87853735  0.99712187  1
  O  O327  1  1.00786733  0.38254373  0.49049112  1
  O  O328  1  0.99371258  0.37974785  0.99402967  1
  O  O329  1  0.98774079  0.87542312  0.49281674  1
  O  O330  1  0.99198849  0.88848545  1.00932018  1
  O  O331  1  0.49723795  0.49609182  0.38543844  1
  O  O332  1  0.50723100  0.48690334  0.87556482  1
  O  O333  1  0.49151431  1.00720682  0.38448732  1
  O  O334  1  0.49483853  0.99313509  0.87813630  1
  O  O335  1  1.00010389  0.49372166  0.38411878  1
  O  O336  1  1.00466513  0.49336316  0.88229666  1
  O  O337  1  0.99689302  0.98642992  0.37508581  1
  O  O338  1  0.99096795  1.00484832  0.89049935  1
  O  O339  1  -0.00148168  0.01175318  0.11221062  1
  O  O340  1  -0.00456029  0.01342576  0.62594203  1
  O  O341  1  0.00224496  0.51131020  0.11793961  1
  O  O342  1  0.00900391  0.50686643  0.62014304  1
  O  O343  1  0.50763810  -0.00054210  0.11893967  1
  O  O344  1  0.50737051  0.00439568  0.62021579  1
  O  O345  1  0.49843160  0.51595452  0.12308889  1
  O  O346  1  0.50737823  0.50692547  0.61558298  1
  O  O347  1  0.24394992  0.37931368  0.24891909  1
  O  O348  1  0.24642455  0.37980877  0.74719254  1
  O  O349  1  0.24173389  0.87170717  0.23592020  1
  O  O350  1  0.24236963  0.88200319  0.75179856  1
  O  O351  1  0.75488979  0.37089502  0.23688589  1
  O  O352  1  0.76339947  0.38422984  0.75889706  1
  O  O353  1  0.74695955  0.87644740  0.23952024  1
  O  O354  1  0.75389138  0.88651996  0.73723177  1
  O  O355  1  0.26389355  0.13248169  0.25668890  1
  O  O356  1  0.25657445  0.11848010  0.75774802  1
  O  O357  1  0.25452846  0.62390543  0.25478122  1
  O  O358  1  0.27220404  0.61474901  0.74223672  1
  O  O359  1  0.75847930  0.12762651  0.25702568  1
  O  O360  1  0.75300569  0.10808784  0.74431322  1
  O  O361  1  0.76685863  0.62392334  0.24304561  1
  O  O362  1  0.76142867  0.62801481  0.75560374  1
  O  O363  1  0.36946703  0.11805696  0.36708418  1
  O  O364  1  0.36699291  0.11926555  0.87005702  1
  O  O365  1  0.36360217  0.62435980  0.36559269  1
  O  O366  1  0.38421466  0.62459400  0.86140528  1
  O  O367  1  0.86804794  0.12430688  0.36699833  1
  O  O368  1  0.87505540  0.11478672  0.87787861  1
  O  O369  1  0.88621112  0.62742014  0.35778023  1
  O  O370  1  0.86231780  0.62671934  0.86833948  1
  O  O371  1  0.13142542  0.37562773  0.13655577  1
  O  O372  1  0.12649696  0.37999039  0.63624933  1
  O  O373  1  0.13086790  0.87252603  0.13723352  1
  O  O374  1  0.12007596  0.88326344  0.63809767  1
  O  O375  1  0.63849455  0.37544436  0.11763295  1
  O  O376  1  0.62448751  0.39127362  0.62526511  1
  O  O377  1  0.63237951  0.88495661  0.12487158  1
  O  O378  1  0.63386001  0.88355540  0.61713505  1
  O  O379  1  0.11429900  0.25646659  0.24593340  1
  O  O380  1  0.12406187  0.25671328  0.75394354  1
  O  O381  1  0.12972508  0.76208093  0.26287380  1
  O  O382  1  0.10941836  0.76517630  0.73524875  1
  O  O383  1  0.60979810  0.24399343  0.24835177  1
  O  O384  1  0.61518537  0.24313752  0.75704184  1
  O  O385  1  0.61552508  0.74888616  0.26609980  1
  O  O386  1  0.60947242  0.74269440  0.74956696  1
  O  O387  1  0.38339685  0.24546757  0.24268789  1
  O  O388  1  0.38230676  0.24436272  0.74314720  1
  O  O389  1  0.38516692  0.74539867  0.25794405  1
  O  O390  1  0.38076842  0.73911755  0.74498080  1
  O  O391  1  0.88860676  0.23828859  0.24744351  1
  O  O392  1  0.88576527  0.24277037  0.74416546  1
  O  O393  1  0.87345701  0.74172530  0.23739479  1
  O  O394  1  0.87958497  0.74692830  0.74056212  1
  O  O395  1  0.38192556  0.49374089  0.50094849  1
  O  O396  1  0.37403195  0.48747686  1.00254644  1
  O  O397  1  0.38451848  0.99826156  0.49276068  1
  O  O398  1  0.38045597  0.99187418  0.99439616  1
  O  O399  1  0.89241009  0.50181124  0.50395168  1
  O  O400  1  0.88684326  0.48798370  1.00415118  1
  O  O401  1  0.87778307  0.99120377  0.49732128  1
  O  O402  1  0.87838257  0.99331912  0.99535352  1
  O  O403  1  0.11248308  -0.00892669  -0.00989499  1
  O  O404  1  0.12095119  0.00426764  0.50084999  1
  O  O405  1  0.11117935  0.49435384  0.00405325  1
  O  O406  1  0.11850557  0.49550056  0.51448330  1
  O  O407  1  0.61919680  0.00473664  0.00609601  1
  O  O408  1  0.61965721  0.00961657  0.50653198  1
  O  O409  1  0.62050993  0.51472293  0.00598204  1
  O  O410  1  0.61746390  0.51304454  0.50590920  1
  O  O411  1  0.36827689  0.36936604  0.11813530  1
  O  O412  1  0.37664580  0.37055450  0.61292299  1
  O  O413  1  0.36136982  0.87925754  0.11909612  1
  O  O414  1  0.37690565  0.85893313  0.62568828  1
  O  O415  1  0.86929499  0.37152457  0.11798587  1
  O  O416  1  0.87527143  0.36008833  0.62935668  1
  O  O417  1  0.86909517  0.86853239  0.12081359  1
  O  O418  1  0.86965163  0.86862623  0.61823718  1
  O  O419  1  0.14034908  0.12197600  0.37029369  1
  O  O420  1  0.13774526  0.12895777  0.87004584  1
  O  O421  1  0.13168353  0.63476341  0.36749577  1
  O  O422  1  0.13501856  0.64207593  0.82894598  1
  O  O423  1  0.63215335  0.12937773  0.38271185  1
  O  O424  1  0.61824711  0.13270665  0.88425241  1
  O  O425  1  0.62051019  0.63492782  0.38974718  1
  O  O426  1  0.63659185  0.62753270  0.88193358  1
