# generated using pymatgen
data_V85Zn86O256
_symmetry_space_group_name_H-M   'P 1'
_cell_length_a   16.91605708
_cell_length_b   16.92414728
_cell_length_c   16.92178750
_cell_angle_alpha   90.00493228
_cell_angle_beta   90.05821811
_cell_angle_gamma   89.97783600
_symmetry_Int_Tables_number   1
_chemical_formula_structural   V85Zn86O256
_chemical_formula_sum   'V85 Zn86 O256'
_cell_volume   4844.53297857
_cell_formula_units_Z   1
loop_
 _symmetry_equiv_pos_site_id
 _symmetry_equiv_pos_as_xyz
  1  'x, y, z'
loop_
 _atom_site_type_symbol
 _atom_site_label
 _atom_site_symmetry_multiplicity
 _atom_site_fract_x
 _atom_site_fract_y
 _atom_site_fract_z
 _atom_site_occupancy
  V  V0  1  0.62492173  0.37126157  0.25172082  1
  V  V1  1  0.11875272  0.00622576  0.62716306  1
  V  V2  1  0.00478218  0.50145871  0.00363023  1
  V  V3  1  0.87541637  0.50048397  0.87780836  1
  V  V4  1  0.24192823  -0.00072582  0.75084936  1
  V  V5  1  0.37712966  0.50200791  0.86506318  1
  V  V6  1  0.49680165  0.50066347  0.49875960  1
  V  V7  1  0.49709859  0.50032656  -0.00201835  1
  V  V8  1  0.24421473  0.87873729  0.12221190  1
  V  V9  1  0.24759395  0.12423741  0.37763961  1
  V  V10  1  0.13001064  0.38543530  0.25394000  1
  V  V11  1  0.37402452  0.24362067  0.62615486  1
  V  V12  1  0.75629444  0.50137237  0.24924799  1
  V  V13  1  0.74575481  0.24873152  -0.00683210  1
  V  V14  1  0.87212781  0.63259434  0.23763021  1
  V  V15  1  0.12990061  0.76298161  0.87799119  1
  V  V16  1  0.74739018  0.49781565  0.75355176  1
  V  V17  1  -0.01550756  0.38117631  0.37949025  1
  V  V18  1  0.50612957  0.36160358  0.86953076  1
  V  V19  1  0.50549280  0.24739917  0.25160342  1
  V  V20  1  0.50071984  -0.00878820  -0.00199476  1
  V  V21  1  0.11896496  0.88414540  0.25118783  1
  V  V22  1  0.87597620  -0.01710616  0.87908904  1
  V  V23  1  0.87814568  0.62817148  0.75500466  1
  V  V24  1  0.75354289  0.12024300  0.87204400  1
  V  V25  1  0.75090264  0.87758990  0.62719052  1
  V  V26  1  0.87516984  0.12061894  0.25210062  1
  V  V27  1  0.00913021  0.12147174  0.12221402  1
  V  V28  1  0.62414785  0.12585144  -0.00360815  1
  V  V29  1  0.49741466  0.86946733  0.37241979  1
  V  V30  1  0.87626881  0.24673338  0.12352636  1
  V  V31  1  -0.00855949  0.24884341  0.74377159  1
  V  V32  1  0.25265795  0.62599198  0.86756170  1
  V  V33  1  0.25293447  0.74967223  0.50212047  1
  V  V34  1  0.61941850  0.86949286  0.24568654  1
  V  V35  1  0.12323734  0.25409773  0.37664524  1
  V  V36  1  0.62371720  0.87558943  0.75329583  1
  V  V37  1  0.50047486  0.12336717  0.12412022  1
  V  V38  1  0.62055683  0.62522773  0.49707142  1
  V  V39  1  0.62544779  -0.00098525  0.62732769  1
  V  V40  1  0.48883503  0.75097597  0.74837088  1
  V  V41  1  0.12353709  0.62409388  0.49871765  1
  V  V42  1  0.25135443  0.13042354  0.88264129  1
  V  V43  1  0.24481210  0.87414618  0.62800749  1
  V  V44  1  0.37260945  0.86624746  -0.00297430  1
  V  V45  1  0.36891944  0.49818322  0.36631341  1
  V  V46  1  -0.00274206  -0.00202082  0.48751930  1
  V  V47  1  0.13317599  0.62832803  -0.00061485  1
  V  V48  1  0.11802015  0.75572570  0.37053361  1
  V  V49  1  0.62144549  0.49853065  0.62909305  1
  V  V50  1  0.00447267  0.62611019  0.62860576  1
  V  V51  1  0.74987082  0.37334265  0.12483846  1
  V  V52  1  0.36734243  0.24873357  0.11740978  1
  V  V53  1  0.49916590  0.37174078  0.37127537  1
  V  V54  1  0.12722698  0.37602498  0.74864246  1
  V  V55  1  0.80753472  0.56618783  0.42280354  1
  V  V56  1  0.87629346  0.37538058  0.00098417  1
  V  V57  1  0.50009588  0.00387540  0.50249319  1
  V  V58  1  0.76648439  0.25610068  0.49420292  1
  V  V59  1  0.24606185  0.62395405  0.36387877  1
  V  V60  1  0.37447874  0.87362811  0.50541435  1
  V  V61  1  0.62191337  0.50164477  0.12501264  1
  V  V62  1  0.37198780  0.37197568  0.49938952  1
  V  V63  1  0.24829994  0.38030513  0.12004597  1
  V  V64  1  0.55880301  0.18165908  0.68252638  1
  V  V65  1  0.62660825  0.74607134  0.37183889  1
  V  V66  1  0.00571925  -0.01141825  -0.00227022  1
  V  V67  1  0.37620767  0.12805431  0.74849450  1
  V  V68  1  0.76215057  0.75250657  0.00145592  1
  V  V69  1  0.00780145  0.76470775  0.75584151  1
  V  V70  1  0.37841463  -0.00554000  0.87283693  1
  V  V71  1  0.76335041  0.37315916  0.62235294  1
  V  V72  1  0.74808905  0.62714729  0.87567569  1
  V  V73  1  0.48327178  0.62802078  0.62839739  1
  V  V74  1  0.76468972  0.87031878  0.12243843  1
  V  V75  1  0.37391951  0.12388493  0.25061092  1
  V  V76  1  0.87689741  0.75637158  0.62695039  1
  V  V77  1  0.62181123  0.13500609  0.49399461  1
  V  V78  1  0.37659087  0.75173861  0.12893248  1
  V  V79  1  0.38122967  0.62932837  0.24971706  1
  V  V80  1  0.74595864  0.12340629  0.37425381  1
  V  V81  1  0.62000611  0.75281795  0.87580420  1
  V  V82  1  0.12677014  0.25124058  0.88158546  1
  V  V83  1  0.87643806  0.87758781  0.48631100  1
  V  V84  1  0.75236844  -0.00411307  0.25410048  1
  Zn  Zn85  1  0.00114030  0.37362725  0.87552692  1
  Zn  Zn86  1  0.75103628  0.75032660  0.49951045  1
  Zn  Zn87  1  0.25493155  0.50169249  0.74370837  1
  Zn  Zn88  1  0.12938411  0.12586378  0.00543184  1
  Zn  Zn89  1  0.11995478  0.12808959  0.50256058  1
  Zn  Zn90  1  0.13156179  0.50784313  0.13131288  1
  Zn  Zn91  1  0.87974752  0.11330088  0.75554056  1
  Zn  Zn92  1  0.12548951  0.49714924  0.62365221  1
  Zn  Zn93  1  0.24929710  0.37481144  0.62589574  1
  Zn  Zn94  1  0.37024606  0.37085129  -0.00612748  1
  Zn  Zn95  1  0.50042928  0.63025077  0.12696029  1
  Zn  Zn96  1  0.37227417  -0.00197033  0.37486914  1
  Zn  Zn97  1  0.24674230  0.24799075  0.50335206  1
  Zn  Zn98  1  -0.00086191  0.25323314  0.24998953  1
  Zn  Zn99  1  -0.02621832  0.12976592  0.61835496  1
  Zn  Zn100  1  -0.01113414  0.49892409  0.49963974  1
  Zn  Zn101  1  -0.00905355  0.76032077  0.24455974  1
  Zn  Zn102  1  0.62366508  0.62879985  0.00195343  1
  Zn  Zn103  1  0.62737954  -0.00392181  0.12279366  1
  Zn  Zn104  1  0.62541354  0.36004830  0.75046918  1
  Zn  Zn105  1  0.00293603  0.63189305  0.12397712  1
  Zn  Zn106  1  0.24668190  0.00385146  0.24588080  1
  Zn  Zn107  1  0.18790033  0.19552205  0.19243584  1
  Zn  Zn108  1  0.18693953  0.18907171  0.69176876  1
  Zn  Zn109  1  0.18881478  0.69663336  0.18366893  1
  Zn  Zn110  1  0.18839442  0.68954992  0.68945330  1
  Zn  Zn111  1  0.68712102  0.18427056  0.18280824  1
  Zn  Zn112  1  0.74679507  0.16840466  0.66623741  1
  Zn  Zn113  1  0.68970843  0.68742339  0.18887468  1
  Zn  Zn114  1  0.68496168  0.68888712  0.68673289  1
  Zn  Zn115  1  0.30963441  0.30921820  0.30739361  1
  Zn  Zn116  1  0.31385460  0.31305485  0.81211994  1
  Zn  Zn117  1  0.30778331  0.81225874  0.31133698  1
  Zn  Zn118  1  0.30754968  0.81397029  0.81314615  1
  Zn  Zn119  1  0.80925228  0.30710595  0.31131327  1
  Zn  Zn120  1  0.81087552  0.31350832  0.81404407  1
  Zn  Zn121  1  0.80502953  0.80855418  0.31277695  1
  Zn  Zn122  1  0.80963364  0.81374491  0.81100959  1
  Zn  Zn123  1  0.18694132  0.43973669  0.43879177  1
  Zn  Zn124  1  0.18940897  0.43874114  0.93675813  1
  Zn  Zn125  1  0.18435353  0.94069080  0.43741746  1
  Zn  Zn126  1  0.18913486  0.94306105  0.94170232  1
  Zn  Zn127  1  0.68038050  0.42905582  0.43931761  1
  Zn  Zn128  1  0.68318723  0.43603217  0.93774498  1
  Zn  Zn129  1  0.68649804  0.93787753  0.43784508  1
  Zn  Zn130  1  0.69026947  0.93612034  0.93774613  1
  Zn  Zn131  1  0.31418490  0.05793016  0.06174875  1
  Zn  Zn132  1  0.31136325  0.06229677  0.56238230  1
  Zn  Zn133  1  0.31297159  0.56161835  0.05857114  1
  Zn  Zn134  1  0.30708242  0.55898689  0.55846044  1
  Zn  Zn135  1  0.81687196  0.05678357  0.06011903  1
  Zn  Zn136  1  0.81208060  0.05632278  0.55700026  1
  Zn  Zn137  1  0.80904883  0.56332490  0.06038500  1
  Zn  Zn138  1  0.81161658  0.56550545  0.58520290  1
  Zn  Zn139  1  0.43339703  0.43715290  0.18582588  1
  Zn  Zn140  1  0.44013584  0.43159389  0.68844428  1
  Zn  Zn141  1  0.43642920  0.93777796  0.18626675  1
  Zn  Zn142  1  0.43794432  0.93616483  0.68586439  1
  Zn  Zn143  1  0.94086843  0.43962306  0.18946753  1
  Zn  Zn144  1  0.94164159  0.43967329  0.69055896  1
  Zn  Zn145  1  0.93958012  0.94208813  0.18445608  1
  Zn  Zn146  1  0.93706415  0.94193927  0.68743471  1
  Zn  Zn147  1  0.06278761  0.06460575  0.31065383  1
  Zn  Zn148  1  0.05999927  0.06420546  0.81621691  1
  Zn  Zn149  1  0.05561129  0.56176687  0.31425441  1
  Zn  Zn150  1  0.06490563  0.56325354  0.81625239  1
  Zn  Zn151  1  0.56415506  0.05633484  0.31403304  1
  Zn  Zn152  1  0.56677459  0.05549783  0.81874946  1
  Zn  Zn153  1  0.56201666  0.55952805  0.31192458  1
  Zn  Zn154  1  0.55979716  0.56595094  0.81228820  1
  Zn  Zn155  1  0.43694678  0.18701976  0.43607023  1
  Zn  Zn156  1  0.43793050  0.18403629  0.93709307  1
  Zn  Zn157  1  0.43586564  0.68901659  0.43693255  1
  Zn  Zn158  1  0.43805951  0.68593525  0.93524215  1
  Zn  Zn159  1  0.93985698  0.18420494  0.43140717  1
  Zn  Zn160  1  0.93994997  0.18542843  0.93604916  1
  Zn  Zn161  1  0.94204652  0.69631129  0.43915549  1
  Zn  Zn162  1  0.94453553  0.69002282  0.93820840  1
  Zn  Zn163  1  0.06406211  0.31279618  0.06368913  1
  Zn  Zn164  1  0.05681468  0.31400326  0.56175702  1
  Zn  Zn165  1  0.06116663  0.80840286  0.06572059  1
  Zn  Zn166  1  0.06433682  0.81627972  0.56333215  1
  Zn  Zn167  1  0.55957638  0.31291778  0.06134765  1
  Zn  Zn168  1  0.56560416  0.31754151  0.55764752  1
  Zn  Zn169  1  0.56125026  0.81038932  0.06234555  1
  Zn  Zn170  1  0.56025547  0.81030228  0.56431411  1
  O  O171  1  0.11270769  0.13474178  0.12807555  1
  O  O172  1  0.13009628  0.11345372  0.62306945  1
  O  O173  1  0.13070646  0.62513564  0.11558402  1
  O  O174  1  0.11881422  0.62630882  0.61743454  1
  O  O175  1  0.61959262  0.11865687  0.11419177  1
  O  O176  1  0.62670531  0.12126060  0.62267102  1
  O  O177  1  0.62228472  0.61346966  0.12711960  1
  O  O178  1  0.62227089  0.61526523  0.61405623  1
  O  O179  1  0.37690081  0.37977150  0.37772429  1
  O  O180  1  0.38611932  0.38080905  0.87544266  1
  O  O181  1  0.38009874  0.87525935  0.38356888  1
  O  O182  1  0.36745232  0.88347755  0.88357941  1
  O  O183  1  0.88630520  0.37141649  0.36836210  1
  O  O184  1  0.87531557  0.38261427  0.88366404  1
  O  O185  1  0.86885821  0.86826134  0.38698877  1
  O  O186  1  0.86903175  0.88370314  0.87963940  1
  O  O187  1  0.25039790  0.01251975  0.37246682  1
  O  O188  1  0.25900824  0.00622914  0.86717502  1
  O  O189  1  0.25791738  0.51178446  0.38145155  1
  O  O190  1  0.26015824  0.50579993  0.87197033  1
  O  O191  1  0.74682691  0.00785771  0.36610315  1
  O  O192  1  0.76590557  0.00635183  0.88708468  1
  O  O193  1  0.74794182  0.49895439  0.36927293  1
  O  O194  1  0.75325077  0.50507167  0.87202041  1
  O  O195  1  0.25186837  0.48513744  0.12453633  1
  O  O196  1  0.24535625  0.49482193  0.62671252  1
  O  O197  1  0.25621586  0.98483423  0.12797387  1
  O  O198  1  0.24402094  0.99538183  0.63203571  1
  O  O199  1  0.74211439  0.49428153  0.13078386  1
  O  O200  1  0.74028444  0.49241485  0.63254215  1
  O  O201  1  0.74916568  0.98630274  0.12961371  1
  O  O202  1  0.73457776  0.99257489  0.61972524  1
  O  O203  1  0.00773953  0.37519849  0.26028373  1
  O  O204  1  0.00554604  0.36474806  0.75195670  1
  O  O205  1  0.01450917  0.87890590  0.24565398  1
  O  O206  1  0.00206245  0.86227157  0.74409097  1
  O  O207  1  0.50282680  0.36666652  0.25089566  1
  O  O208  1  0.50597445  0.37405183  0.76376147  1
  O  O209  1  0.50669713  0.88111576  0.25996916  1
  O  O210  1  0.50883167  0.86113920  0.74133469  1
  O  O211  1  0.49644784  0.12897462  0.24677724  1
  O  O212  1  0.50020065  0.12558569  0.74808850  1
  O  O213  1  0.48541279  0.61951834  0.24859693  1
  O  O214  1  0.50409889  0.63870372  0.74046820  1
  O  O215  1  0.99038597  0.12555947  0.24315356  1
  O  O216  1  0.99908868  0.13760957  0.74691505  1
  O  O217  1  0.97944304  0.61947285  0.25005399  1
  O  O218  1  0.99735782  0.63097722  0.74458917  1
  O  O219  1  0.38182901  0.25051506  0.01360155  1
  O  O220  1  0.37554096  0.25543479  0.50720601  1
  O  O221  1  0.37905343  0.76196917  0.00214710  1
  O  O222  1  0.36165371  0.75736069  0.49563126  1
  O  O223  1  0.86902121  0.25419363  0.00633519  1
  O  O224  1  0.86458573  0.24612696  0.49691886  1
  O  O225  1  0.86168965  0.74720998  -0.00819770  1
  O  O226  1  0.87512555  0.75923934  0.50884335  1
  O  O227  1  0.12496795  0.25012364  0.48913684  1
  O  O228  1  0.12027872  0.24790626  0.98597201  1
  O  O229  1  0.13005339  0.74372578  0.49298321  1
  O  O230  1  0.12100141  0.74350357  0.98511225  1
  O  O231  1  0.62616194  0.23757866  0.50074044  1
  O  O232  1  0.63369820  0.23978899  1.00788157  1
  O  O233  1  0.62636748  0.73963486  0.49705984  1
  O  O234  1  0.62877184  0.75060811  0.98980960  1
  O  O235  1  0.49290945  0.24414264  0.13344467  1
  O  O236  1  0.49961668  0.24462090  0.62509476  1
  O  O237  1  0.48404352  0.74807567  0.12066348  1
  O  O238  1  0.50243887  0.74103469  0.63686689  1
  O  O239  1  0.98893989  0.24491640  0.12589961  1
  O  O240  1  1.00187875  0.24578972  0.63815416  1
  O  O241  1  1.00269928  0.74455901  0.13308073  1
  O  O242  1  1.00098671  0.74401722  0.63566770  1
  O  O243  1  0.00626448  0.26026304  0.37292130  1
  O  O244  1  0.00889644  0.25073105  0.86498870  1
  O  O245  1  0.01380820  0.74855499  0.36693465  1
  O  O246  1  0.01260067  0.74917322  0.86385903  1
  O  O247  1  0.49290421  0.25462519  0.35905439  1
  O  O248  1  0.49850330  0.26300537  0.87997308  1
  O  O249  1  0.50860029  0.76224582  0.38268240  1
  O  O250  1  0.51134346  0.74454970  0.86353222  1
  O  O251  1  0.24677993  0.12707294  0.49066684  1
  O  O252  1  0.25109141  0.11922939  0.98715547  1
  O  O253  1  0.24320476  0.63386121  0.49185804  1
  O  O254  1  0.23960884  0.62011004  0.98856541  1
  O  O255  1  0.74490201  0.13297461  0.49197027  1
  O  O256  1  0.74383635  0.13011598  0.99711411  1
  O  O257  1  0.74625226  0.61924883  0.49326582  1
  O  O258  1  0.74542952  0.63354265  0.99417751  1
  O  O259  1  0.24995743  0.37451429  0.01440942  1
  O  O260  1  0.26274440  0.37213040  0.49917623  1
  O  O261  1  0.25773881  0.88048912  0.01260015  1
  O  O262  1  0.25501592  0.87025996  0.50372407  1
  O  O263  1  0.75298811  0.36726097  0.00559367  1
  O  O264  1  0.74870129  0.36356583  0.50306840  1
  O  O265  1  0.74564540  0.86889634  0.01571597  1
  O  O266  1  0.75644948  0.87648566  0.50999300  1
  O  O267  1  0.12174570  0.49034689  0.25016611  1
  O  O268  1  0.12036359  0.48525402  0.75086686  1
  O  O269  1  0.12712412  0.98882847  0.25157735  1
  O  O270  1  0.13504345  1.00525697  0.74604248  1
  O  O271  1  0.63416634  0.49509475  0.24419926  1
  O  O272  1  0.63044410  0.50260526  0.74224966  1
  O  O273  1  0.63533000  0.99011359  0.24782243  1
  O  O274  1  0.61625815  0.98883623  0.74030966  1
  O  O275  1  0.37677870  0.01385904  0.25265931  1
  O  O276  1  0.37228951  0.00857259  0.75386260  1
  O  O277  1  0.37511115  0.50521475  0.26129862  1
  O  O278  1  0.37820856  0.49701881  0.76106186  1
  O  O279  1  0.86246555  0.00643055  0.24529336  1
  O  O280  1  0.88351898  -0.00335602  0.77211412  1
  O  O281  1  0.86170616  0.50609888  0.24605107  1
  O  O282  1  0.86916534  0.50647880  0.75743041  1
  O  O283  1  0.12324152  0.37106166  0.37009159  1
  O  O284  1  0.12503979  0.36776405  0.86910547  1
  O  O285  1  0.13315870  0.86966341  0.36104516  1
  O  O286  1  0.13611180  0.86182271  0.87770600  1
  O  O287  1  0.61198579  0.37786321  0.36446958  1
  O  O288  1  0.61204926  0.37516800  0.87171185  1
  O  O289  1  0.61800451  0.86836930  0.36768973  1
  O  O290  1  0.63036648  0.86967767  0.86214291  1
  O  O291  1  0.37849465  0.13036483  0.13031862  1
  O  O292  1  0.37527946  0.13434954  0.63020232  1
  O  O293  1  0.37061626  0.63246947  0.13277189  1
  O  O294  1  0.38462699  0.62143348  0.61787327  1
  O  O295  1  0.87822045  0.13051319  0.13252726  1
  O  O296  1  0.85519808  0.12182579  0.63958612  1
  O  O297  1  0.87211293  0.62423964  0.13576500  1
  O  O298  1  0.88447307  0.63661426  0.63411039  1
  O  O299  1  0.25811073  0.26031382  0.12820719  1
  O  O300  1  0.26014024  0.25180357  0.62361523  1
  O  O301  1  0.26318312  0.76603799  0.12558858  1
  O  O302  1  0.24203392  0.76029092  0.61536469  1
  O  O303  1  0.75902683  0.25206665  0.11637536  1
  O  O304  1  0.74459786  0.26131208  0.60518685  1
  O  O305  1  0.74478521  0.76168762  0.11729291  1
  O  O306  1  0.75605796  0.75710619  0.62142380  1
  O  O307  1  0.24284015  0.24101394  0.37545625  1
  O  O308  1  0.24282066  0.24112066  0.86944662  1
  O  O309  1  0.24040485  0.74341179  0.38265083  1
  O  O310  1  0.23776606  0.74225521  0.86909016  1
  O  O311  1  0.74803172  0.24373023  0.38629089  1
  O  O312  1  0.75374467  0.24268831  0.88819890  1
  O  O313  1  0.73194830  0.75208043  0.38196768  1
  O  O314  1  0.74013690  0.74761048  0.88012592  1
  O  O315  1  0.00239238  0.12183478  0.00964778  1
  O  O316  1  -0.00263654  0.11415400  0.50270223  1
  O  O317  1  0.01252987  0.61830954  -0.00038046  1
  O  O318  1  0.00698388  0.62742322  0.50850923  1
  O  O319  1  0.50637868  0.11524293  0.00249892  1
  O  O320  1  0.50808952  0.11585414  0.49182329  1
  O  O321  1  0.50202693  0.61237141  0.00230059  1
  O  O322  1  0.50456525  0.62176466  0.50700455  1
  O  O323  1  0.48980200  0.37812794  0.49235617  1
  O  O324  1  0.49998110  0.38448523  0.99038697  1
  O  O325  1  0.49180765  0.87893449  0.49663262  1
  O  O326  1  0.49210907  0.88547626  1.00369878  1
  O  O327  1  0.99868057  0.37880395  0.48578235  1
  O  O328  1  0.99469515  0.38312011  1.00026327  1
  O  O329  1  0.99164600  0.88769098  0.50526309  1
  O  O330  1  1.00793768  0.88978231  1.00411835  1
  O  O331  1  0.49031454  0.49354822  0.37983764  1
  O  O332  1  0.49529731  0.49659930  0.88093967  1
  O  O333  1  0.50086991  0.98708615  0.38619347  1
  O  O334  1  0.48670808  1.00222898  0.88212292  1
  O  O335  1  0.99763405  0.48652671  0.37948422  1
  O  O336  1  0.99441414  0.49908214  0.88725189  1
  O  O337  1  1.00399745  1.00202029  0.38868903  1
  O  O338  1  0.99119237  1.00336026  0.88773486  1
  O  O339  1  -0.00503868  0.01038227  0.11122742  1
  O  O340  1  0.00548181  0.00743613  0.62074984  1
  O  O341  1  0.00316066  0.50533514  0.11414385  1
  O  O342  1  -0.00061403  0.51373080  0.62064865  1
  O  O343  1  0.49965712  0.00695077  0.11563640  1
  O  O344  1  0.50996819  -0.00520070  0.61177227  1
  O  O345  1  0.50550889  0.49893414  0.11777205  1
  O  O346  1  0.50446927  0.50583350  0.62079670  1
  O  O347  1  0.24082184  0.37210290  0.23947935  1
  O  O348  1  0.24159303  0.37725126  0.74833424  1
  O  O349  1  0.24461462  0.87988775  0.24020432  1
  O  O350  1  0.25675333  0.88654326  0.73913090  1
  O  O351  1  0.74534777  0.38007737  0.24435803  1
  O  O352  1  0.74431459  0.37663709  0.74215803  1
  O  O353  1  0.74298716  0.87813407  0.24150538  1
  O  O354  1  0.74006622  0.86995295  0.73565765  1
  O  O355  1  0.25758938  0.12521217  0.25567851  1
  O  O356  1  0.25996874  0.11747451  0.75692210  1
  O  O357  1  0.25629681  0.63079461  0.26063842  1
  O  O358  1  0.24459739  0.62043450  0.76185485  1
  O  O359  1  0.75185441  0.11662254  0.25431617  1
  O  O360  1  0.74589001  0.12438311  0.76998496  1
  O  O361  1  0.76021992  0.61674762  0.25102984  1
  O  O362  1  0.75689537  0.62105548  0.75447853  1
  O  O363  1  0.36643486  0.12516734  0.36700566  1
  O  O364  1  0.37065943  0.11929045  0.86739017  1
  O  O365  1  0.36811793  0.61950048  0.36940822  1
  O  O366  1  0.36552010  0.61602654  0.88005430  1
  O  O367  1  0.86376302  0.13059747  0.35959317  1
  O  O368  1  0.86729779  0.11859244  0.87567299  1
  O  O369  1  0.87021073  0.62796092  0.37129509  1
  O  O370  1  0.87023667  0.62077286  0.87204625  1
  O  O371  1  0.13462580  0.37527705  0.13278874  1
  O  O372  1  0.12516954  0.37532821  0.63270399  1
  O  O373  1  0.13844267  0.87040956  0.13447167  1
  O  O374  1  0.13673225  0.88883323  0.61995615  1
  O  O375  1  0.62863351  0.38457237  0.12988790  1
  O  O376  1  0.62786264  0.38795136  0.62557535  1
  O  O377  1  0.62528789  0.87385132  0.13719318  1
  O  O378  1  0.63062289  0.88080928  0.62844954  1
  O  O379  1  0.12133458  0.26149348  0.26206524  1
  O  O380  1  0.11771564  0.25905712  0.75712424  1
  O  O381  1  0.12818596  0.76329520  0.25700993  1
  O  O382  1  0.11523951  0.74815435  0.76100238  1
  O  O383  1  0.61609677  0.25547164  0.24107646  1
  O  O384  1  0.62119156  0.23895634  0.73392072  1
  O  O385  1  0.62601061  0.75590138  0.25855607  1
  O  O386  1  0.61932154  0.75688642  0.75588552  1
  O  O387  1  0.38124222  0.23922282  0.24079340  1
  O  O388  1  0.37491701  0.23665181  0.74389590  1
  O  O389  1  0.37225122  0.74158115  0.24383339  1
  O  O390  1  0.39017256  0.75564308  0.75617144  1
  O  O391  1  0.87335027  0.24108952  0.23903317  1
  O  O392  1  0.88954267  0.25103651  0.75616433  1
  O  O393  1  0.87116332  0.73597001  0.25384712  1
  O  O394  1  0.88770764  0.74813626  0.74911857  1
  O  O395  1  0.37897773  0.49161586  0.49025298  1
  O  O396  1  0.38296490  0.49497023  0.99086440  1
  O  O397  1  0.38281024  0.99389227  0.49784209  1
  O  O398  1  0.38150591  0.99172943  0.99148489  1
  O  O399  1  0.86503325  0.51586529  0.49087469  1
  O  O400  1  0.88128204  0.49619904  0.99747949  1
  O  O401  1  0.88711347  0.99227711  0.50006212  1
  O  O402  1  0.88933585  1.00173458  0.98985201  1
  O  O403  1  0.11173463  0.00856680  -0.00617435  1
  O  O404  1  0.11227104  0.00149024  0.50709956  1
  O  O405  1  0.11907307  0.50762808  0.00123930  1
  O  O406  1  0.12283225  0.51552308  0.49957325  1
  O  O407  1  0.61607339  0.00245135  0.00050769  1
  O  O408  1  0.61950230  0.01035984  0.50591846  1
  O  O409  1  0.61835755  0.50136748  0.00964869  1
  O  O410  1  0.61687378  0.50504191  0.50504716  1
  O  O411  1  0.36383423  0.36720835  0.12483574  1
  O  O412  1  0.37893449  0.36199502  0.61712153  1
  O  O413  1  0.36913127  0.87049549  0.11907906  1
  O  O414  1  0.36387076  0.88106783  0.61211248  1
  O  O415  1  0.87021210  0.36751756  0.12164326  1
  O  O416  1  0.86251773  0.38503527  0.62620850  1
  O  O417  1  0.86287934  0.87190929  0.13138640  1
  O  O418  1  0.86688496  0.87399039  0.62158673  1
  O  O419  1  0.13029049  0.13499734  0.37458527  1
  O  O420  1  0.13585074  0.13398579  0.87271239  1
  O  O421  1  0.12927155  0.63122009  0.37833412  1
  O  O422  1  0.13286673  0.63158327  0.88107766  1
  O  O423  1  0.63585319  0.12135510  0.38059385  1
  O  O424  1  0.63326045  0.11699746  0.88971342  1
  O  O425  1  0.61512711  0.63030163  0.38684836  1
  O  O426  1  0.63191965  0.63434411  0.87507904  1
