# generated using pymatgen
data_V85Zn86O256
_symmetry_space_group_name_H-M   'P 1'
_cell_length_a   16.94966893
_cell_length_b   16.94420083
_cell_length_c   16.94569636
_cell_angle_alpha   90.02126379
_cell_angle_beta   90.02052254
_cell_angle_gamma   89.98608059
_symmetry_Int_Tables_number   1
_chemical_formula_structural   V85Zn86O256
_chemical_formula_sum   'V85 Zn86 O256'
_cell_volume   4866.77938301
_cell_formula_units_Z   1
loop_
 _symmetry_equiv_pos_site_id
 _symmetry_equiv_pos_as_xyz
  1  'x, y, z'
loop_
 _atom_site_type_symbol
 _atom_site_label
 _atom_site_symmetry_multiplicity
 _atom_site_fract_x
 _atom_site_fract_y
 _atom_site_fract_z
 _atom_site_occupancy
  V  V0  1  0.37161602  0.50262470  0.87752562  1
  V  V1  1  0.87547492  0.49937460  0.87882577  1
  V  V2  1  0.49343116  -0.01081280  0.49811496  1
  V  V3  1  0.24224308  0.88399802  0.62075341  1
  V  V4  1  0.00250190  0.26310553  0.24349504  1
  V  V5  1  0.74771116  0.62632289  0.87570164  1
  V  V6  1  0.74788785  0.49882389  0.75037020  1
  V  V7  1  0.12651357  0.11809637  0.50031482  1
  V  V8  1  0.75331637  0.13164039  0.87865184  1
  V  V9  1  0.49570756  -0.00073635  -0.00738936  1
  V  V10  1  0.49711299  0.37715345  0.87311600  1
  V  V11  1  0.00377969  0.86023588  0.37460851  1
  V  V12  1  0.87139356  0.74701552  0.61392330  1
  V  V13  1  0.00234890  0.12355774  0.12652371  1
  V  V14  1  0.37932481  0.75374968  0.61840461  1
  V  V15  1  0.87422032  0.62688037  0.74951349  1
  V  V16  1  0.38655936  0.62609199  0.24671029  1
  V  V17  1  0.49644985  0.50999809  0.00582452  1
  V  V18  1  0.00390806  0.37623049  0.87367008  1
  V  V19  1  -0.00203630  0.50088633  0.49454174  1
  V  V20  1  0.75180214  0.75005123  0.00275092  1
  V  V21  1  0.87657877  -0.00044720  0.87555048  1
  V  V22  1  0.87400091  0.87332392  0.00172543  1
  V  V23  1  0.61244632  0.50357300  0.63141937  1
  V  V24  1  0.62465502  0.87114336  0.25679768  1
  V  V25  1  0.24429933  0.62317944  0.87619374  1
  V  V26  1  0.87926995  0.25045725  0.62428876  1
  V  V27  1  0.00731414  -0.00226948  0.00611190  1
  V  V28  1  0.37436273  0.37561028  0.00762538  1
  V  V29  1  0.12054494  0.86710305  0.24730662  1
  V  V30  1  0.13498436  0.49764114  0.13816715  1
  V  V31  1  0.31957459  0.30660000  0.18659885  1
  V  V32  1  0.00970786  0.25250322  0.74887405  1
  V  V33  1  0.75405470  0.12361647  0.37635793  1
  V  V34  1  0.24645834  0.74422460  0.00140878  1
  V  V35  1  0.62964504  0.50339036  0.12436561  1
  V  V36  1  0.87837705  0.37413889  0.49715543  1
  V  V37  1  0.25673397  0.00536115  0.76328062  1
  V  V38  1  0.62974219  0.24816862  0.37415531  1
  V  V39  1  0.75346735  0.87245603  0.12490003  1
  V  V40  1  0.45277693  0.80791145  0.30692262  1
  V  V41  1  0.24951407  0.12042770  0.38063592  1
  V  V42  1  0.62072129  0.75494697  0.87231328  1
  V  V43  1  0.12410298  0.62873911  0.49546714  1
  V  V44  1  0.62262564  0.87905152  0.74358399  1
  V  V45  1  0.38598146  0.74941054  0.11948130  1
  V  V46  1  0.13052321  0.12192757  0.00363915  1
  V  V47  1  0.62179779  0.36521085  0.74914448  1
  V  V48  1  0.24324128  0.87722567  0.11907335  1
  V  V49  1  0.43995379  0.19287741  0.79846276  1
  V  V50  1  0.85679894  0.61917398  0.24211361  1
  V  V51  1  0.88105015  -0.00289030  0.37561273  1
  V  V52  1  0.62651485  0.11635368  0.50607506  1
  V  V53  1  0.37505944  0.12137671  0.24793430  1
  V  V54  1  0.74507565  0.36745784  0.10950847  1
  V  V55  1  0.64735203  0.74574692  0.37604260  1
  V  V56  1  0.00190292  0.87515725  0.87393045  1
  V  V57  1  0.61984308  0.62889414  0.00316433  1
  V  V58  1  0.49398866  0.13029888  0.62052007  1
  V  V59  1  0.12518724  0.74778906  0.87222803  1
  V  V60  1  0.50546730  0.25434382  0.24676473  1
  V  V61  1  0.37959541  0.62489252  0.74202467  1
  V  V62  1  0.24506314  0.36653129  0.61614442  1
  V  V63  1  0.24208632  -0.00095668  0.24593222  1
  V  V64  1  0.63049784  0.13172387  0.00324001  1
  V  V65  1  0.12784326  0.25140779  0.87547771  1
  V  V66  1  0.37580059  0.50468009  0.37716156  1
  V  V67  1  0.00632665  0.11238627  0.62537230  1
  V  V68  1  0.68393780  0.43402201  0.29651040  1
  V  V69  1  0.75089735  -0.00022409  0.25126808  1
  V  V70  1  0.87937405  0.12443588  0.75024018  1
  V  V71  1  0.74859482  0.00077073  0.74397937  1
  V  V72  1  0.50337071  0.38109408  0.37474553  1
  V  V73  1  -0.00533378  0.73798795  0.22962898  1
  V  V74  1  -0.00046101  0.62533719  0.62485063  1
  V  V75  1  0.63183913  0.63298604  0.50866445  1
  V  V76  1  0.12501627  0.25557396  0.37500789  1
  V  V77  1  0.62312279  0.00142820  0.12642640  1
  V  V78  1  0.24642651  0.49461120  0.74834779  1
  V  V79  1  0.24511183  0.62641665  0.36895253  1
  V  V80  1  0.25201062  0.25608855  0.00511116  1
  V  V81  1  0.24778794  0.75188970  0.50059601  1
  V  V82  1  0.01069959  0.51313126  0.00528331  1
  V  V83  1  0.75005458  0.87364696  0.61817290  1
  V  V84  1  0.12342129  0.49637895  0.62823364  1
  Zn  Zn85  1  0.38155645  0.38019991  0.50612957  1
  Zn  Zn86  1  0.26506216  0.12640958  0.87519351  1
  Zn  Zn87  1  0.86917533  0.24528248  0.11936192  1
  Zn  Zn88  1  0.62929286  0.25136441  0.87819868  1
  Zn  Zn89  1  0.50019824  0.74955489  0.74323760  1
  Zn  Zn90  1  0.25089205  0.47926435  0.25203527  1
  Zn  Zn91  1  0.00123573  0.37954416  0.36586369  1
  Zn  Zn92  1  0.00427306  -0.00851403  0.50133213  1
  Zn  Zn93  1  0.12238379  0.88282718  0.74448845  1
  Zn  Zn94  1  0.87252537  0.86894192  0.49473374  1
  Zn  Zn95  1  0.87405604  0.36793952  -0.00294923  1
  Zn  Zn96  1  0.49962944  0.50733595  0.50538765  1
  Zn  Zn97  1  0.48883380  0.88350593  0.86205288  1
  Zn  Zn98  1  -0.00013976  0.75148636  0.74842913  1
  Zn  Zn99  1  0.49907706  0.12889909  0.12877856  1
  Zn  Zn100  1  0.37890952  -0.01279672  0.37302012  1
  Zn  Zn101  1  0.36880693  0.24671440  0.60446218  1
  Zn  Zn102  1  0.86337850  0.50389739  0.36939880  1
  Zn  Zn103  1  0.75268495  0.24758895  0.50193485  1
  Zn  Zn104  1  0.75102814  0.37368081  0.62886959  1
  Zn  Zn105  1  0.87856759  0.12464753  0.24914917  1
  Zn  Zn106  1  0.36796205  0.88148864  -0.00965968  1
  Zn  Zn107  1  0.17993300  0.18238215  0.19279169  1
  Zn  Zn108  1  0.19005162  0.18051071  0.68810883  1
  Zn  Zn109  1  0.18224283  0.68167533  0.18186397  1
  Zn  Zn110  1  0.18883278  0.68682882  0.68747601  1
  Zn  Zn111  1  0.68857956  0.18803369  0.19109730  1
  Zn  Zn112  1  0.68898236  0.18587651  0.68559932  1
  Zn  Zn113  1  0.68175967  0.68884330  0.18648643  1
  Zn  Zn114  1  0.68844294  0.68977728  0.68718702  1
  Zn  Zn115  1  0.32623726  0.29455608  0.37312303  1
  Zn  Zn116  1  0.30471056  0.31974621  0.81528150  1
  Zn  Zn117  1  0.28960025  0.80493800  0.30928488  1
  Zn  Zn118  1  0.31211484  0.81574538  0.80584879  1
  Zn  Zn119  1  0.82220753  0.30805608  0.31159069  1
  Zn  Zn120  1  0.81595237  0.31252459  0.81059790  1
  Zn  Zn121  1  0.82081918  0.80910364  0.30554955  1
  Zn  Zn122  1  0.81160733  0.81195500  0.80960680  1
  Zn  Zn123  1  0.18624700  0.44155051  0.43776743  1
  Zn  Zn124  1  0.18470620  0.43457802  0.94257669  1
  Zn  Zn125  1  0.18601322  0.93560868  0.43354865  1
  Zn  Zn126  1  0.18875160  0.93744128  0.93218919  1
  Zn  Zn127  1  0.68884453  0.43843845  0.46093807  1
  Zn  Zn128  1  0.68284381  0.43967095  0.93657560  1
  Zn  Zn129  1  0.68509610  0.93783409  0.43657067  1
  Zn  Zn130  1  0.68462999  0.94167821  0.93413731  1
  Zn  Zn131  1  0.31267471  0.06565014  0.06678505  1
  Zn  Zn132  1  0.31838788  0.05915939  0.55921296  1
  Zn  Zn133  1  0.30467149  0.56454347  0.06863548  1
  Zn  Zn134  1  0.31032648  0.56365702  0.56210641  1
  Zn  Zn135  1  0.81502255  0.06135643  0.06246268  1
  Zn  Zn136  1  0.81753810  0.06048662  0.56058257  1
  Zn  Zn137  1  0.81350258  0.56192701  0.06526273  1
  Zn  Zn138  1  0.80818481  0.55979870  0.56325379  1
  Zn  Zn139  1  0.44732468  0.44627953  0.19551505  1
  Zn  Zn140  1  0.43190718  0.43091338  0.69025127  1
  Zn  Zn141  1  0.43015658  0.94129430  0.17712747  1
  Zn  Zn142  1  0.43502145  0.93934497  0.67734070  1
  Zn  Zn143  1  0.93059672  0.44528305  0.17958926  1
  Zn  Zn144  1  0.93929989  0.43677312  0.68974247  1
  Zn  Zn145  1  0.93831666  0.93650046  0.18787833  1
  Zn  Zn146  1  0.93372481  0.93384673  0.68810564  1
  Zn  Zn147  1  0.06405386  0.05800579  0.31178362  1
  Zn  Zn148  1  0.07175816  0.06164241  0.81322006  1
  Zn  Zn149  1  0.06318886  0.56251215  0.30790286  1
  Zn  Zn150  1  0.06190119  0.56261172  0.81158171  1
  Zn  Zn151  1  0.56159570  0.06232527  0.31705198  1
  Zn  Zn152  1  0.57038771  0.06148313  0.81276455  1
  Zn  Zn153  1  0.56218100  0.57568323  0.31905792  1
  Zn  Zn154  1  0.55989725  0.56281965  0.81457417  1
  Zn  Zn155  1  0.44219957  0.18546476  0.43690982  1
  Zn  Zn156  1  0.43985795  0.19055535  0.96229021  1
  Zn  Zn157  1  0.43972990  0.68183844  0.44645763  1
  Zn  Zn158  1  0.43167756  0.69346179  0.93171640  1
  Zn  Zn159  1  0.94406547  0.18580997  0.43656495  1
  Zn  Zn160  1  0.93891597  0.18849724  0.94108297  1
  Zn  Zn161  1  0.93168651  0.68276568  0.42882836  1
  Zn  Zn162  1  0.93517062  0.68911252  0.93828308  1
  Zn  Zn163  1  0.06107792  0.31784929  0.06023321  1
  Zn  Zn164  1  0.06478943  0.30888483  0.55831738  1
  Zn  Zn165  1  0.06698688  0.80907198  0.05902670  1
  Zn  Zn166  1  0.06149564  0.80977759  0.56168624  1
  Zn  Zn167  1  0.56394084  0.31766181  0.06394071  1
  Zn  Zn168  1  0.56190951  0.31003800  0.56100917  1
  Zn  Zn169  1  0.56535559  0.81822930  0.06204725  1
  Zn  Zn170  1  0.56612453  0.80981936  0.56104314  1
  O  O171  1  0.12053733  0.12591181  0.11166166  1
  O  O172  1  0.11731830  0.13118150  0.61386417  1
  O  O173  1  0.12957104  0.60112101  0.12263465  1
  O  O174  1  0.12000594  0.61730837  0.61812713  1
  O  O175  1  0.62651902  0.11701581  0.12090255  1
  O  O176  1  0.61786236  0.13334005  0.61316673  1
  O  O177  1  0.62627444  0.61769253  0.11546136  1
  O  O178  1  0.62571776  0.62103757  0.61886728  1
  O  O179  1  0.38641175  0.39162214  0.37559135  1
  O  O180  1  0.37964241  0.38329592  0.88233131  1
  O  O181  1  0.38364331  0.86318636  0.35745637  1
  O  O182  1  0.37978978  0.86272636  0.87951191  1
  O  O183  1  0.87951311  0.38008710  0.38309702  1
  O  O184  1  0.88221068  0.38391110  0.87356834  1
  O  O185  1  0.88359844  0.87916666  0.37435448  1
  O  O186  1  0.88225765  0.87838954  0.88008397  1
  O  O187  1  0.25538274  0.00223136  0.36528981  1
  O  O188  1  0.25818639  0.00462798  0.86907086  1
  O  O189  1  0.25770149  0.50602728  0.37101035  1
  O  O190  1  0.25093527  0.50362301  0.86847824  1
  O  O191  1  0.75818919  0.00262895  0.37014677  1
  O  O192  1  0.75584323  0.00795999  0.86503718  1
  O  O193  1  0.73920920  0.48560536  0.36495882  1
  O  O194  1  0.75634125  0.50448951  0.87121443  1
  O  O195  1  0.24293439  0.49564496  0.13463217  1
  O  O196  1  0.24168755  0.49352112  0.63000553  1
  O  O197  1  0.25547003  0.98998026  0.13298801  1
  O  O198  1  0.25103827  0.98498543  0.61848347  1
  O  O199  1  0.73599562  0.49010348  0.11681141  1
  O  O200  1  0.73996684  0.49671419  0.63613986  1
  O  O201  1  0.73967908  0.99387362  0.12891938  1
  O  O202  1  0.76147696  0.99322904  0.63772594  1
  O  O203  1  -0.00611779  0.36616281  0.24478996  1
  O  O204  1  -0.00138251  0.36626843  0.76152950  1
  O  O205  1  0.00415234  0.86453036  0.25080232  1
  O  O206  1  0.00098013  0.87474229  0.76205354  1
  O  O207  1  0.50092660  0.36874090  0.26389171  1
  O  O208  1  0.50569139  0.38027480  0.76456856  1
  O  O209  1  0.50599516  0.87435783  0.24596933  1
  O  O210  1  0.50859097  0.87617397  0.74463559  1
  O  O211  1  0.49192612  0.13390722  0.25342608  1
  O  O212  1  0.50099731  0.12753710  0.74382550  1
  O  O213  1  0.48656652  0.62676904  0.25059851  1
  O  O214  1  0.48329444  0.62666717  0.75673968  1
  O  O215  1  1.00534518  0.12494478  0.23515226  1
  O  O216  1  0.99920824  0.13003610  0.74491585  1
  O  O217  1  1.00493026  0.63788376  0.24574645  1
  O  O218  1  0.99170836  0.62462945  0.74238165  1
  O  O219  1  0.36594550  0.26013524  0.00821347  1
  O  O220  1  0.37245257  0.26361572  0.48102023  1
  O  O221  1  0.36202435  0.74906407  0.00618352  1
  O  O222  1  0.36542323  0.74212231  0.51117503  1
  O  O223  1  0.88112591  0.25470158  0.00665972  1
  O  O224  1  0.88013547  0.25621054  0.50735498  1
  O  O225  1  0.85948718  0.75705609  -0.00689016  1
  O  O226  1  0.87698764  0.74661949  0.51014732  1
  O  O227  1  0.11565318  0.23565599  0.48305393  1
  O  O228  1  0.13305402  0.24520269  0.99612297  1
  O  O229  1  0.13055622  0.73488121  0.50509834  1
  O  O230  1  0.13647276  0.75070168  0.98688054  1
  O  O231  1  0.62932428  0.24490594  0.48822077  1
  O  O232  1  0.61628984  0.23570801  0.99888461  1
  O  O233  1  0.62785611  0.74294426  0.49065936  1
  O  O234  1  0.63178110  0.74954907  0.99287153  1
  O  O235  1  0.50848072  0.25170196  0.14220755  1
  O  O236  1  0.49316309  0.23854746  0.61782848  1
  O  O237  1  0.48562582  0.75535955  0.11459923  1
  O  O238  1  0.48340453  0.75394443  0.62186087  1
  O  O239  1  1.00557589  0.24177787  0.13021555  1
  O  O240  1  0.99573221  0.24444995  0.63228114  1
  O  O241  1  0.99867767  0.75209849  0.13092986  1
  O  O242  1  0.99103759  0.74275980  0.62769153  1
  O  O243  1  0.00783291  0.25174391  0.36322034  1
  O  O244  1  0.00763544  0.25577560  0.86862977  1
  O  O245  1  -0.00375434  0.75831529  0.36421728  1
  O  O246  1  0.00708276  0.75740177  0.87582522  1
  O  O247  1  0.51084168  0.25935115  0.36825895  1
  O  O248  1  0.49578944  0.25225623  0.86872387  1
  O  O249  1  0.50361979  0.75177812  0.37381139  1
  O  O250  1  0.51298833  0.75176626  0.87364591  1
  O  O251  1  0.24447415  0.11720422  0.48748558  1
  O  O252  1  0.24783304  0.13547406  0.99920154  1
  O  O253  1  0.24167347  0.62823349  0.49145352  1
  O  O254  1  0.25415621  0.63168938  0.98816316  1
  O  O255  1  0.74444996  0.12476793  0.49599277  1
  O  O256  1  0.74269258  0.11630679  0.99093612  1
  O  O257  1  0.73199582  0.61658383  0.49974476  1
  O  O258  1  0.74446949  0.63369904  0.99501860  1
  O  O259  1  0.25652070  0.36398466  -0.00146079  1
  O  O260  1  0.25141800  0.38201104  0.51357462  1
  O  O261  1  0.24823609  0.86823376  0.00482539  1
  O  O262  1  0.24177682  0.86496207  0.50772753  1
  O  O263  1  0.74675539  0.37306741  0.00631337  1
  O  O264  1  0.76535294  0.36973277  0.50798398  1
  O  O265  1  0.75058897  0.87113885  0.00519544  1
  O  O266  1  0.75038150  0.88314659  0.51482470  1
  O  O267  1  0.12980805  0.49248921  0.24434028  1
  O  O268  1  0.12974515  0.50432648  0.73602079  1
  O  O269  1  0.13578828  0.98888885  0.25002975  1
  O  O270  1  0.14436268  0.99741276  0.75412693  1
  O  O271  1  0.62387069  0.50245667  0.24506614  1
  O  O272  1  0.62808605  0.49343329  0.74880055  1
  O  O273  1  0.62829916  0.99285084  0.24584061  1
  O  O274  1  0.63663970  0.99259956  0.75019409  1
  O  O275  1  0.36755139  0.00552766  0.25258153  1
  O  O276  1  0.35471772  -0.00663447  0.73984469  1
  O  O277  1  0.37135463  0.51055266  0.25694335  1
  O  O278  1  0.36613774  0.50575367  0.75495744  1
  O  O279  1  0.87000419  -0.00053053  0.25973328  1
  O  O280  1  0.87083744  0.00579196  0.75705351  1
  O  O281  1  0.87539240  0.51232536  0.25222149  1
  O  O282  1  0.87016831  0.50557871  0.75944186  1
  O  O283  1  0.12403031  0.35930386  0.38290874  1
  O  O284  1  0.11926263  0.36109964  0.87811193  1
  O  O285  1  0.11647787  0.87533095  0.36080459  1
  O  O286  1  0.11686797  0.86656006  0.87299156  1
  O  O287  1  0.62763383  0.37466486  0.36994234  1
  O  O288  1  0.61496475  0.37113515  0.87070006  1
  O  O289  1  0.62852233  0.86502315  0.36512339  1
  O  O290  1  0.62341112  0.87046489  0.86192782  1
  O  O291  1  0.37762541  0.12586564  0.14180480  1
  O  O292  1  0.38281479  0.13251967  0.61648411  1
  O  O293  1  0.36556757  0.63776709  0.13641375  1
  O  O294  1  0.36646480  0.63675759  0.63170444  1
  O  O295  1  0.88706486  0.12296447  0.12658458  1
  O  O296  1  0.88583145  0.13176179  0.62894418  1
  O  O297  1  0.87363887  0.62073930  0.13991174  1
  O  O298  1  0.87730811  0.62854183  0.62934430  1
  O  O299  1  0.25190779  0.25212030  0.12787803  1
  O  O300  1  0.24691624  0.26381810  0.62916973  1
  O  O301  1  0.25188362  0.75489591  0.11572430  1
  O  O302  1  0.25429545  0.75421013  0.61589768  1
  O  O303  1  0.74670749  0.26414065  0.12823373  1
  O  O304  1  0.76800330  0.24938020  0.62679298  1
  O  O305  1  0.74015859  0.76118511  0.11403133  1
  O  O306  1  0.76005859  0.76016318  0.63051091  1
  O  O307  1  0.23224394  0.23507372  0.36800384  1
  O  O308  1  0.24434372  0.24834789  0.88458131  1
  O  O309  1  0.25037860  0.74104774  0.39153359  1
  O  O310  1  0.24311244  0.74178815  0.87775212  1
  O  O311  1  0.74693654  0.24308090  0.37544310  1
  O  O312  1  0.75260453  0.23513629  0.86869786  1
  O  O313  1  0.74503911  0.75651729  0.37699179  1
  O  O314  1  0.73816785  0.74847009  0.87987921  1
  O  O315  1  0.00928367  0.11707115  0.00808275  1
  O  O316  1  0.00702314  0.11976174  0.50911293  1
  O  O317  1  -0.00431139  0.61091064  -0.00727794  1
  O  O318  1  0.00485978  0.61879945  0.50311155  1
  O  O319  1  0.50961819  0.11452645  0.00839495  1
  O  O320  1  0.50869561  0.11979322  0.50433357  1
  O  O321  1  0.49943025  0.61467230  -0.00795501  1
  O  O322  1  0.52247775  0.62144079  0.49409146  1
  O  O323  1  0.50597557  0.38181285  0.48652738  1
  O  O324  1  0.49464953  0.38148261  0.99154194  1
  O  O325  1  0.50924789  0.89130586  0.50539772  1
  O  O326  1  0.50333458  0.89306123  0.99930138  1
  O  O327  1  0.99149646  0.38234900  0.50075265  1
  O  O328  1  0.99773553  0.38486544  0.98475574  1
  O  O329  1  0.99915268  0.87282596  0.48915356  1
  O  O330  1  0.99814923  0.87992079  0.99245327  1
  O  O331  1  0.49507871  0.49683696  0.37350651  1
  O  O332  1  0.49268952  0.49348101  0.88423526  1
  O  O333  1  0.49713506  1.00404081  0.39029695  1
  O  O334  1  0.50613586  1.00219016  0.88917186  1
  O  O335  1  1.00582980  0.49731685  0.38739160  1
  O  O336  1  0.99404278  0.49361199  0.87625549  1
  O  O337  1  0.99325288  0.98732203  0.37062751  1
  O  O338  1  0.99833401  0.99340270  0.88366382  1
  O  O339  1  -0.00160301  0.00352362  0.11254793  1
  O  O340  1  -0.00380399  0.00924780  0.62576918  1
  O  O341  1  0.00529600  0.49770288  0.10875061  1
  O  O342  1  0.00514560  0.50333903  0.61615187  1
  O  O343  1  0.51234284  0.00153179  0.12010565  1
  O  O344  1  0.49391042  0.01361594  0.60993618  1
  O  O345  1  0.51357958  0.49280313  0.11518933  1
  O  O346  1  0.50922635  0.49624781  0.63067338  1
  O  O347  1  0.26769385  0.35958750  0.25286130  1
  O  O348  1  0.25039613  0.38889511  0.74022072  1
  O  O349  1  0.23936117  0.87805575  0.24065466  1
  O  O350  1  0.24527379  0.88189625  0.73634496  1
  O  O351  1  0.74791387  0.37497102  0.24447642  1
  O  O352  1  0.74076964  0.38100646  0.75180766  1
  O  O353  1  0.74447104  0.87824563  0.24261979  1
  O  O354  1  0.74567010  0.88305752  0.74306113  1
  O  O355  1  0.25306952  0.11487213  0.25563840  1
  O  O356  1  0.25114744  0.11187164  0.75537747  1
  O  O357  1  0.25756190  0.63792215  0.26398023  1
  O  O358  1  0.25661531  0.61399542  0.75397549  1
  O  O359  1  0.75282303  0.11637792  0.25715556  1
  O  O360  1  0.75686759  0.11782483  0.75426164  1
  O  O361  1  0.75729545  0.62920972  0.24737154  1
  O  O362  1  0.75339578  0.61908902  0.75692204  1
  O  O363  1  0.36454123  0.12678074  0.36390472  1
  O  O364  1  0.38655634  0.13928865  0.86782208  1
  O  O365  1  0.37016128  0.61858052  0.37073541  1
  O  O366  1  0.36242340  0.62100615  0.86658750  1
  O  O367  1  0.87342825  0.11601109  0.37339614  1
  O  O368  1  0.87254734  0.11888771  0.87058965  1
  O  O369  1  0.87811536  0.61908544  0.35516516  1
  O  O370  1  0.86753440  0.61955310  0.86943901  1
  O  O371  1  0.12368791  0.39879122  0.10864226  1
  O  O372  1  0.13355083  0.38202066  0.61925976  1
  O  O373  1  0.13549057  0.87291306  0.12864806  1
  O  O374  1  0.13742531  0.86800314  0.62653581  1
  O  O375  1  0.63696367  0.38312102  0.12461764  1
  O  O376  1  0.62487567  0.38147567  0.63358333  1
  O  O377  1  0.63273313  0.88121363  0.13523430  1
  O  O378  1  0.63496688  0.86693786  0.63595748  1
  O  O379  1  0.11454653  0.24521346  0.26262549  1
  O  O380  1  0.11647210  0.24280717  0.75852580  1
  O  O381  1  0.11484908  0.75921497  0.24150040  1
  O  O382  1  0.12321401  0.75126632  0.76111317  1
  O  O383  1  0.61903882  0.24424848  0.26496397  1
  O  O384  1  0.62893624  0.26238174  0.75171947  1
  O  O385  1  0.62701338  0.75618078  0.26468053  1
  O  O386  1  0.62184953  0.75696134  0.75626970  1
  O  O387  1  0.37996102  0.24727480  0.25300630  1
  O  O388  1  0.37583394  0.25276551  0.74932222  1
  O  O389  1  0.38217940  0.75099583  0.24704030  1
  O  O390  1  0.37297850  0.74173146  0.73562544  1
  O  O391  1  0.88797017  0.24380902  0.24210887  1
  O  O392  1  0.88860665  0.24410851  0.74457877  1
  O  O393  1  0.88743232  0.73794232  0.24622876  1
  O  O394  1  0.87606571  0.74079916  0.74340765  1
  O  O395  1  0.38012593  0.50256071  0.49247412  1
  O  O396  1  0.37917899  0.49627898  1.00034368  1
  O  O397  1  0.38746148  0.99500074  0.49189129  1
  O  O398  1  0.39221635  1.00246129  1.00826194  1
  O  O399  1  0.88140511  0.49413269  0.49692914  1
  O  O400  1  0.88006488  0.49860462  0.98749211  1
  O  O401  1  0.88016964  0.99560658  0.48659076  1
  O  O402  1  0.88401278  0.99302293  0.99357970  1
  O  O403  1  0.11883556  0.00910069  -0.00750558  1
  O  O404  1  0.12111899  0.01266744  0.49165353  1
  O  O405  1  0.11193389  0.50594727  -0.00817884  1
  O  O406  1  0.11858367  0.50813324  0.50921811  1
  O  O407  1  0.61921257  0.00798498  0.00809425  1
  O  O408  1  0.61812809  0.01216537  0.49468243  1
  O  O409  1  0.61569496  0.50792519  0.00483997  1
  O  O410  1  0.62188739  0.50841195  0.51625793  1
  O  O411  1  0.37689479  0.37283789  0.13120580  1
  O  O412  1  0.36113586  0.37083480  0.62281569  1
  O  O413  1  0.36163132  0.86589804  0.12002024  1
  O  O414  1  0.36010501  0.85947192  0.62523645  1
  O  O415  1  0.85428663  0.37962528  0.12036993  1
  O  O416  1  0.87803449  0.36632789  0.62025082  1
  O  O417  1  0.86094135  0.88158618  0.11882719  1
  O  O418  1  0.86911057  0.86412429  0.62269513  1
  O  O419  1  0.13040711  0.12808703  0.37857302  1
  O  O420  1  0.12523322  0.13716637  0.88811026  1
  O  O421  1  0.13379653  0.61737805  0.38332588  1
  O  O422  1  0.13650625  0.63085761  0.86750681  1
  O  O423  1  0.63241309  0.13235409  0.38295395  1
  O  O424  1  0.63528611  0.12789848  0.88311496  1
  O  O425  1  0.63114184  0.64064838  0.38190107  1
  O  O426  1  0.62930337  0.63285016  0.88093405  1
