# generated using pymatgen
data_V85Zn86O256
_symmetry_space_group_name_H-M   'P 1'
_cell_length_a   16.92710977
_cell_length_b   16.93129194
_cell_length_c   16.93654062
_cell_angle_alpha   90.01332938
_cell_angle_beta   90.01851104
_cell_angle_gamma   89.96743165
_symmetry_Int_Tables_number   1
_chemical_formula_structural   V85Zn86O256
_chemical_formula_sum   'V85 Zn86 O256'
_cell_volume   4853.97474342
_cell_formula_units_Z   1
loop_
 _symmetry_equiv_pos_site_id
 _symmetry_equiv_pos_as_xyz
  1  'x, y, z'
loop_
 _atom_site_type_symbol
 _atom_site_label
 _atom_site_symmetry_multiplicity
 _atom_site_fract_x
 _atom_site_fract_y
 _atom_site_fract_z
 _atom_site_occupancy
  V  V0  1  0.75457079  0.86340124  0.12417112  1
  V  V1  1  -0.01149082  0.74834856  0.25122989  1
  V  V2  1  0.12463113  0.62534071  0.50000101  1
  V  V3  1  0.25130943  0.11940557  0.36989054  1
  V  V4  1  0.50259297  0.50389809  0.49972402  1
  V  V5  1  0.25191309  0.49507184  0.24074428  1
  V  V6  1  0.12691256  0.86945727  0.25230298  1
  V  V7  1  -0.00282249  -0.00364282  0.00219643  1
  V  V8  1  0.24960766  0.74854746  -0.00102231  1
  V  V9  1  0.37427955  0.12597685  0.24218117  1
  V  V10  1  0.37540614  0.49652312  0.37413745  1
  V  V11  1  0.74927991  0.37709796  0.62800823  1
  V  V12  1  0.75705064  0.38653581  0.12187631  1
  V  V13  1  0.63183086  0.73949387  0.37986656  1
  V  V14  1  0.37374861  -0.00286620  0.36612263  1
  V  V15  1  0.87013451  0.60656339  0.25531675  1
  V  V16  1  -0.00640538  0.50283808  0.49993853  1
  V  V17  1  -0.00033411  0.13153182  0.63187209  1
  V  V18  1  0.25534224  0.86760515  0.62534184  1
  V  V19  1  0.63296011  0.87267476  0.74422175  1
  V  V20  1  0.37881228  0.74310377  0.12462652  1
  V  V21  1  0.25028472  0.62392583  0.37416444  1
  V  V22  1  0.25360420  -0.00042474  0.75038834  1
  V  V23  1  0.60714580  0.25720914  0.87190802  1
  V  V24  1  0.49764010  0.63262128  0.62017473  1
  V  V25  1  0.76106723  0.13038451  0.37048887  1
  V  V26  1  0.87304305  0.49713558  0.88699678  1
  V  V27  1  0.75424520  0.25749161  -0.00600349  1
  V  V28  1  0.37462145  0.13976292  0.74729929  1
  V  V29  1  0.86741217  0.75502531  0.62869342  1
  V  V30  1  0.61157654  0.51162183  0.11908970  1
  V  V31  1  0.87226805  0.86075562  0.00252666  1
  V  V32  1  0.37471880  0.87352199  -0.00711880  1
  V  V33  1  0.12633103  0.12275359  0.49839588  1
  V  V34  1  0.38420633  -0.00027906  0.87122059  1
  V  V35  1  0.12390609  0.87246212  0.75053084  1
  V  V36  1  -0.01484261  0.24540751  0.25276444  1
  V  V37  1  0.49793395  0.75910191  0.74447257  1
  V  V38  1  0.11788434  0.36929376  0.75031479  1
  V  V39  1  0.12497311  0.61679305  0.00025945  1
  V  V40  1  -0.00382266  0.62735122  0.12517665  1
  V  V41  1  0.12721605  0.24974292  0.37393756  1
  V  V42  1  -0.00304705  0.87075292  0.87034188  1
  V  V43  1  0.12719430  0.37320254  0.24308148  1
  V  V44  1  0.61011087  0.37592430  0.75386684  1
  V  V45  1  0.37493784  0.63129349  0.74618313  1
  V  V46  1  0.37651213  0.86662427  0.50223235  1
  V  V47  1  0.25487112  0.49775256  0.74933936  1
  V  V48  1  0.25485602  0.36641960  0.62379252  1
  V  V49  1  0.12682195  -0.00225047  0.62501241  1
  V  V50  1  0.12194611  0.24509278  0.87334161  1
  V  V51  1  0.12364020  0.49925934  0.62565628  1
  V  V52  1  0.87208947  0.00284824  0.87375925  1
  V  V53  1  0.87290777  0.24469137  0.12243089  1
  V  V54  1  0.62955496  -0.00009147  0.62452010  1
  V  V55  1  0.62718996  0.00501202  0.12549858  1
  V  V56  1  0.62321141  0.13021573  -0.00194064  1
  V  V57  1  0.62476877  0.50858207  0.62545681  1
  V  V58  1  0.25061999  0.25471530  0.02010352  1
  V  V59  1  0.55707602  0.81654301  0.91921835  1
  V  V60  1  0.49832156  0.25170699  0.23726406  1
  V  V61  1  -0.00051764  0.63284595  0.63061711  1
  V  V62  1  0.87824110  0.62914248  0.75440238  1
  V  V63  1  0.74113554  0.64054932  0.88835106  1
  V  V64  1  -0.00306824  0.37222869  0.88191261  1
  V  V65  1  0.74970228  0.24980260  0.50188363  1
  V  V66  1  0.25215312  0.62240529  0.87232851  1
  V  V67  1  0.11871007  0.74764496  0.87068069  1
  V  V68  1  0.49934138  0.37252617  0.37343169  1
  V  V69  1  0.49626563  0.13876933  0.62739184  1
  V  V70  1  -0.00135160  -0.00267879  0.49934568  1
  V  V71  1  0.12367670  0.12007636  0.00253703  1
  V  V72  1  0.25238387  0.87667461  0.12935082  1
  V  V73  1  0.74904581  0.50158974  0.75662830  1
  V  V74  1  0.86464423  0.87549593  0.50203093  1
  V  V75  1  0.63029796  0.38228197  0.24606800  1
  V  V76  1  0.50198706  0.74193040  0.24971321  1
  V  V77  1  -0.00099699  0.38003113  0.37499404  1
  V  V78  1  0.49975763  0.00267415  0.50087821  1
  V  V79  1  0.87290589  0.37817676  0.49690191  1
  V  V80  1  0.62629673  0.24816475  0.37238661  1
  V  V81  1  0.49356770  0.50630524  -0.02340212  1
  V  V82  1  0.50543230  0.87517353  0.37265396  1
  V  V83  1  0.76001186  0.00775592  0.24648235  1
  V  V84  1  0.12415685  -0.00500682  0.13067900  1
  Zn  Zn85  1  0.25913357  0.24418828  0.50140316  1
  Zn  Zn86  1  -0.00808536  0.11884609  0.13334018  1
  Zn  Zn87  1  0.37869256  0.61992161  0.24519512  1
  Zn  Zn88  1  0.75495548  0.60214608  0.38316811  1
  Zn  Zn89  1  0.88249703  0.25740333  0.63140735  1
  Zn  Zn90  1  0.62460521  0.12688761  0.50067314  1
  Zn  Zn91  1  0.87329578  0.13539669  0.75398439  1
  Zn  Zn92  1  0.87725195  0.00123845  0.37226496  1
  Zn  Zn93  1  -0.00061263  0.87197246  0.37716455  1
  Zn  Zn94  1  -0.00164318  0.49621188  0.00322092  1
  Zn  Zn95  1  0.38166139  0.36722665  0.50756184  1
  Zn  Zn96  1  0.37912000  0.37684290  0.00158316  1
  Zn  Zn97  1  0.49623504  0.12580337  0.12120898  1
  Zn  Zn98  1  0.50408846  -0.00059955  -0.00351181  1
  Zn  Zn99  1  0.25063694  0.12358143  0.87751863  1
  Zn  Zn100  1  0.74476732  0.74575281  0.50610353  1
  Zn  Zn101  1  0.12802003  0.49514527  0.12048042  1
  Zn  Zn102  1  0.12423138  0.74877452  0.37666675  1
  Zn  Zn103  1  0.25311875  0.74497041  0.50311968  1
  Zn  Zn104  1  0.75431572  0.00141700  0.74252990  1
  Zn  Zn105  1  0.74831807  0.12949443  0.86936300  1
  Zn  Zn106  1  0.62978579  0.87721334  0.25180359  1
  Zn  Zn107  1  0.18010211  0.17963041  0.19377872  1
  Zn  Zn108  1  0.18587785  0.18624862  0.69008781  1
  Zn  Zn109  1  0.18771199  0.68667346  0.18757767  1
  Zn  Zn110  1  0.18556741  0.68900935  0.68730263  1
  Zn  Zn111  1  0.69024279  0.19242795  0.18600463  1
  Zn  Zn112  1  0.68638674  0.18719148  0.69027684  1
  Zn  Zn113  1  0.68982192  0.68532413  0.19616951  1
  Zn  Zn114  1  0.68731370  0.68721996  0.69525790  1
  Zn  Zn115  1  0.31340178  0.31024268  0.30863709  1
  Zn  Zn116  1  0.31019714  0.31174742  0.82411839  1
  Zn  Zn117  1  0.31346145  0.80987839  0.31220109  1
  Zn  Zn118  1  0.31383427  0.80946757  0.81174247  1
  Zn  Zn119  1  0.81115624  0.42646302  0.30999240  1
  Zn  Zn120  1  0.81301341  0.31343979  0.81064252  1
  Zn  Zn121  1  0.81385052  0.81747480  0.31220777  1
  Zn  Zn122  1  0.81343812  0.81335190  0.81035871  1
  Zn  Zn123  1  0.18652611  0.43836332  0.43739722  1
  Zn  Zn124  1  0.21605658  0.42124508  0.92610333  1
  Zn  Zn125  1  0.18947398  0.93617226  0.43646247  1
  Zn  Zn126  1  0.18982593  0.93789459  0.93687428  1
  Zn  Zn127  1  0.68087796  0.43595002  0.44121912  1
  Zn  Zn128  1  0.68156163  0.44095775  0.94094834  1
  Zn  Zn129  1  0.68873401  0.94073691  0.43587853  1
  Zn  Zn130  1  0.69349916  0.94041350  0.94156613  1
  Zn  Zn131  1  0.30954008  0.05815611  0.06060177  1
  Zn  Zn132  1  0.31578935  0.05976629  0.56054640  1
  Zn  Zn133  1  0.31636837  0.55804391  0.06040514  1
  Zn  Zn134  1  0.31511858  0.55854740  0.56266000  1
  Zn  Zn135  1  0.80974959  0.06464494  0.05654694  1
  Zn  Zn136  1  0.81422353  0.06611586  0.56089085  1
  Zn  Zn137  1  0.81115797  0.57068666  0.06563380  1
  Zn  Zn138  1  0.81048384  0.56707126  0.56339273  1
  Zn  Zn139  1  0.43382052  0.42995463  0.17662108  1
  Zn  Zn140  1  0.43443661  0.44280762  0.68930603  1
  Zn  Zn141  1  0.44152654  0.93478621  0.18536551  1
  Zn  Zn142  1  0.44025317  0.94096632  0.68520717  1
  Zn  Zn143  1  0.94388310  0.43418562  0.17963240  1
  Zn  Zn144  1  0.93612894  0.44003932  0.69068928  1
  Zn  Zn145  1  0.93638521  0.93289267  0.18837709  1
  Zn  Zn146  1  0.93780998  0.93925735  0.68740580  1
  Zn  Zn147  1  0.06111093  0.06038722  0.31129044  1
  Zn  Zn148  1  0.06096854  0.05773228  0.81344783  1
  Zn  Zn149  1  0.06325517  0.56126467  0.31106624  1
  Zn  Zn150  1  0.06232814  0.55651641  0.81336401  1
  Zn  Zn151  1  0.56521324  0.06509469  0.30928827  1
  Zn  Zn152  1  0.56278252  0.06603034  0.80822535  1
  Zn  Zn153  1  0.56605849  0.56044724  0.31037689  1
  Zn  Zn154  1  0.56368516  0.57082376  0.81187777  1
  Zn  Zn155  1  0.43702691  0.18834698  0.43482541  1
  Zn  Zn156  1  0.43243509  0.18721336  0.93909968  1
  Zn  Zn157  1  0.43935669  0.68604458  0.43380609  1
  Zn  Zn158  1  0.43608855  0.67452969  0.93862248  1
  Zn  Zn159  1  0.93837349  0.19107634  0.44268165  1
  Zn  Zn160  1  0.93910435  0.18746808  0.94049602  1
  Zn  Zn161  1  0.93252126  0.68891071  0.43665789  1
  Zn  Zn162  1  0.93653968  0.68362161  0.93652071  1
  Zn  Zn163  1  0.06172261  0.30733204  0.06131259  1
  Zn  Zn164  1  0.06768110  0.31231581  0.55907673  1
  Zn  Zn165  1  0.06050034  0.80681453  0.06119391  1
  Zn  Zn166  1  0.06128037  0.81096597  0.56172979  1
  Zn  Zn167  1  0.56097804  0.32325309  0.05747596  1
  Zn  Zn168  1  0.56502640  0.31730510  0.56251254  1
  Zn  Zn169  1  0.57106125  0.80812450  0.08018689  1
  Zn  Zn170  1  0.56446078  0.81433789  0.56162881  1
  O  O171  1  0.12115947  0.10954911  0.12161832  1
  O  O172  1  0.11846930  0.11839796  0.61965810  1
  O  O173  1  0.12062418  0.62412644  0.11511498  1
  O  O174  1  0.11791623  0.62075803  0.62111537  1
  O  O175  1  0.62541623  0.12124272  0.11617076  1
  O  O176  1  0.61129952  0.12023286  0.62426604  1
  O  O177  1  0.63373531  0.60812614  0.13366650  1
  O  O178  1  0.61609784  0.61504354  0.63348365  1
  O  O179  1  0.38000785  0.38605064  0.37243674  1
  O  O180  1  0.32607021  0.38894549  0.89914798  1
  O  O181  1  0.38459658  0.87959298  0.37861888  1
  O  O182  1  0.36959384  0.88036149  0.88576343  1
  O  O183  1  0.88376270  0.37538752  0.38867673  1
  O  O184  1  0.88550402  0.38478758  0.86970235  1
  O  O185  1  0.87854786  0.87930286  0.38574433  1
  O  O186  1  0.88119107  0.87965265  0.88058990  1
  O  O187  1  0.26177959  0.00593460  0.37799851  1
  O  O188  1  0.26053739  0.00070886  0.86856756  1
  O  O189  1  0.25740894  0.50614210  0.37075911  1
  O  O190  1  0.23483898  0.51742685  0.86208193  1
  O  O191  1  0.74999859  0.01175231  0.36561181  1
  O  O192  1  0.76359446  0.00288674  0.87613797  1
  O  O193  1  0.74249136  0.49103395  0.36917285  1
  O  O194  1  0.75537523  0.50268643  0.87090180  1
  O  O195  1  0.24752288  0.50607127  0.13767651  1
  O  O196  1  0.24253968  0.49310154  0.63110353  1
  O  O197  1  0.24088278  0.98393753  0.12010480  1
  O  O198  1  0.24559906  0.99064879  0.62912150  1
  O  O199  1  0.74519029  0.48851453  0.11790711  1
  O  O200  1  0.74195746  0.49966390  0.63325966  1
  O  O201  1  0.74311784  0.99970684  0.12934349  1
  O  O202  1  0.73372862  1.00812070  0.62021616  1
  O  O203  1  0.00549472  0.36889646  0.25983470  1
  O  O204  1  0.01272255  0.38325716  0.75885417  1
  O  O205  1  0.00658755  0.86466369  0.25056558  1
  O  O206  1  0.00619834  0.87990454  0.76337890  1
  O  O207  1  0.50696936  0.36857008  0.25478288  1
  O  O208  1  0.51078499  0.37987330  0.74391991  1
  O  O209  1  0.50265543  0.86636402  0.25868131  1
  O  O210  1  0.50414950  0.86445055  0.74489995  1
  O  O211  1  0.49324774  0.13310669  0.24674784  1
  O  O212  1  0.49105034  0.12465336  0.73540872  1
  O  O213  1  0.49709134  0.63770806  0.25752845  1
  O  O214  1  0.49269139  0.63593002  0.74321224  1
  O  O215  1  1.00440833  0.13778964  0.24982905  1
  O  O216  1  1.00261044  0.11793683  0.73369418  1
  O  O217  1  0.99431762  0.62808798  0.24454091  1
  O  O218  1  0.99087454  0.61705799  0.74253686  1
  O  O219  1  0.35321030  0.24611321  -0.00370834  1
  O  O220  1  0.37079566  0.25641926  0.49149154  1
  O  O221  1  0.37193435  0.75506539  0.00414872  1
  O  O222  1  0.37527871  0.76302208  0.49387895  1
  O  O223  1  0.86518269  0.24966699  0.00652552  1
  O  O224  1  0.86731120  0.25984820  0.50663164  1
  O  O225  1  0.88033498  0.76177161  -0.00124714  1
  O  O226  1  0.87738274  0.76042142  0.51026911  1
  O  O227  1  0.12792753  0.24286633  0.48644676  1
  O  O228  1  0.12660580  0.23462440  0.99765138  1
  O  O229  1  0.12827095  0.73993806  0.49844929  1
  O  O230  1  0.13053639  0.74112164  0.99037506  1
  O  O231  1  0.63128083  0.25217329  0.49054358  1
  O  O232  1  0.62824291  0.24921701  0.98930802  1
  O  O233  1  0.62544415  0.75493384  0.48415786  1
  O  O234  1  0.61272915  0.76426420  0.98197851  1
  O  O235  1  0.50890071  0.24976829  0.13473246  1
  O  O236  1  0.50311277  0.23729512  0.61849570  1
  O  O237  1  0.49141690  0.75565125  0.13675311  1
  O  O238  1  0.50350631  0.74004878  0.62808042  1
  O  O239  1  0.98970143  0.24893265  0.13209706  1
  O  O240  1  1.00471033  0.23462780  0.61744750  1
  O  O241  1  1.00524340  0.73576385  0.13398550  1
  O  O242  1  0.99329961  0.73703559  0.62351529  1
  O  O243  1  0.00478716  0.25851155  0.37149479  1
  O  O244  1  0.01095520  0.25692871  0.88135479  1
  O  O245  1  0.00405760  0.75006999  0.36581024  1
  O  O246  1  0.00770015  0.75733038  0.87878812  1
  O  O247  1  0.50942474  0.25284674  0.36565012  1
  O  O248  1  0.50853096  0.25259607  0.87815090  1
  O  O249  1  0.50955673  0.75675148  0.37070259  1
  O  O250  1  0.49636059  0.75115547  0.86565851  1
  O  O251  1  0.24488128  0.12241907  0.48982548  1
  O  O252  1  0.23553442  0.12351719  0.99988928  1
  O  O253  1  0.24523598  0.62225191  0.49397232  1
  O  O254  1  0.24553709  0.62885199  0.99059241  1
  O  O255  1  0.74672935  0.13422227  0.49393507  1
  O  O256  1  0.73749041  0.13639381  0.99535008  1
  O  O257  1  0.76256457  0.63436216  0.49123375  1
  O  O258  1  0.75229263  0.62739223  0.98785617  1
  O  O259  1  0.22427349  0.35278690  0.01867055  1
  O  O260  1  0.24615362  0.37712774  0.51621325  1
  O  O261  1  0.25754381  0.86775223  0.00514109  1
  O  O262  1  0.25910166  0.87362995  0.50668207  1
  O  O263  1  0.74425846  0.36955351  0.01178540  1
  O  O264  1  0.75660996  0.37042386  0.50600010  1
  O  O265  1  0.75743276  0.87777615  0.01453965  1
  O  O266  1  0.76119668  0.87357738  0.49862696  1
  O  O267  1  0.13343285  0.48969763  0.25093944  1
  O  O268  1  0.13354078  0.49347812  0.74358259  1
  O  O269  1  0.11796392  0.98595850  0.23864791  1
  O  O270  1  0.13293047  0.99215765  0.74635624  1
  O  O271  1  0.62200083  0.48717019  0.24170120  1
  O  O272  1  0.63077191  0.49613908  0.74536068  1
  O  O273  1  0.63540243  1.00073423  0.24162385  1
  O  O274  1  0.62249864  0.99250744  0.74037792  1
  O  O275  1  0.38365178  0.00311229  0.26101254  1
  O  O276  1  0.37113008  0.00384522  0.75564500  1
  O  O277  1  0.36903523  0.50025644  0.25694596  1
  O  O278  1  0.36041188  0.50886579  0.74792072  1
  O  O279  1  0.86469290  0.00024666  0.25035169  1
  O  O280  1  0.87435784  0.00206454  0.75937200  1
  O  O281  1  0.87983838  0.50230288  0.25017961  1
  O  O282  1  0.86642964  0.50831844  0.75796783  1
  O  O283  1  0.11870552  0.36650874  0.37130189  1
  O  O284  1  0.12192864  0.36624335  0.86716539  1
  O  O285  1  0.12500283  0.87275097  0.36479148  1
  O  O286  1  0.11807378  0.86773965  0.87299188  1
  O  O287  1  0.61995287  0.36425507  0.36638041  1
  O  O288  1  0.62657723  0.36542005  0.86851614  1
  O  O289  1  0.61502980  0.87302954  0.37369042  1
  O  O290  1  0.62032122  0.88159168  0.86823718  1
  O  O291  1  0.37564394  0.11122738  0.13877064  1
  O  O292  1  0.38684040  0.11956136  0.63134703  1
  O  O293  1  0.36774262  0.64004467  0.12575225  1
  O  O294  1  0.38300464  0.62067920  0.63532930  1
  O  O295  1  0.87235263  0.13883040  0.12110715  1
  O  O296  1  0.89206058  0.12563413  0.62276588  1
  O  O297  1  0.88387231  0.61995538  0.14047561  1
  O  O298  1  0.88220027  0.63017420  0.63550536  1
  O  O299  1  0.24396639  0.23440585  0.11749619  1
  O  O300  1  0.24089435  0.26352600  0.62257191  1
  O  O301  1  0.25609275  0.75873752  0.11932933  1
  O  O302  1  0.24781713  0.76340841  0.62408806  1
  O  O303  1  0.75472958  0.25907503  0.11498309  1
  O  O304  1  0.74327332  0.25669259  0.61306435  1
  O  O305  1  0.74348516  0.76543285  0.13116493  1
  O  O306  1  0.76325485  0.74498636  0.62721283  1
  O  O307  1  0.24087162  0.24089029  0.37353036  1
  O  O308  1  0.23185227  0.24214297  0.88594908  1
  O  O309  1  0.25077395  0.73451563  0.37602173  1
  O  O310  1  0.24178218  0.74100121  0.87824950  1
  O  O311  1  0.74236899  0.24513777  0.38708956  1
  O  O312  1  0.74502256  0.25375209  0.88625231  1
  O  O313  1  0.73442454  0.75667210  0.37145850  1
  O  O314  1  0.75546409  0.73914106  0.87309462  1
  O  O315  1  0.00923778  0.11541713  0.00560161  1
  O  O316  1  0.00704272  0.11769679  0.50619982  1
  O  O317  1  0.00726946  0.62379535  0.00761644  1
  O  O318  1  0.00224184  0.61839840  0.50635938  1
  O  O319  1  0.50995145  0.12585899  0.00226544  1
  O  O320  1  0.49961528  0.11766457  0.50757467  1
  O  O321  1  0.50467275  0.60837559  -0.00385900  1
  O  O322  1  0.49446984  0.61818015  0.50889125  1
  O  O323  1  0.50087498  0.38388482  0.49218006  1
  O  O324  1  0.49839065  0.39582236  0.99969016  1
  O  O325  1  0.49415973  0.88204011  0.49336412  1
  O  O326  1  0.49804995  0.87136338  0.99110015  1
  O  O327  1  0.99443008  0.38084265  0.49584658  1
  O  O328  1  1.00821128  0.37821062  0.98640951  1
  O  O329  1  0.99440838  0.88369998  0.50020211  1
  O  O330  1  0.99465171  0.87792028  0.99264104  1
  O  O331  1  0.49554536  0.49681211  0.38119512  1
  O  O332  1  0.50025656  0.50263549  0.87620034  1
  O  O333  1  0.49748200  0.99414981  0.37998435  1
  O  O334  1  0.48838148  1.00351616  0.87473892  1
  O  O335  1  1.00725442  0.48767839  0.38420766  1
  O  O336  1  0.99107032  0.49283643  0.87852382  1
  O  O337  1  0.99906359  1.00003942  0.38779567  1
  O  O338  1  0.99195448  0.99095438  0.88192712  1
  O  O339  1  0.00603965  -0.00332112  0.11985217  1
  O  O340  1  0.00655126  0.00714191  0.61543351  1
  O  O341  1  0.00713437  0.51039072  0.12149908  1
  O  O342  1  0.00433383  0.50864093  0.61914125  1
  O  O343  1  0.51584016  -0.00150565  0.12158271  1
  O  O344  1  0.50709050  0.00746885  0.61533246  1
  O  O345  1  0.51139676  0.50466733  0.13222980  1
  O  O346  1  0.50430578  0.50966971  0.61931419  1
  O  O347  1  0.23914305  0.38297305  0.25875127  1
  O  O348  1  0.24025167  0.38086799  0.74046941  1
  O  O349  1  0.24178602  0.86806120  0.24103467  1
  O  O350  1  0.24723905  0.87987940  0.74338943  1
  O  O351  1  0.74275690  0.37047369  0.23298697  1
  O  O352  1  0.74350767  0.38848675  0.74612397  1
  O  O353  1  0.75182414  0.88567840  0.23882788  1
  O  O354  1  0.73705848  0.87959927  0.75317103  1
  O  O355  1  0.25717243  0.12511408  0.26180301  1
  O  O356  1  0.25693019  0.11520271  0.74838501  1
  O  O357  1  0.25111130  0.61567495  0.25857250  1
  O  O358  1  0.25507881  0.62106761  0.75172388  1
  O  O359  1  0.74665269  0.12155807  0.25869078  1
  O  O360  1  0.75226022  0.11950694  0.75267119  1
  O  O361  1  0.76877752  0.62531199  0.25524011  1
  O  O362  1  0.75846547  0.61538142  0.75630654  1
  O  O363  1  0.37024779  0.11538463  0.36591719  1
  O  O364  1  0.37305154  0.11696364  0.86545351  1
  O  O365  1  0.36904795  0.61262829  0.37440420  1
  O  O366  1  0.36288659  0.63100134  0.86000480  1
  O  O367  1  0.86395966  0.12544746  0.38172743  1
  O  O368  1  0.87689246  0.11578924  0.87533729  1
  O  O369  1  0.88138260  0.62117797  0.35847935  1
  O  O370  1  0.86926673  0.61752299  0.86891126  1
  O  O371  1  0.11470561  0.37446099  0.14063153  1
  O  O372  1  0.12898748  0.37937588  0.63179959  1
  O  O373  1  0.13183035  0.87573615  0.12962380  1
  O  O374  1  0.13080779  0.87892084  0.63039693  1
  O  O375  1  0.63445006  0.38306765  0.13022206  1
  O  O376  1  0.63017018  0.38676566  0.63262193  1
  O  O377  1  0.63880035  0.88572254  0.12767389  1
  O  O378  1  0.62045687  0.88539711  0.63260205  1
  O  O379  1  0.11762654  0.25493795  0.26010154  1
  O  O380  1  0.12663472  0.25709140  0.75947017  1
  O  O381  1  0.11797533  0.75754304  0.25068406  1
  O  O382  1  0.12839699  0.75580663  0.76267106  1
  O  O383  1  0.62007124  0.25909988  0.25454014  1
  O  O384  1  0.62822175  0.26024501  0.76434277  1
  O  O385  1  0.61873690  0.75424135  0.25981338  1
  O  O386  1  0.61514224  0.76106679  0.74621573  1
  O  O387  1  0.38587434  0.23829211  0.25602229  1
  O  O388  1  0.36338559  0.23895026  0.75574466  1
  O  O389  1  0.38282360  0.74933315  0.24186848  1
  O  O390  1  0.38299672  0.74422401  0.74749212  1
  O  O391  1  0.88542349  0.25451551  0.24201045  1
  O  O392  1  0.87287432  0.24922735  0.74293379  1
  O  O393  1  0.88601315  0.74658857  0.25251056  1
  O  O394  1  0.87517586  0.73850515  0.74498121  1
  O  O395  1  0.38540706  0.49366731  0.49341699  1
  O  O396  1  0.38897309  0.50473435  0.99594933  1
  O  O397  1  0.38545978  0.99257554  0.48907327  1
  O  O398  1  0.37951576  0.99095484  0.99272454  1
  O  O399  1  0.88712753  0.49444200  0.50629597  1
  O  O400  1  0.87521373  0.50458794  0.98970287  1
  O  O401  1  0.88235180  0.99267242  0.50142258  1
  O  O402  1  0.88030007  0.99281384  0.99387677  1
  O  O403  1  0.11907511  -0.00048569  0.00900795  1
  O  O404  1  0.11915434  0.00279563  0.50469635  1
  O  O405  1  0.12939864  0.51202342  -0.00310339  1
  O  O406  1  0.11433727  0.50485896  0.50596884  1
  O  O407  1  0.62573695  0.01149961  0.00510218  1
  O  O408  1  0.61380980  0.00143678  0.50337451  1
  O  O409  1  0.61312991  0.49888119  0.01249405  1
  O  O410  1  0.61179239  0.49700348  0.51126435  1
  O  O411  1  0.36761164  0.37227347  0.11409523  1
  O  O412  1  0.35798469  0.38015708  0.62736200  1
  O  O413  1  0.36997170  0.87004980  0.11452263  1
  O  O414  1  0.36759759  0.88326147  0.61379461  1
  O  O415  1  0.86270165  0.36805063  0.12726662  1
  O  O416  1  0.86910017  0.37848627  0.61564191  1
  O  O417  1  0.86301771  0.87735274  0.11766270  1
  O  O418  1  0.88191831  0.86510183  0.61935114  1
  O  O419  1  0.13314710  0.12835441  0.37632074  1
  O  O420  1  0.12157006  0.12692528  0.88373377  1
  O  O421  1  0.13362166  0.62233623  0.38200308  1
  O  O422  1  0.12624849  0.63239752  0.87915107  1
  O  O423  1  0.63098125  0.13709380  0.37541022  1
  O  O424  1  0.62337912  0.13908286  0.87902294  1
  O  O425  1  0.62960469  0.63713372  0.37056098  1
  O  O426  1  0.64293710  0.62702741  0.86874434  1
