# generated using pymatgen
data_V85Zn86O256
_symmetry_space_group_name_H-M   'P 1'
_cell_length_a   16.95526953
_cell_length_b   16.94669585
_cell_length_c   16.95264580
_cell_angle_alpha   90.03579023
_cell_angle_beta   90.11461221
_cell_angle_gamma   89.98439687
_symmetry_Int_Tables_number   1
_chemical_formula_structural   V85Zn86O256
_chemical_formula_sum   'V85 Zn86 O256'
_cell_volume   4871.09109645
_cell_formula_units_Z   1
loop_
 _symmetry_equiv_pos_site_id
 _symmetry_equiv_pos_as_xyz
  1  'x, y, z'
loop_
 _atom_site_type_symbol
 _atom_site_label
 _atom_site_symmetry_multiplicity
 _atom_site_fract_x
 _atom_site_fract_y
 _atom_site_fract_z
 _atom_site_occupancy
  V  V0  1  0.75090831  0.36365569  0.62387191  1
  V  V1  1  -0.00310736  0.12798212  0.62827650  1
  V  V2  1  0.62340905  0.87591945  0.24726894  1
  V  V3  1  0.87347826  0.36202466  0.50331991  1
  V  V4  1  0.75652299  0.87150448  0.62445540  1
  V  V5  1  0.87662696  0.12239283  0.25002847  1
  V  V6  1  0.12593443  0.25163543  0.87356332  1
  V  V7  1  0.01003783  0.87778098  0.37117184  1
  V  V8  1  0.12908268  0.62504468  -0.00162945  1
  V  V9  1  -0.00441481  0.25350416  0.74712417  1
  V  V10  1  0.87454539  0.87718163  0.49226874  1
  V  V11  1  0.87567063  0.37407729  0.00079161  1
  V  V12  1  0.11919683  0.86805081  0.74867360  1
  V  V13  1  0.00455494  0.37135304  0.37512867  1
  V  V14  1  0.36960455  0.62333081  0.25454194  1
  V  V15  1  0.24942357  0.12120317  0.86774961  1
  V  V16  1  0.63072585  0.62445124  -0.00873110  1
  V  V17  1  0.25283274  0.25251558  0.50042906  1
  V  V18  1  0.62776418  0.37685854  0.24878780  1
  V  V19  1  0.62377809  0.25030115  0.87469980  1
  V  V20  1  0.87414320  0.86832786  0.00514248  1
  V  V21  1  0.24989277  0.25539430  0.00597923  1
  V  V22  1  0.74927725  0.74551066  -0.00856842  1
  V  V23  1  0.50015839  0.75041148  0.24383837  1
  V  V24  1  0.61904592  0.62012426  0.49710146  1
  V  V25  1  0.50158827  0.24884922  0.24448885  1
  V  V26  1  0.25704183  0.87226463  0.63693416  1
  V  V27  1  0.62141114  0.49596456  0.61918521  1
  V  V28  1  -0.00118824  0.37690071  0.87363846  1
  V  V29  1  0.23639712  0.89415177  0.12092949  1
  V  V30  1  0.75331333  0.62434271  0.37214521  1
  V  V31  1  0.37357934  0.87469929  -0.00192926  1
  V  V32  1  0.50132463  0.24934471  0.75590646  1
  V  V33  1  0.75040980  0.24849908  0.00280358  1
  V  V34  1  0.74712578  0.00006441  0.75031636  1
  V  V35  1  0.62095693  0.00231482  0.12582135  1
  V  V36  1  0.62301608  0.85758508  0.75381288  1
  V  V37  1  0.37161167  -0.00274901  0.86732873  1
  V  V38  1  0.12231468  0.12161242  0.00039215  1
  V  V39  1  0.49945490  0.61667431  0.12029318  1
  V  V40  1  0.62250061  0.12498094  0.00477283  1
  V  V41  1  0.37152293  0.25085327  0.12857710  1
  V  V42  1  0.87721974  0.49894176  0.37193359  1
  V  V43  1  0.50030787  0.12547187  0.62421977  1
  V  V44  1  0.75166240  0.00014334  0.25492416  1
  V  V45  1  0.00101020  0.00018732  0.00311602  1
  V  V46  1  -0.00015980  0.50193755  0.50577652  1
  V  V47  1  0.31449293  0.81965598  0.45027800  1
  V  V48  1  0.62719375  0.75076710  0.37243028  1
  V  V49  1  0.37719920  0.25137659  0.62569888  1
  V  V50  1  0.75596476  0.74794338  0.50102355  1
  V  V51  1  0.13201439  0.49589012  0.12533025  1
  V  V52  1  0.88376650  0.24596637  0.12553663  1
  V  V53  1  0.24773271  0.38309299  0.63219891  1
  V  V54  1  0.62520093  -0.00138093  0.62394593  1
  V  V55  1  0.62868115  0.25127494  0.38324298  1
  V  V56  1  0.36587890  0.74656890  0.12109667  1
  V  V57  1  -0.00297254  0.86543335  0.87013911  1
  V  V58  1  0.24871292  0.61225450  0.85979000  1
  V  V59  1  0.37937561  0.38587856  0.50100427  1
  V  V60  1  0.00027459  0.49957983  0.00114050  1
  V  V61  1  0.56954183  0.41986400  0.80597046  1
  V  V62  1  0.87144329  0.50898386  0.87417100  1
  V  V63  1  -0.00688546  0.00251824  0.50264536  1
  V  V64  1  0.13671355  0.63142340  0.49601509  1
  V  V65  1  0.12909143  0.00083526  0.63521477  1
  V  V66  1  0.13223783  0.36925885  0.24654694  1
  V  V67  1  0.87364074  -0.00154312  0.87585799  1
  V  V68  1  -0.00624283  0.64545734  0.62394110  1
  V  V69  1  0.75232041  0.49984072  0.74835256  1
  V  V70  1  0.49871164  0.87971667  0.37823537  1
  V  V71  1  0.48830132  -0.00185607  0.49792949  1
  V  V72  1  0.12682818  0.12857960  0.50444019  1
  V  V73  1  0.74854744  0.12456305  0.87666963  1
  V  V74  1  0.38170797  0.11445501  0.25388627  1
  V  V75  1  0.50073320  0.38332939  0.37743230  1
  V  V76  1  -0.00381870  0.62983727  0.12925670  1
  V  V77  1  0.75272156  0.12662731  0.38032384  1
  V  V78  1  0.87486029  0.63657464  0.74607497  1
  V  V79  1  0.24944853  0.50041102  0.25939723  1
  V  V80  1  0.74913533  0.86431812  0.12820610  1
  V  V81  1  0.38570179  0.62385156  0.74929574  1
  V  V82  1  0.49802982  0.00499112  -0.00172091  1
  V  V83  1  0.87234845  0.12971843  0.74682968  1
  V  V84  1  0.38165418  0.37902502  -0.00837756  1
  Zn  Zn85  1  0.62968657  0.12756347  0.50170592  1
  Zn  Zn86  1  0.13089322  0.24965649  0.37427634  1
  Zn  Zn87  1  0.75312562  0.37516122  0.12840852  1
  Zn  Zn88  1  0.13529336  0.74924372  0.37220310  1
  Zn  Zn89  1  0.50183196  0.49622633  -0.01733452  1
  Zn  Zn90  1  0.12600900  0.50973509  0.63147132  1
  Zn  Zn91  1  0.38499044  0.75388061  0.62863943  1
  Zn  Zn92  1  0.37036874  0.12102867  0.74727745  1
  Zn  Zn93  1  0.50454495  0.63136020  0.62555307  1
  Zn  Zn94  1  0.00577312  0.24335892  0.24811004  1
  Zn  Zn95  1  0.87346856  0.63924518  0.24521899  1
  Zn  Zn96  1  0.49470162  0.86156230  0.86222336  1
  Zn  Zn97  1  0.13268308  0.38421262  0.75616364  1
  Zn  Zn98  1  0.24692984  0.74822052  -0.00468119  1
  Zn  Zn99  1  0.23314533  0.00095746  0.25925481  1
  Zn  Zn100  1  0.05002399  0.07290150  0.16337220  1
  Zn  Zn101  1  0.12242846  0.74435689  0.86815092  1
  Zn  Zn102  1  0.37507859  0.50700534  0.38068140  1
  Zn  Zn103  1  0.00455589  0.75952877  0.24733069  1
  Zn  Zn104  1  0.75365543  0.49925707  0.24768085  1
  Zn  Zn105  1  0.62833351  0.49798235  0.12304429  1
  Zn  Zn106  1  0.26824360  0.11532558  0.38519502  1
  Zn  Zn107  1  0.18927223  0.17225218  0.19452869  1
  Zn  Zn108  1  0.18659566  0.19438068  0.68793083  1
  Zn  Zn109  1  0.18273120  0.68887007  0.19118824  1
  Zn  Zn110  1  0.18554382  0.69122518  0.68277422  1
  Zn  Zn111  1  0.68989739  0.18922888  0.18880009  1
  Zn  Zn112  1  0.68264461  0.18838974  0.69039444  1
  Zn  Zn113  1  0.68524500  0.68455013  0.18427173  1
  Zn  Zn114  1  0.69285610  0.68370923  0.68269641  1
  Zn  Zn115  1  0.31381401  0.31168801  0.31508780  1
  Zn  Zn116  1  0.31529948  0.30918207  0.81332751  1
  Zn  Zn117  1  0.31108491  0.82064111  0.28894227  1
  Zn  Zn118  1  0.30610751  0.80410934  0.81259480  1
  Zn  Zn119  1  0.81428181  0.30956202  0.31329340  1
  Zn  Zn120  1  0.81016524  0.31582275  0.81259537  1
  Zn  Zn121  1  0.82087604  0.81225227  0.31165283  1
  Zn  Zn122  1  0.80826835  0.81355442  0.81418613  1
  Zn  Zn123  1  0.18621173  0.44112757  0.44168923  1
  Zn  Zn124  1  0.19078575  0.43571719  0.93964223  1
  Zn  Zn125  1  0.18349311  0.94914695  0.44296965  1
  Zn  Zn126  1  0.18624654  0.93731931  0.93449720  1
  Zn  Zn127  1  0.69191199  0.43579422  0.43887453  1
  Zn  Zn128  1  0.69484949  0.44226037  0.94359532  1
  Zn  Zn129  1  0.68421557  0.94002085  0.43769161  1
  Zn  Zn130  1  0.68624792  0.93371270  0.93808640  1
  Zn  Zn131  1  0.31659887  0.07251384  0.06077625  1
  Zn  Zn132  1  0.31080406  0.05935433  0.56780818  1
  Zn  Zn133  1  0.30967926  0.55742560  0.06252683  1
  Zn  Zn134  1  0.31542471  0.56518392  0.56943470  1
  Zn  Zn135  1  0.81151353  0.05852347  0.06712565  1
  Zn  Zn136  1  0.81222929  0.06399472  0.56454226  1
  Zn  Zn137  1  0.81181944  0.55977068  0.06541828  1
  Zn  Zn138  1  0.81335613  0.55810488  0.56179820  1
  Zn  Zn139  1  0.43359853  0.43308074  0.18504146  1
  Zn  Zn140  1  0.43073374  0.44674757  0.68591276  1
  Zn  Zn141  1  0.43877566  0.93501989  0.17922418  1
  Zn  Zn142  1  0.44225023  0.93583912  0.68828891  1
  Zn  Zn143  1  0.94309363  0.43613837  0.18813378  1
  Zn  Zn144  1  0.93564456  0.43869627  0.68738961  1
  Zn  Zn145  1  0.93072928  0.93295048  0.19046645  1
  Zn  Zn146  1  0.93585650  0.93799174  0.68648076  1
  Zn  Zn147  1  0.06619414  0.06173881  0.32610894  1
  Zn  Zn148  1  0.05937606  0.05939382  0.81619418  1
  Zn  Zn149  1  0.06495409  0.56173745  0.31404396  1
  Zn  Zn150  1  0.05939383  0.56339071  0.80804435  1
  Zn  Zn151  1  0.56158359  0.06519799  0.31354258  1
  Zn  Zn152  1  0.55992011  0.05895094  0.81358821  1
  Zn  Zn153  1  0.56162502  0.56243935  0.30878854  1
  Zn  Zn154  1  0.57019679  0.58358547  0.80978548  1
  Zn  Zn155  1  0.44307220  0.19310804  0.43672940  1
  Zn  Zn156  1  0.43435062  0.18702011  0.93784381  1
  Zn  Zn157  1  0.44288496  0.68926643  0.43560998  1
  Zn  Zn158  1  0.43151296  0.68285324  0.93010719  1
  Zn  Zn159  1  0.93775313  0.18649973  0.43418785  1
  Zn  Zn160  1  0.93762544  0.18625817  0.93511347  1
  Zn  Zn161  1  0.93840765  0.69028134  0.43627648  1
  Zn  Zn162  1  0.93647602  0.68645739  0.94079013  1
  Zn  Zn163  1  0.06369388  0.31089768  0.06306439  1
  Zn  Zn164  1  0.06225724  0.31410136  0.56433873  1
  Zn  Zn165  1  0.06211475  0.80988225  0.05856487  1
  Zn  Zn166  1  0.06789985  0.81427930  0.55688927  1
  Zn  Zn167  1  0.55964668  0.31363531  0.06379661  1
  Zn  Zn168  1  0.56315546  0.31474224  0.56386828  1
  Zn  Zn169  1  0.53840583  0.78804024  0.02252449  1
  Zn  Zn170  1  0.56572582  0.81223704  0.56123113  1
  O  O171  1  0.12282105  0.14073341  0.10237319  1
  O  O172  1  0.12085856  0.12118675  0.62236799  1
  O  O173  1  0.11833716  0.61520089  0.11709171  1
  O  O174  1  0.11030112  0.62918810  0.61509092  1
  O  O175  1  0.63330038  0.11629072  0.11612713  1
  O  O176  1  0.61909114  0.11802296  0.62318144  1
  O  O177  1  0.61418805  0.61979051  0.12020341  1
  O  O178  1  0.62838351  0.61596478  0.61339437  1
  O  O179  1  0.38375963  0.37610798  0.38419620  1
  O  O180  1  0.37278315  0.36731195  0.89265783  1
  O  O181  1  0.37913423  0.86680060  0.38181975  1
  O  O182  1  0.37164347  0.87972182  0.88070083  1
  O  O183  1  0.88260688  0.37956737  0.38132432  1
  O  O184  1  0.88062219  0.38186572  0.88192022  1
  O  O185  1  0.88067476  0.88130655  0.38872250  1
  O  O186  1  0.87864520  0.87956695  0.88126290  1
  O  O187  1  0.24646999  0.00466014  0.37273964  1
  O  O188  1  0.25862059  0.00920879  0.87976591  1
  O  O189  1  0.25254667  0.49711804  0.36351842  1
  O  O190  1  0.24473237  0.51385270  0.87660375  1
  O  O191  1  0.74016076  0.00758950  0.36190329  1
  O  O192  1  0.75376649  0.00474047  0.87087920  1
  O  O193  1  0.75967977  0.50775589  0.37401987  1
  O  O194  1  0.76306714  0.49334892  0.86499931  1
  O  O195  1  0.23710273  0.50041972  0.13460669  1
  O  O196  1  0.24806128  0.48533579  0.62166729  1
  O  O197  1  0.25010757  0.99512972  0.11672624  1
  O  O198  1  0.23980541  0.98826100  0.62404457  1
  O  O199  1  0.74819408  0.49374199  0.13074303  1
  O  O200  1  0.74169046  0.49335234  0.63061685  1
  O  O201  1  0.73963504  0.99232656  0.13385471  1
  O  O202  1  0.74242941  0.99419542  0.62900543  1
  O  O203  1  0.01340570  0.37353842  0.25929701  1
  O  O204  1  -0.00544591  0.36643800  0.75689365  1
  O  O205  1  0.00105465  0.88618236  0.26760349  1
  O  O206  1  0.00379562  0.88061764  0.75896841  1
  O  O207  1  0.50650440  0.36871441  0.25664387  1
  O  O208  1  0.49870427  0.36812289  0.74558298  1
  O  O209  1  0.50220691  0.86958828  0.25421157  1
  O  O210  1  0.51781646  0.87262603  0.74708374  1
  O  O211  1  0.49410184  0.13623429  0.25255514  1
  O  O212  1  0.50058517  0.13083137  0.73921481  1
  O  O213  1  0.49457200  0.63153894  0.23999524  1
  O  O214  1  0.49021008  0.63222231  0.75011565  1
  O  O215  1  0.98925643  0.12322029  0.25326909  1
  O  O216  1  0.99135928  0.13130170  0.74949265  1
  O  O217  1  1.00099234  0.61671154  0.23460096  1
  O  O218  1  0.99082510  0.62588636  0.73160225  1
  O  O219  1  0.36848254  0.25305563  0.00747967  1
  O  O220  1  0.37096192  0.25811839  0.50728695  1
  O  O221  1  0.36824908  0.75814979  0.00575422  1
  O  O222  1  0.36777929  0.74875687  0.50089785  1
  O  O223  1  0.87148084  0.25171321  0.00545423  1
  O  O224  1  0.88178112  0.26283698  0.49909515  1
  O  O225  1  0.86822221  0.76058182  -0.00044729  1
  O  O226  1  0.86275319  0.75943993  0.49455244  1
  O  O227  1  0.13510320  0.24488030  0.50498275  1
  O  O228  1  0.12970369  0.24773471  0.98836887  1
  O  O229  1  0.12474009  0.73636589  0.49459119  1
  O  O230  1  0.12520508  0.73431477  0.99795638  1
  O  O231  1  0.62135364  0.24894819  0.48684564  1
  O  O232  1  0.62810226  0.24418871  0.99582088  1
  O  O233  1  0.63815605  0.74321178  0.49016034  1
  O  O234  1  0.63684599  0.73186196  1.01392071  1
  O  O235  1  0.49539723  0.25256290  0.13886946  1
  O  O236  1  0.49912596  0.24357528  0.63341182  1
  O  O237  1  0.48568419  0.73857679  0.12152989  1
  O  O238  1  0.49838511  0.74511717  0.61420792  1
  O  O239  1  0.98810939  0.24862471  0.12453745  1
  O  O240  1  1.00519538  0.24557567  0.63998632  1
  O  O241  1  1.00561912  0.73260780  0.12284567  1
  O  O242  1  0.99500876  0.74343355  0.61695691  1
  O  O243  1  0.00358393  0.26255031  0.37439254  1
  O  O244  1  0.00710186  0.25412179  0.86748672  1
  O  O245  1  -0.00095659  0.77150360  0.38211946  1
  O  O246  1  0.00098004  0.76193340  0.87993315  1
  O  O247  1  0.50942301  0.26070814  0.36547719  1
  O  O248  1  0.50308277  0.24405799  0.86287406  1
  O  O249  1  0.50739966  0.76143419  0.36840877  1
  O  O250  1  0.50577762  0.76266829  0.91316681  1
  O  O251  1  0.24390621  0.13307124  0.50575815  1
  O  O252  1  0.24323227  0.13473985  0.98830388  1
  O  O253  1  0.23487487  0.61983126  0.50674161  1
  O  O254  1  0.24173332  0.62232821  0.99384567  1
  O  O255  1  0.75061037  0.11830231  0.48511909  1
  O  O256  1  0.74543411  0.12904711  0.99536866  1
  O  O257  1  0.74868081  0.63099329  0.48951575  1
  O  O258  1  0.74079986  0.63088961  1.00784830  1
  O  O259  1  0.25789737  0.36152528  -0.00117737  1
  O  O260  1  0.25733218  0.36960874  0.50807777  1
  O  O261  1  0.25829996  0.87551421  0.00589409  1
  O  O262  1  0.25429618  0.87914084  0.50968848  1
  O  O263  1  0.75961288  0.36558858  0.00188631  1
  O  O264  1  0.76017104  0.37621025  0.51173935  1
  O  O265  1  0.75414195  0.86894105  0.00876206  1
  O  O266  1  0.75492737  0.87073200  0.50366718  1
  O  O267  1  0.13174538  0.49328818  0.24478411  1
  O  O268  1  0.11300170  0.49319263  0.74159977  1
  O  O269  1  0.13446404  1.05580017  0.23720348  1
  O  O270  1  0.11739533  0.99367070  0.74002333  1
  O  O271  1  0.62628232  0.48616371  0.25099534  1
  O  O272  1  0.63206594  0.49543840  0.74891493  1
  O  O273  1  0.62838377  0.99735166  0.24249434  1
  O  O274  1  0.62971190  0.99842871  0.73856231  1
  O  O275  1  0.38275569  0.01432727  0.24196120  1
  O  O276  1  0.38264933  0.00137291  0.76359653  1
  O  O277  1  0.36594340  0.50567347  0.24842521  1
  O  O278  1  0.37057954  0.52227168  0.74481594  1
  O  O279  1  0.86169016  0.00800577  0.24564280  1
  O  O280  1  0.86672145  0.00625531  0.75619162  1
  O  O281  1  0.87806258  0.49747599  0.26411040  1
  O  O282  1  0.87046783  0.50754613  0.75647341  1
  O  O283  1  0.11962663  0.37340888  0.37126999  1
  O  O284  1  0.11886856  0.36741317  0.87588124  1
  O  O285  1  0.11141058  0.87475893  0.38774868  1
  O  O286  1  0.11538814  0.87502035  0.86572717  1
  O  O287  1  0.62103152  0.36983244  0.37077940  1
  O  O288  1  0.63056197  0.36858765  0.87544903  1
  O  O289  1  0.61784326  0.87130715  0.36720617  1
  O  O290  1  0.62810759  0.88003901  0.85488701  1
  O  O291  1  0.37757190  0.13885488  0.13540435  1
  O  O292  1  0.38333087  0.13071329  0.62756734  1
  O  O293  1  0.37817961  0.62965198  0.12926349  1
  O  O294  1  0.38046926  0.62908495  0.63449206  1
  O  O295  1  0.86840936  0.13139523  0.13801964  1
  O  O296  1  0.87787920  0.12270847  0.63973356  1
  O  O297  1  0.89268945  0.61696743  0.12547722  1
  O  O298  1  0.88582229  0.62257961  0.62874601  1
  O  O299  1  0.25719822  0.24146849  0.11567090  1
  O  O300  1  0.25738322  0.25733406  0.61729419  1
  O  O301  1  0.25812730  0.75327906  0.12293390  1
  O  O302  1  0.24759636  0.77047472  0.62358344  1
  O  O303  1  0.76115745  0.25131160  0.11806132  1
  O  O304  1  0.74587661  0.26462759  0.63211060  1
  O  O305  1  0.74780715  0.76137380  0.12265574  1
  O  O306  1  0.74608185  0.75944088  0.61261161  1
  O  O307  1  0.25257134  0.24684066  0.39141449  1
  O  O308  1  0.24156183  0.24482103  0.88061897  1
  O  O309  1  0.25624591  0.77052083  0.38120862  1
  O  O310  1  0.24078205  0.73564302  0.87815715  1
  O  O311  1  0.74040178  0.23990311  0.36926250  1
  O  O312  1  0.74509787  0.24418061  0.88169393  1
  O  O313  1  0.74665496  0.74383045  0.37857966  1
  O  O314  1  0.74865251  0.75602296  0.89252146  1
  O  O315  1  0.00701665  0.11284433  -0.00980280  1
  O  O316  1  0.00361237  0.12202830  0.50829828  1
  O  O317  1  0.00672234  0.61777130  0.00807426  1
  O  O318  1  -0.00118468  0.61981476  0.50964279  1
  O  O319  1  0.50471226  0.11271775  -0.00443070  1
  O  O320  1  0.50359359  0.12140705  0.51080676  1
  O  O321  1  0.50907334  0.61674976  0.00309380  1
  O  O322  1  0.51678041  0.62306099  0.49281494  1
  O  O323  1  0.49048035  0.36940604  0.49193216  1
  O  O324  1  0.48766400  0.37656721  0.99941297  1
  O  O325  1  0.50732236  0.88485918  0.48920307  1
  O  O326  1  0.48216119  0.88997632  1.00917713  1
  O  O327  1  0.99613288  0.38181291  0.49539229  1
  O  O328  1  0.99493897  0.37971164  0.99414600  1
  O  O329  1  0.99195794  0.88434167  0.50001573  1
  O  O330  1  0.99102890  0.87831289  0.99406264  1
  O  O331  1  0.49799237  0.48671307  0.36981308  1
  O  O332  1  0.51688586  0.49137972  0.86281879  1
  O  O333  1  0.50574255  0.98854787  0.38183192  1
  O  O334  1  0.49314820  0.99154320  0.88322813  1
  O  O335  1  0.99647279  0.49046820  0.38395912  1
  O  O336  1  0.99112314  0.49579791  0.88143150  1
  O  O337  1  1.00447791  0.99126827  0.39093883  1
  O  O338  1  0.99166414  0.98960212  0.88397616  1
  O  O339  1  -0.00800090  -0.00673632  0.10915580  1
  O  O340  1  0.00519205  0.00879030  0.62164651  1
  O  O341  1  0.01032026  0.50474267  0.11879061  1
  O  O342  1  -0.00330541  0.50076445  0.61128253  1
  O  O343  1  0.51379295  -0.00115245  0.11759297  1
  O  O344  1  0.50642905  0.00621997  0.62021005  1
  O  O345  1  0.49793046  0.51081796  0.12601594  1
  O  O346  1  0.51792107  0.50277416  0.63142740  1
  O  O347  1  0.23913404  0.38003721  0.25484437  1
  O  O348  1  0.25246021  0.36725434  0.73551732  1
  O  O349  1  0.24791778  0.88817191  0.22773804  1
  O  O350  1  0.23869859  0.87626937  0.74266440  1
  O  O351  1  0.74100221  0.37444105  0.25141622  1
  O  O352  1  0.75880257  0.38646949  0.73569313  1
  O  O353  1  0.74634504  0.88192845  0.24644177  1
  O  O354  1  0.74390185  0.88015343  0.74175584  1
  O  O355  1  0.27529354  0.12937989  0.25761551  1
  O  O356  1  0.24944599  0.13229702  0.76311715  1
  O  O357  1  0.25948542  0.61508908  0.24421198  1
  O  O358  1  0.24250285  0.62355271  0.75767758  1
  O  O359  1  0.75343430  0.11778519  0.25802517  1
  O  O360  1  0.75478804  0.12117871  0.75514694  1
  O  O361  1  0.75305745  0.62418329  0.26015563  1
  O  O362  1  0.75918273  0.60915087  0.74084350  1
  O  O363  1  0.38481900  0.12944312  0.36064624  1
  O  O364  1  0.36590704  0.11681446  0.87374619  1
  O  O365  1  0.38403549  0.62475615  0.35875116  1
  O  O366  1  0.36025844  0.62526977  0.86297053  1
  O  O367  1  0.86615557  0.13142898  0.36197381  1
  O  O368  1  0.86876621  0.11886667  0.86619705  1
  O  O369  1  0.87005187  0.61720499  0.37382671  1
  O  O370  1  0.88342992  0.61581265  0.86554679  1
  O  O371  1  0.11972051  0.38207827  0.13457408  1
  O  O372  1  0.14175856  0.37255213  0.62520754  1
  O  O373  1  0.13845913  0.87724718  0.11146787  1
  O  O374  1  0.12910740  0.88301836  0.63056624  1
  O  O375  1  0.62654328  0.37506978  0.13505875  1
  O  O376  1  0.63967538  0.38168996  0.61738628  1
  O  O377  1  0.63370606  0.88415335  0.13304463  1
  O  O378  1  0.63587639  0.88137113  0.63191714  1
  O  O379  1  0.12593788  0.25440403  0.25234060  1
  O  O380  1  0.11718539  0.25486320  0.76119359  1
  O  O381  1  0.11706529  0.74459353  0.26038686  1
  O  O382  1  0.12034696  0.76401889  0.74708885  1
  O  O383  1  0.61970593  0.25864579  0.25602635  1
  O  O384  1  0.61549990  0.25015926  0.76057930  1
  O  O385  1  0.61878742  0.75509772  0.25272837  1
  O  O386  1  0.63483292  0.75923618  0.74829811  1
  O  O387  1  0.38393796  0.24997429  0.24489328  1
  O  O388  1  0.38456537  0.24642566  0.74372829  1
  O  O389  1  0.37993144  0.74272855  0.23929933  1
  O  O390  1  0.36320150  0.73182096  0.74555956  1
  O  O391  1  0.87877600  0.24341848  0.24133534  1
  O  O392  1  0.88316091  0.24082214  0.75922558  1
  O  O393  1  0.89036054  0.75157002  0.25117890  1
  O  O394  1  0.86327377  0.73557184  0.75295934  1
  O  O395  1  0.37232738  0.49017944  0.49968414  1
  O  O396  1  0.37641864  0.48300307  1.00444146  1
  O  O397  1  0.38910901  1.00366404  0.50483699  1
  O  O398  1  0.38076838  0.99788135  0.99220643  1
  O  O399  1  0.88145714  0.49298340  0.48882122  1
  O  O400  1  0.87879780  0.49590902  0.99176349  1
  O  O401  1  0.88609794  0.99552644  0.50720034  1
  O  O402  1  0.87690565  0.99079265  0.99407628  1
  O  O403  1  0.11415625  0.00922080  -0.00798496  1
  O  O404  1  0.11401843  0.00951485  0.51627438  1
  O  O405  1  0.12149119  0.50462234  0.00724963  1
  O  O406  1  0.11587222  0.51011971  0.50580268  1
  O  O407  1  0.61808975  0.00261787  0.00533002  1
  O  O408  1  0.61926469  0.00167659  0.51303768  1
  O  O409  1  0.62429542  0.51008040  0.00251488  1
  O  O410  1  0.63399329  0.50866812  0.50688067  1
  O  O411  1  0.37767391  0.35905330  0.11546202  1
  O  O412  1  0.36746428  0.37237005  0.61917796  1
  O  O413  1  0.36509728  0.86726658  0.11719959  1
  O  O414  1  0.36104408  0.87619953  0.63404705  1
  O  O415  1  0.87796644  0.36652806  0.11830545  1
  O  O416  1  0.86246723  0.38036577  0.61585313  1
  O  O417  1  0.86230868  0.88032358  0.11528851  1
  O  O418  1  0.86178434  0.88152807  0.61617906  1
  O  O419  1  0.12384275  0.13193747  0.39792610  1
  O  O420  1  0.12917696  0.13172236  0.87953147  1
  O  O421  1  0.11988894  0.62444189  0.39212535  1
  O  O422  1  0.12888446  0.62325192  0.88093347  1
  O  O423  1  0.63194691  0.13450170  0.37604852  1
  O  O424  1  0.62995973  0.12783348  0.88291226  1
  O  O425  1  0.63429709  0.62754811  0.37752896  1
  O  O426  1  0.63223703  0.62723233  0.89199400  1
