# generated using pymatgen
data_V85Zn86O256
_symmetry_space_group_name_H-M   'P 1'
_cell_length_a   16.97025353
_cell_length_b   16.96296390
_cell_length_c   16.98983663
_cell_angle_alpha   89.91512141
_cell_angle_beta   90.04143239
_cell_angle_gamma   90.00816733
_symmetry_Int_Tables_number   1
_chemical_formula_structural   V85Zn86O256
_chemical_formula_sum   'V85 Zn86 O256'
_cell_volume   4890.78618526
_cell_formula_units_Z   1
loop_
 _symmetry_equiv_pos_site_id
 _symmetry_equiv_pos_as_xyz
  1  'x, y, z'
loop_
 _atom_site_type_symbol
 _atom_site_label
 _atom_site_symmetry_multiplicity
 _atom_site_fract_x
 _atom_site_fract_y
 _atom_site_fract_z
 _atom_site_occupancy
  V  V0  1  0.37465641  0.74656277  0.12287518  1
  V  V1  1  0.24667558  0.00306336  0.24189612  1
  V  V2  1  0.37690699  -0.00371963  0.37249943  1
  V  V3  1  0.49795246  0.13721685  0.11676046  1
  V  V4  1  0.87857492  0.38756568  0.51270298  1
  V  V5  1  0.75327472  0.11813164  0.88216848  1
  V  V6  1  -0.00331563  0.62585894  0.62477529  1
  V  V7  1  0.12282800  0.38003677  0.25009919  1
  V  V8  1  -0.00152268  0.37414581  0.38433104  1
  V  V9  1  0.24830637  0.75189579  0.49982132  1
  V  V10  1  0.87665602  0.49863054  0.37966429  1
  V  V11  1  0.37839531  0.38061541  0.49608058  1
  V  V12  1  0.67527225  0.43211872  0.80101387  1
  V  V13  1  0.62886324  0.24526763  0.87009692  1
  V  V14  1  0.87451777  -0.00304574  0.37106976  1
  V  V15  1  0.37847060  0.25075114  0.62341184  1
  V  V16  1  0.50100551  0.50916007  0.00652701  1
  V  V17  1  0.74423274  0.48488192  0.24905464  1
  V  V18  1  0.07174278  0.30798342  0.92105128  1
  V  V19  1  0.24366620  0.87693576  0.11743932  1
  V  V20  1  0.86950247  0.25795955  0.12277745  1
  V  V21  1  0.61702100  0.76015849  0.37532647  1
  V  V22  1  0.76847306  0.28390332  -0.01456275  1
  V  V23  1  0.49408895  0.76031170  0.25401481  1
  V  V24  1  0.62048224  0.88145009  0.75562537  1
  V  V25  1  0.86987090  0.62371619  0.25387073  1
  V  V26  1  0.00464435  -0.00514212  0.50384008  1
  V  V27  1  0.51042383  0.37272598  0.36783638  1
  V  V28  1  0.12312370  0.87952078  0.24575096  1
  V  V29  1  0.25260984  0.37620169  0.62248388  1
  V  V30  1  0.74185161  0.74767541  0.49343022  1
  V  V31  1  0.00980351  0.61007563  0.13266195  1
  V  V32  1  0.38188120  0.37198374  0.00809162  1
  V  V33  1  0.00633885  0.11753553  0.62555038  1
  V  V34  1  0.12760807  0.37285245  0.74630714  1
  V  V35  1  0.12373411  0.74895496  0.37473342  1
  V  V36  1  0.62671062  0.62584712  0.01397925  1
  V  V37  1  0.24780986  0.00061649  0.74291145  1
  V  V38  1  0.75544391  -0.00555916  0.75141736  1
  V  V39  1  0.85349191  0.72748851  0.64749159  1
  V  V40  1  0.24580420  0.12855278  0.87425326  1
  V  V41  1  0.24845555  0.37446878  0.12480290  1
  V  V42  1  0.88773469  -0.00932360  0.87730591  1
  V  V43  1  0.49752136  0.75818519  0.75083389  1
  V  V44  1  0.73924947  0.00083042  0.24392642  1
  V  V45  1  0.24828122  0.74392040  -0.00267503  1
  V  V46  1  0.38567365  -0.00456079  0.87852629  1
  V  V47  1  0.38019269  0.12695552  0.74933638  1
  V  V48  1  0.75250793  0.87267635  0.12252581  1
  V  V49  1  0.87760981  0.25468111  0.62923219  1
  V  V50  1  0.25314636  0.62774795  0.87127303  1
  V  V51  1  0.25157980  0.24912780  0.49760515  1
  V  V52  1  0.87366380  0.86818380  0.49963697  1
  V  V53  1  0.25892524  0.25070019  -0.00001695  1
  V  V54  1  0.37610887  0.75480137  0.62084820  1
  V  V55  1  0.37878820  0.50073228  0.87495035  1
  V  V56  1  0.73403911  0.61881509  0.37730816  1
  V  V57  1  0.38135840  0.62407753  0.24703151  1
  V  V58  1  0.01240919  0.24648671  0.74801531  1
  V  V59  1  0.88496542  0.86872893  -0.00344592  1
  V  V60  1  0.56457793  -0.05115495  0.06288949  1
  V  V61  1  0.25048243  0.62351916  0.37343008  1
  V  V62  1  0.25117238  0.50100780  0.74562054  1
  V  V63  1  0.12540700  0.76056587  0.87098236  1
  V  V64  1  0.12040844  0.61720517  0.49985487  1
  V  V65  1  0.50093141  0.37478760  0.86901832  1
  V  V66  1  0.62607213  0.12230946  0.00430863  1
  V  V67  1  0.74771525  0.87759802  0.62192134  1
  V  V68  1  0.11947970  0.24721362  0.37652846  1
  V  V69  1  0.77090156  0.73081065  -0.02310078  1
  V  V70  1  0.61767559  0.74807764  0.87927627  1
  V  V71  1  0.00254462  0.75696023  0.75442340  1
  V  V72  1  0.00747619  0.11633240  0.12332492  1
  V  V73  1  0.73500543  0.38677688  0.62792288  1
  V  V74  1  0.62155443  0.48187965  0.13085985  1
  V  V75  1  0.51217333  0.12695364  0.61722830  1
  V  V76  1  0.87278688  0.12265129  0.24608609  1
  V  V77  1  0.25038562  0.12494126  0.37241141  1
  V  V78  1  0.37712279  0.62721936  0.74626003  1
  V  V79  1  -0.00155838  0.74998841  0.25095284  1
  V  V80  1  0.37601603  0.13569985  0.24180921  1
  V  V81  1  0.50975988  -0.00015936  0.48996969  1
  V  V82  1  0.24739278  0.50174630  0.24453986  1
  V  V83  1  0.08958472  0.60077730  -0.03190866  1
  V  V84  1  0.50943881  0.62098497  0.61563808  1
  Zn  Zn85  1  0.12555410  0.88189393  0.73574131  1
  Zn  Zn86  1  0.24746018  0.88605697  0.61376441  1
  Zn  Zn87  1  0.51128065  0.25858400  0.23965730  1
  Zn  Zn88  1  -0.00398933  0.24750710  0.25287251  1
  Zn  Zn89  1  0.11430419  0.49597767  0.62002959  1
  Zn  Zn90  1  0.63149340  0.23871693  0.37302873  1
  Zn  Zn91  1  0.50915158  0.25405101  0.74339030  1
  Zn  Zn92  1  0.74217098  0.12207111  0.38883358  1
  Zn  Zn93  1  0.87134673  0.74887368  0.13199134  1
  Zn  Zn94  1  0.12689316  0.11770993  0.50112417  1
  Zn  Zn95  1  0.37732224  0.49942665  0.37406455  1
  Zn  Zn96  1  0.38360116  0.87632994  -0.00298033  1
  Zn  Zn97  1  0.51816308  0.50092417  0.49558602  1
  Zn  Zn98  1  0.01755426  -0.01593342  0.00389144  1
  Zn  Zn99  1  -0.00036927  0.87291163  0.37531583  1
  Zn  Zn100  1  0.13050898  0.11386946  0.00385154  1
  Zn  Zn101  1  -0.06164534  0.44348693  0.91531250  1
  Zn  Zn102  1  0.74457366  0.24359602  0.50587485  1
  Zn  Zn103  1  0.61738635  0.88082491  0.24811387  1
  Zn  Zn104  1  0.62890351  0.00515993  0.62143999  1
  Zn  Zn105  1  0.87992363  0.12357509  0.75499209  1
  Zn  Zn106  1  0.38018654  0.87434445  0.49092946  1
  Zn  Zn107  1  0.18681035  0.19353881  0.18714933  1
  Zn  Zn108  1  0.18946199  0.18436881  0.68336595  1
  Zn  Zn109  1  0.18745081  0.68906297  0.18777968  1
  Zn  Zn110  1  0.18600365  0.68988307  0.68319911  1
  Zn  Zn111  1  0.68968488  0.19402940  0.18489881  1
  Zn  Zn112  1  0.69602294  0.18676302  0.69029291  1
  Zn  Zn113  1  0.68445157  0.68748754  0.19270579  1
  Zn  Zn114  1  0.68106559  0.69543390  0.68849602  1
  Zn  Zn115  1  0.31360794  0.31334111  0.31353131  1
  Zn  Zn116  1  0.31518919  0.31138705  0.81495277  1
  Zn  Zn117  1  0.30844559  0.81426294  0.31083209  1
  Zn  Zn118  1  0.31389476  0.81867417  0.81169743  1
  Zn  Zn119  1  0.81177664  0.30709759  0.31573819  1
  Zn  Zn120  1  0.84289630  0.34183715  0.80619035  1
  Zn  Zn121  1  0.80685038  0.81357224  0.31163497  1
  Zn  Zn122  1  0.81357591  0.72830475  0.81387949  1
  Zn  Zn123  1  0.19037649  0.43761053  0.43422205  1
  Zn  Zn124  1  0.19747406  0.44279491  0.93830261  1
  Zn  Zn125  1  0.18746382  0.93567544  0.43168394  1
  Zn  Zn126  1  0.19411456  0.94011896  0.93208335  1
  Zn  Zn127  1  0.69082017  0.42543808  0.43975228  1
  Zn  Zn128  1  0.77526661  0.44925801  0.95397675  1
  Zn  Zn129  1  0.68724483  0.94060369  0.43208749  1
  Zn  Zn130  1  0.69860100  0.92314128  0.93045465  1
  Zn  Zn131  1  0.31438742  0.06211452  0.05997583  1
  Zn  Zn132  1  0.32118157  0.06636715  0.55891877  1
  Zn  Zn133  1  0.31001510  0.56116692  0.06371546  1
  Zn  Zn134  1  0.31422694  0.56492948  0.56258923  1
  Zn  Zn135  1  0.81708530  0.05566020  0.06421012  1
  Zn  Zn136  1  0.82335769  0.06049320  0.56910203  1
  Zn  Zn137  1  0.81263667  0.55895334  0.07693595  1
  Zn  Zn138  1  0.69205420  0.56233512  0.56424732  1
  Zn  Zn139  1  0.43702575  0.43944215  0.18691778  1
  Zn  Zn140  1  0.44098595  0.43997666  0.68589220  1
  Zn  Zn141  1  0.42666169  0.93847713  0.18679125  1
  Zn  Zn142  1  0.43583475  0.94187933  0.68075890  1
  Zn  Zn143  1  0.93454131  0.43485288  0.19523277  1
  Zn  Zn144  1  0.93633991  0.44578268  0.70265707  1
  Zn  Zn145  1  0.93557922  0.93704260  0.18555857  1
  Zn  Zn146  1  0.93473772  0.92671036  0.68534799  1
  Zn  Zn147  1  0.05904980  0.06139427  0.31299419  1
  Zn  Zn148  1  0.06736666  0.06231399  0.81606556  1
  Zn  Zn149  1  0.06081326  0.56022534  0.31511762  1
  Zn  Zn150  1  0.06052725  0.56601152  0.79847225  1
  Zn  Zn151  1  0.56341890  0.07461612  0.30728639  1
  Zn  Zn152  1  0.56387494  0.06553702  0.80970269  1
  Zn  Zn153  1  0.55832786  0.56030723  0.31170921  1
  Zn  Zn154  1  0.56160721  0.57263732  0.81752034  1
  Zn  Zn155  1  0.44091424  0.18731733  0.43430063  1
  Zn  Zn156  1  0.43995967  0.18569535  0.93576158  1
  Zn  Zn157  1  0.43637120  0.68610868  0.43576102  1
  Zn  Zn158  1  0.43727732  0.68974693  0.93662230  1
  Zn  Zn159  1  0.90687225  0.17508199  0.45289458  1
  Zn  Zn160  1  0.93624333  0.17778577  0.94258135  1
  Zn  Zn161  1  0.93380859  0.68370971  0.44002655  1
  Zn  Zn162  1  0.91640939  0.60625437  0.94288283  1
  Zn  Zn163  1  0.05497536  0.31367919  0.08109857  1
  Zn  Zn164  1  0.06276825  0.31034444  0.56147254  1
  Zn  Zn165  1  0.06406619  0.79586120  0.06241156  1
  Zn  Zn166  1  0.06197946  0.81024718  0.56761647  1
  Zn  Zn167  1  0.57354709  0.31222888  0.05121829  1
  Zn  Zn168  1  0.56450124  0.31150474  0.55351339  1
  Zn  Zn169  1  0.56575130  0.78509652  0.07195790  1
  Zn  Zn170  1  0.56220083  0.81930229  0.56254263  1
  O  O171  1  0.11040398  0.13323344  0.12530352  1
  O  O172  1  0.11152654  0.12687089  0.61963404  1
  O  O173  1  0.11001201  0.62335762  0.13540358  1
  O  O174  1  0.11639679  0.62419473  0.61552092  1
  O  O175  1  0.62024656  0.12497458  0.10934309  1
  O  O176  1  0.61573205  0.12648531  0.62876560  1
  O  O177  1  0.61507029  0.63590475  0.11557358  1
  O  O178  1  0.61366639  0.62895131  0.62579046  1
  O  O179  1  0.37814487  0.37727829  0.38387161  1
  O  O180  1  0.38253985  0.38094211  0.88528911  1
  O  O181  1  0.37017526  0.89195596  0.36864593  1
  O  O182  1  0.37661091  0.88997455  0.87611786  1
  O  O183  1  0.88184855  0.37949178  0.38446320  1
  O  O184  1  0.83512014  0.35053939  0.92021815  1
  O  O185  1  0.87494618  0.88107904  0.37925502  1
  O  O186  1  0.87558298  0.87645282  0.89419661  1
  O  O187  1  0.25444734  0.00646243  0.36292401  1
  O  O188  1  0.26287911  0.00931860  0.86174374  1
  O  O189  1  0.25332150  0.50541759  0.36281656  1
  O  O190  1  0.26056676  0.50716294  0.86615582  1
  O  O191  1  0.76165261  0.00159004  0.36631568  1
  O  O192  1  0.76276244  -0.00164104  0.86888290  1
  O  O193  1  0.75626854  0.50397354  0.36970882  1
  O  O194  1  0.72507219  0.49342088  0.86119038  1
  O  O195  1  0.25166562  0.49327339  0.13754972  1
  O  O196  1  0.25119188  0.49356800  0.63078393  1
  O  O197  1  0.25344057  0.99167555  0.13363317  1
  O  O198  1  0.26150783  1.00560421  0.63877232  1
  O  O199  1  0.73199269  0.50147377  0.13543612  1
  O  O200  1  0.74829569  0.48624634  0.63178799  1
  O  O201  1  0.75301858  0.98568303  0.13152164  1
  O  O202  1  0.75256925  0.99679337  0.63265490  1
  O  O203  1  0.00697193  0.37194825  0.26299936  1
  O  O204  1  0.02287086  0.36409991  0.74332434  1
  O  O205  1  0.00638904  0.86769561  0.24907272  1
  O  O206  1  0.01052878  0.86281552  0.74248741  1
  O  O207  1  0.48766072  0.37294601  0.26422140  1
  O  O208  1  0.48946609  0.37145740  0.76468328  1
  O  O209  1  0.49595078  0.86462700  0.24412261  1
  O  O210  1  0.50462355  0.86577978  0.73886838  1
  O  O211  1  0.49035846  0.12624954  0.23525068  1
  O  O212  1  0.49386046  0.12841354  0.73951181  1
  O  O213  1  0.48437051  0.63484181  0.25546413  1
  O  O214  1  0.49605897  0.63868274  0.74051723  1
  O  O215  1  0.99461268  0.12474267  0.23957217  1
  O  O216  1  1.00344916  0.12987946  0.74547515  1
  O  O217  1  0.99216745  0.62898560  0.24862988  1
  O  O218  1  1.00059449  0.64142536  0.73695500  1
  O  O219  1  0.37079373  0.25983920  -0.00381520  1
  O  O220  1  0.37113338  0.25974851  0.50303991  1
  O  O221  1  0.37027472  0.75444537  0.00665733  1
  O  O222  1  0.36852048  0.75237470  0.50394300  1
  O  O223  1  0.87211130  0.23957994  0.01505517  1
  O  O224  1  0.88692478  0.26782538  0.52145599  1
  O  O225  1  0.87220187  0.75999443  0.01469645  1
  O  O226  1  0.86086939  0.76018152  0.48871340  1
  O  O227  1  0.13064971  0.24811859  0.48852242  1
  O  O228  1  0.12652597  0.25903145  0.99341554  1
  O  O229  1  0.13264961  0.74137634  0.49343110  1
  O  O230  1  0.13030423  0.73246732  0.98777307  1
  O  O231  1  0.63328746  0.25668699  0.48821615  1
  O  O232  1  0.63656868  0.23813895  0.98795112  1
  O  O233  1  0.63222733  0.75849756  0.49058900  1
  O  O234  1  0.63350544  0.74397977  0.99311210  1
  O  O235  1  0.50509913  0.24078409  0.11872159  1
  O  O236  1  0.49581071  0.24552050  0.62367003  1
  O  O237  1  0.48163402  0.74936700  0.13595562  1
  O  O238  1  0.49451568  0.74420394  0.62781317  1
  O  O239  1  0.98742889  0.23744121  0.12985852  1
  O  O240  1  1.00002393  0.24277743  0.63343823  1
  O  O241  1  0.99843927  0.74061663  0.14274328  1
  O  O242  1  0.99328402  0.74157897  0.63347061  1
  O  O243  1  0.00593243  0.25708905  0.37535125  1
  O  O244  1  0.00596889  0.24442542  0.87075191  1
  O  O245  1  0.00375805  0.74801462  0.36484016  1
  O  O246  1  0.01199293  0.74354326  0.85681657  1
  O  O247  1  0.49678251  0.26509479  0.37244269  1
  O  O248  1  0.51085592  0.25871012  0.87679981  1
  O  O249  1  0.50529288  0.74807963  0.36796345  1
  O  O250  1  0.50574032  0.75103141  0.86493243  1
  O  O251  1  0.24892178  0.13044889  0.49266172  1
  O  O252  1  0.25057095  0.13443391  0.99404016  1
  O  O253  1  0.24562418  0.63440199  0.49422847  1
  O  O254  1  0.26039455  0.63684122  0.99052877  1
  O  O255  1  0.79647600  0.13641472  0.49282653  1
  O  O256  1  0.74465755  0.10890213  0.98925096  1
  O  O257  1  0.74736369  0.63696720  0.48943074  1
  O  O258  1  0.74059529  0.63548390  1.01998998  1
  O  O259  1  0.26085907  0.37096957  0.00315934  1
  O  O260  1  0.25730458  0.36931610  0.50282008  1
  O  O261  1  0.24974064  0.86102663  0.00412208  1
  O  O262  1  0.25405291  0.86273994  0.49352410  1
  O  O263  1  0.71928296  0.36691964  0.01356737  1
  O  O264  1  0.76235761  0.37242811  0.51778514  1
  O  O265  1  0.76156810  0.86113545  0.00585413  1
  O  O266  1  0.75511179  0.87172982  0.50048598  1
  O  O267  1  0.13300058  0.48908083  0.25940663  1
  O  O268  1  0.13275713  0.49076310  0.74647882  1
  O  O269  1  0.13072133  0.98773540  0.25391175  1
  O  O270  1  0.14417465  1.00231834  0.75356018  1
  O  O271  1  0.62835785  0.50675170  0.23722096  1
  O  O272  1  0.61342338  0.49277223  0.75148922  1
  O  O273  1  0.63599534  0.99895364  0.25138579  1
  O  O274  1  0.63202712  0.99567382  0.74775144  1
  O  O275  1  0.36514161  0.00957837  0.25346795  1
  O  O276  1  0.37084336  0.01066977  0.75458298  1
  O  O277  1  0.36681012  0.50964661  0.24912547  1
  O  O278  1  0.37161681  0.50669735  0.75414005  1
  O  O279  1  0.86853226  0.00205743  0.25576384  1
  O  O280  1  0.87052477  -0.00664038  0.75865747  1
  O  O281  1  0.86431598  0.50544842  0.25768167  1
  O  O282  1  0.89989576  0.44319360  0.80731162  1
  O  O283  1  0.11796020  0.36912058  0.37215454  1
  O  O284  1  0.13285855  0.37288001  0.86774567  1
  O  O285  1  0.12242798  0.86670611  0.36368842  1
  O  O286  1  0.13421287  0.86205650  0.86881227  1
  O  O287  1  0.61130212  0.37646032  0.36982123  1
  O  O288  1  0.61918562  0.36586744  0.86584291  1
  O  O289  1  0.62821339  0.86359658  0.36804253  1
  O  O290  1  0.61937676  0.87338923  0.86115511  1
  O  O291  1  0.38553381  0.12071046  0.12901564  1
  O  O292  1  0.38487709  0.13271706  0.63162641  1
  O  O293  1  0.36468761  0.63518532  0.13451128  1
  O  O294  1  0.38357243  0.63712730  0.62791762  1
  O  O295  1  0.88475612  0.12512614  0.13224667  1
  O  O296  1  0.88882591  0.13620075  0.63615997  1
  O  O297  1  0.88124029  0.62551744  0.14365035  1
  O  O298  1  0.88533832  0.64101556  0.60435941  1
  O  O299  1  0.24345797  0.25769002  0.10894809  1
  O  O300  1  0.25729752  0.25487233  0.61721765  1
  O  O301  1  0.25442368  0.75406452  0.11619538  1
  O  O302  1  0.26026701  0.74676052  0.61313240  1
  O  O303  1  0.76502119  0.24464137  0.10979132  1
  O  O304  1  0.76340877  0.25866132  0.63045839  1
  O  O305  1  0.74845206  0.76382628  0.13212266  1
  O  O306  1  0.74752700  0.75886805  0.60771982  1
  O  O307  1  0.24243357  0.24421896  0.37858857  1
  O  O308  1  0.25580263  0.24342667  0.88765594  1
  O  O309  1  0.24486692  0.74349572  0.37963034  1
  O  O310  1  0.24759111  0.74745205  0.87899696  1
  O  O311  1  0.75665421  0.24172035  0.38408886  1
  O  O312  1  0.74501746  0.23270884  0.88272784  1
  O  O313  1  0.73853685  0.74145724  0.37609520  1
  O  O314  1  0.72828906  0.76870810  0.88017568  1
  O  O315  1  0.00601635  0.12112546  0.01376816  1
  O  O316  1  -0.00506325  0.11233207  0.50867917  1
  O  O317  1  -0.00112261  0.63467831  0.02535262  1
  O  O318  1  0.01137503  0.63198545  0.50690832  1
  O  O319  1  0.51010724  0.12448186  0.00450605  1
  O  O320  1  0.49181424  0.11308886  0.50749329  1
  O  O321  1  0.50335767  0.61396497  -0.00362789  1
  O  O322  1  0.49672863  0.62475919  0.51317699  1
  O  O323  1  0.49278744  0.37981701  0.48867510  1
  O  O324  1  0.49775085  0.38387474  0.99118019  1
  O  O325  1  0.49657385  0.89454035  0.50245622  1
  O  O326  1  0.50629426  0.88014682  1.01587093  1
  O  O327  1  0.99818073  0.37768125  0.49114680  1
  O  O328  1  1.01349880  0.36934258  0.97912466  1
  O  O329  1  0.99019586  0.87533964  0.49856773  1
  O  O330  1  0.98912672  0.86789267  1.01154462  1
  O  O331  1  0.49561518  0.48956696  0.37595649  1
  O  O332  1  0.49704021  0.49444565  0.88336001  1
  O  O333  1  0.49260798  1.00760467  0.38393936  1
  O  O334  1  0.48367645  1.00808275  0.86886124  1
  O  O335  1  0.98438295  0.49217718  0.36917532  1
  O  O336  1  1.01155989  0.54751241  0.90127226  1
  O  O337  1  0.98794151  0.99540123  0.38000379  1
  O  O338  1  0.99036351  1.00227454  0.87713899  1
  O  O339  1  -0.00194032  0.01271168  0.12479030  1
  O  O340  1  -0.01083662  0.00507675  0.61584403  1
  O  O341  1  -0.00346285  0.51108042  0.13474433  1
  O  O342  1  -0.00282142  0.51852012  0.63691003  1
  O  O343  1  0.50358270  0.00461125  0.12319636  1
  O  O344  1  0.50148338  0.01059720  0.61296302  1
  O  O345  1  0.50921709  0.49944767  0.11951332  1
  O  O346  1  0.49523835  0.51875589  0.62271520  1
  O  O347  1  0.24418820  0.38151977  0.24655025  1
  O  O348  1  0.24534382  0.37714551  0.74446937  1
  O  O349  1  0.24166973  0.88209907  0.24083350  1
  O  O350  1  0.25418120  0.89324186  0.74687624  1
  O  O351  1  0.75608428  0.38668761  0.25400035  1
  O  O352  1  0.74444657  0.37449802  0.74375867  1
  O  O353  1  0.74533158  0.88277482  0.24101511  1
  O  O354  1  0.73935003  0.88710946  0.74402021  1
  O  O355  1  0.25353582  0.11893116  0.24885533  1
  O  O356  1  0.25866924  0.12062280  0.75429908  1
  O  O357  1  0.25434705  0.61877534  0.25359317  1
  O  O358  1  0.25759562  0.62207569  0.75058081  1
  O  O359  1  0.76033985  0.11380978  0.24041657  1
  O  O360  1  0.75391475  0.11084216  0.76214646  1
  O  O361  1  0.75501119  0.61885161  0.25869883  1
  O  O362  1  0.78589033  0.67122103  0.71958742  1
  O  O363  1  0.36893847  0.11751185  0.36455284  1
  O  O364  1  0.36890851  0.12047938  0.86687375  1
  O  O365  1  0.36635354  0.62374008  0.36644310  1
  O  O366  1  0.37296909  0.62175117  0.86557994  1
  O  O367  1  0.88143175  0.11426329  0.35615994  1
  O  O368  1  0.86898921  0.11231735  0.87494663  1
  O  O369  1  0.86690246  0.61652170  0.36949548  1
  O  O370  1  0.83323087  0.66993673  0.90661089  1
  O  O371  1  0.12932225  0.37298038  0.14077285  1
  O  O372  1  0.13434278  0.37676515  0.62874092  1
  O  O373  1  0.13614394  0.86330483  0.13106925  1
  O  O374  1  0.13655626  0.87055171  0.62237145  1
  O  O375  1  0.61408323  0.38415678  0.13232177  1
  O  O376  1  0.63667033  0.37193798  0.62538168  1
  O  O377  1  0.62536432  0.88116295  0.11945750  1
  O  O378  1  0.63112534  0.87847783  0.63586927  1
  O  O379  1  0.12481989  0.25957089  0.26305434  1
  O  O380  1  0.12101295  0.25377793  0.74759021  1
  O  O381  1  0.11915456  0.75799435  0.25534994  1
  O  O382  1  0.12108648  0.75269600  0.75434910  1
  O  O383  1  0.62215036  0.24189077  0.25660247  1
  O  O384  1  0.62580470  0.23865563  0.76558393  1
  O  O385  1  0.61018088  0.75372872  0.25537566  1
  O  O386  1  0.61491714  0.75819311  0.75824272  1
  O  O387  1  0.37354787  0.23740137  0.24997696  1
  O  O388  1  0.37669047  0.23917029  0.74544288  1
  O  O389  1  0.37516513  0.74553797  0.24411299  1
  O  O390  1  0.38028949  0.74961545  0.74177278  1
  O  O391  1  0.87293398  0.23974708  0.23884159  1
  O  O392  1  0.89482998  0.25527437  0.74509478  1
  O  O393  1  0.88082158  0.74177358  0.25471970  1
  O  O394  1  0.89436913  0.76926686  0.74602491  1
  O  O395  1  0.37386964  0.48820144  0.49978976  1
  O  O396  1  0.38281982  0.49513697  0.99621600  1
  O  O397  1  0.38147446  0.99836142  0.48774417  1
  O  O398  1  0.37032786  0.99691880  0.98320739  1
  O  O399  1  0.87310975  0.48865452  0.49138025  1
  O  O400  1  0.86640511  0.50909181  0.98897827  1
  O  O401  1  0.88222537  0.98447116  0.49250013  1
  O  O402  1  0.88171070  0.98450663  0.99558993  1
  O  O403  1  0.12857988  0.00000008  -0.00300289  1
  O  O404  1  0.10828026  -0.00211767  0.48908440  1
  O  O405  1  0.14093231  0.52114987  -0.00010939  1
  O  O406  1  0.13246495  0.51320983  0.50046336  1
  O  O407  1  0.62430660  -0.00183467  -0.00494583  1
  O  O408  1  0.61341678  -0.00286737  0.50077221  1
  O  O409  1  0.61779476  0.50966577  0.01898216  1
  O  O410  1  0.63062704  0.50148549  0.49480772  1
  O  O411  1  0.36983056  0.37940717  0.11280308  1
  O  O412  1  0.37340401  0.36981392  0.61799195  1
  O  O413  1  0.35956908  0.86758090  0.12138969  1
  O  O414  1  0.37056052  0.86425263  0.62025329  1
  O  O415  1  0.88288500  0.35729095  0.12761782  1
  O  O416  1  0.87552275  0.37502062  0.62629812  1
  O  O417  1  0.86710338  0.87369335  0.11811704  1
  O  O418  1  0.86500918  0.85865876  0.61575103  1
  O  O419  1  0.12935030  0.13226042  0.37511387  1
  O  O420  1  0.14246895  0.12539143  0.87713707  1
  O  O421  1  0.12954383  0.62903146  0.38083145  1
  O  O422  1  0.13684166  0.63378981  0.86919598  1
  O  O423  1  0.62945193  0.12018390  0.38144355  1
  O  O424  1  0.63131594  0.12597708  0.88385098  1
  O  O425  1  0.63188238  0.63366599  0.36728797  1
  O  O426  1  0.62128380  0.63805060  0.88999862  1
