# generated using pymatgen
data_V85Zn86O256
_symmetry_space_group_name_H-M   'P 1'
_cell_length_a   16.94684584
_cell_length_b   16.95683329
_cell_length_c   16.95551180
_cell_angle_alpha   90.05274890
_cell_angle_beta   90.06210594
_cell_angle_gamma   90.12872445
_symmetry_Int_Tables_number   1
_chemical_formula_structural   V85Zn86O256
_chemical_formula_sum   'V85 Zn86 O256'
_cell_volume   4872.40069594
_cell_formula_units_Z   1
loop_
 _symmetry_equiv_pos_site_id
 _symmetry_equiv_pos_as_xyz
  1  'x, y, z'
loop_
 _atom_site_type_symbol
 _atom_site_label
 _atom_site_symmetry_multiplicity
 _atom_site_fract_x
 _atom_site_fract_y
 _atom_site_fract_z
 _atom_site_occupancy
  V  V0  1  0.00317694  0.87644219  0.37970614  1
  V  V1  1  0.62548215  0.62515982  0.49034794  1
  V  V2  1  0.37766046  0.63317165  0.74918319  1
  V  V3  1  0.87290391  0.01132138  0.86986004  1
  V  V4  1  0.25222765  0.62248298  0.87971811  1
  V  V5  1  0.37131338  0.85567431  0.51055276  1
  V  V6  1  -0.00175871  -0.00294041  -0.00025807  1
  V  V7  1  0.88413765  0.62168296  0.24629249  1
  V  V8  1  0.86654610  0.24753091  0.12599772  1
  V  V9  1  0.38490266  0.23997819  0.13902455  1
  V  V10  1  0.50393667  0.01773008  0.00675056  1
  V  V11  1  0.37415263  0.49959879  0.37632084  1
  V  V12  1  0.74118468  0.87558413  0.63496104  1
  V  V13  1  0.12415631  0.75032385  0.87944011  1
  V  V14  1  0.74522134  0.37267857  0.12011832  1
  V  V15  1  0.12324672  0.37473593  0.24893698  1
  V  V16  1  0.24670176  0.63317488  0.37397695  1
  V  V17  1  0.25311115  0.75067666  0.00358526  1
  V  V18  1  0.24303849  0.12345584  0.37391757  1
  V  V19  1  0.24968111  0.37321512  0.12520665  1
  V  V20  1  0.12288359  0.62446137  0.00276278  1
  V  V21  1  0.86568760  -0.00030619  0.37295954  1
  V  V22  1  0.86782242  0.49889660  0.86954948  1
  V  V23  1  0.74776658  0.49995943  0.24827065  1
  V  V24  1  0.87450765  0.74185295  0.11553407  1
  V  V25  1  0.37757324  0.36459168  0.50322443  1
  V  V26  1  0.49785546  0.63189896  0.62452389  1
  V  V27  1  0.12007943  0.50477110  0.12617733  1
  V  V28  1  0.25722572  0.11195104  0.87329933  1
  V  V29  1  0.25374170  0.49549394  0.75419721  1
  V  V30  1  0.63084823  0.76052407  0.87396353  1
  V  V31  1  -0.00204756  0.24796224  0.24924761  1
  V  V32  1  0.12106323  0.36746815  0.75127569  1
  V  V33  1  0.87877618  0.24796903  0.64140017  1
  V  V34  1  0.14657937  -0.00014024  0.62756912  1
  V  V35  1  0.49103625  0.88045130  0.87266135  1
  V  V36  1  -0.00684849  0.11946875  0.63848332  1
  V  V37  1  0.38498690  0.62882942  0.25111375  1
  V  V38  1  0.63574851  0.50066028  0.62667580  1
  V  V39  1  0.00278814  0.50551571  0.49863157  1
  V  V40  1  0.74409006  0.75278948  0.50210116  1
  V  V41  1  0.25072034  0.24914971  -0.00232726  1
  V  V42  1  0.67329327  0.80581929  0.31449989  1
  V  V43  1  0.87107487  0.37424200  0.00057577  1
  V  V44  1  -0.00017046  0.62759967  0.62169330  1
  V  V45  1  -0.00288720  0.37423390  0.37570243  1
  V  V46  1  0.49165354  0.25458974  0.73884651  1
  V  V47  1  0.38767466  0.75316056  0.12686865  1
  V  V48  1  0.61998389  0.00105272  0.63113795  1
  V  V49  1  0.12115305  0.25059958  0.37674257  1
  V  V50  1  0.62311837  0.24031836  0.88068007  1
  V  V51  1  0.50016759  0.61831822  0.11518764  1
  V  V52  1  0.12441263  0.87311769  0.25196929  1
  V  V53  1  0.25314801  0.37094971  0.62669431  1
  V  V54  1  0.12572955  -0.00039602  0.12597760  1
  V  V55  1  0.40701731  0.03067819  0.36162564  1
  V  V56  1  0.50172966  0.49729657  0.50045687  1
  V  V57  1  -0.00232400  0.87446796  0.87474040  1
  V  V58  1  0.50028001  0.38026830  0.87662681  1
  V  V59  1  -0.00197521  0.50368923  0.00066404  1
  V  V60  1  0.62818863  0.62079776  -0.00592170  1
  V  V61  1  0.25625722  0.00414630  0.25278241  1
  V  V62  1  0.62848292  0.12705316  0.50145811  1
  V  V63  1  0.63313290  0.37790488  0.75012302  1
  V  V64  1  0.62522866  0.24986659  0.37009978  1
  V  V65  1  0.87215117  0.75090186  0.62460821  1
  V  V66  1  -0.00127201  0.12478643  0.12472780  1
  V  V67  1  0.12568854  0.49892550  0.62417126  1
  V  V68  1  0.63278503  0.00692533  0.13226860  1
  V  V69  1  0.86411936  0.62121386  0.74753930  1
  V  V70  1  0.86093710  0.87238116  -0.00225589  1
  V  V71  1  -0.00293948  0.36391792  0.87305621  1
  V  V72  1  0.74704783  0.01269769  0.75008854  1
  V  V73  1  0.37894459  0.37933867  0.00184898  1
  V  V74  1  0.12211505  0.12598228  -0.00156850  1
  V  V75  1  0.48950568  0.13034298  0.61814517  1
  V  V76  1  0.87533798  0.37038958  0.49987764  1
  V  V77  1  0.24748721  0.24886834  0.50550846  1
  V  V78  1  0.25238724  0.87495282  0.12613180  1
  V  V79  1  0.61651052  0.37040881  0.24649641  1
  V  V80  1  -0.00249144  0.74923306  0.75108668  1
  V  V81  1  0.49118358  0.85653981  0.36297969  1
  V  V82  1  0.13847502  0.88001805  0.75005586  1
  V  V83  1  0.18581616  0.68260374  0.54863078  1
  V  V84  1  0.24956519  0.50071805  0.25188145  1
  Zn  Zn85  1  0.74350929  0.87353780  0.13358766  1
  Zn  Zn86  1  0.73129433  0.12275443  0.88849439  1
  Zn  Zn87  1  0.61766770  0.49509544  0.11705370  1
  Zn  Zn88  1  0.12014032  0.12296420  0.50397939  1
  Zn  Zn89  1  0.87315288  0.50165800  0.37476831  1
  Zn  Zn90  1  0.37799562  0.88380888  0.00035949  1
  Zn  Zn91  1  0.87338014  0.87767817  0.50389632  1
  Zn  Zn92  1  0.38116995  0.50411941  0.88269261  1
  Zn  Zn93  1  0.75045726  0.12555551  0.37107738  1
  Zn  Zn94  1  0.11867784  0.24407083  0.87182614  1
  Zn  Zn95  1  0.75529914  0.37649213  0.62831644  1
  Zn  Zn96  1  0.86963992  0.11198811  0.24497903  1
  Zn  Zn97  1  0.50303227  0.76018751  0.74643453  1
  Zn  Zn98  1  -0.00139169  0.00104344  0.50464066  1
  Zn  Zn99  1  0.75000344  0.62883995  0.87623520  1
  Zn  Zn100  1  0.36322986  0.11922242  0.74142167  1
  Zn  Zn101  1  0.74892761  0.62868229  0.36799699  1
  Zn  Zn102  1  0.00522745  0.74304160  0.24336590  1
  Zn  Zn103  1  0.75339626  0.24931620  0.50274354  1
  Zn  Zn104  1  0.49797784  0.37387250  0.36900681  1
  Zn  Zn105  1  0.50101910  -0.01207696  0.49944966  1
  Zn  Zn106  1  0.12234709  0.74634810  0.37759950  1
  Zn  Zn107  1  0.19001624  0.18717536  0.18558911  1
  Zn  Zn108  1  0.18474215  0.18361633  0.68872299  1
  Zn  Zn109  1  0.19128353  0.68746323  0.18926323  1
  Zn  Zn110  1  0.18677960  0.68740475  0.70958208  1
  Zn  Zn111  1  0.68664666  0.18026841  0.18937656  1
  Zn  Zn112  1  0.68449965  0.19170999  0.68826114  1
  Zn  Zn113  1  0.69396806  0.68319884  0.17573190  1
  Zn  Zn114  1  0.68113683  0.68778934  0.68813554  1
  Zn  Zn115  1  0.31021009  0.31186724  0.31638667  1
  Zn  Zn116  1  0.31407316  0.30812059  0.81612529  1
  Zn  Zn117  1  0.31486496  0.81343391  0.31201944  1
  Zn  Zn118  1  0.31633638  0.81090824  0.81535496  1
  Zn  Zn119  1  0.80737715  0.30893537  0.30995941  1
  Zn  Zn120  1  0.80604374  0.31030409  0.81568396  1
  Zn  Zn121  1  0.83493470  0.80949925  0.31096600  1
  Zn  Zn122  1  0.80867994  0.81492523  0.81093598  1
  Zn  Zn123  1  0.18706628  0.43814806  0.43814205  1
  Zn  Zn124  1  0.18655498  0.43422508  0.93745829  1
  Zn  Zn125  1  0.19065043  0.93547971  0.44131043  1
  Zn  Zn126  1  0.18831131  0.93667861  0.93915541  1
  Zn  Zn127  1  0.68994030  0.43515672  0.43434237  1
  Zn  Zn128  1  0.68446487  0.43813296  0.93654863  1
  Zn  Zn129  1  0.68518926  0.93862117  0.44464596  1
  Zn  Zn130  1  0.67888614  0.94347169  0.93927507  1
  Zn  Zn131  1  0.31787323  0.06342900  0.05986175  1
  Zn  Zn132  1  0.31732676  0.06020766  0.54644048  1
  Zn  Zn133  1  0.31212259  0.56187039  0.06586151  1
  Zn  Zn134  1  0.31913341  0.55506055  0.56652232  1
  Zn  Zn135  1  0.80227500  0.06143980  0.06017321  1
  Zn  Zn136  1  0.81340977  0.06217904  0.56137923  1
  Zn  Zn137  1  0.80743105  0.56131965  0.06152240  1
  Zn  Zn138  1  0.81392831  0.56409202  0.55723120  1
  Zn  Zn139  1  0.43450656  0.43771279  0.18460821  1
  Zn  Zn140  1  0.43911656  0.44072369  0.68558435  1
  Zn  Zn141  1  0.44629082  0.93952327  0.18500939  1
  Zn  Zn142  1  0.43234541  0.94335833  0.68873032  1
  Zn  Zn143  1  0.93668060  0.43693968  0.18641102  1
  Zn  Zn144  1  0.93855586  0.43727193  0.68736504  1
  Zn  Zn145  1  0.93583889  0.93206961  0.18622543  1
  Zn  Zn146  1  0.93362234  0.93636724  0.69119320  1
  Zn  Zn147  1  0.06000198  0.06005384  0.31170168  1
  Zn  Zn148  1  0.06509434  0.06046990  0.81211693  1
  Zn  Zn149  1  0.06332333  0.56233565  0.31584638  1
  Zn  Zn150  1  0.05885030  0.55871793  0.81325502  1
  Zn  Zn151  1  0.57206144  0.05593589  0.31596003  1
  Zn  Zn152  1  0.52945664  0.05365413  0.80022618  1
  Zn  Zn153  1  0.56238662  0.55992885  0.30908952  1
  Zn  Zn154  1  0.56348599  0.56253154  0.81104549  1
  Zn  Zn155  1  0.44510582  0.18493956  0.42189043  1
  Zn  Zn156  1  0.43750403  0.19547794  0.93728059  1
  Zn  Zn157  1  0.43597273  0.68966616  0.43911059  1
  Zn  Zn158  1  0.44258577  0.69377372  0.93729309  1
  Zn  Zn159  1  0.93876315  0.18245082  0.44452947  1
  Zn  Zn160  1  0.90633964  0.17402576  0.95092740  1
  Zn  Zn161  1  0.93482927  0.68909506  0.43439492  1
  Zn  Zn162  1  0.93585313  0.68484325  0.93735370  1
  Zn  Zn163  1  0.05967915  0.31317862  0.06019175  1
  Zn  Zn164  1  0.05826640  0.31005883  0.56649371  1
  Zn  Zn165  1  0.05883371  0.81166177  0.06437189  1
  Zn  Zn166  1  0.06145845  0.82211104  0.56787470  1
  Zn  Zn167  1  0.55857337  0.30445235  0.06094051  1
  Zn  Zn168  1  0.56671902  0.31276138  0.56077058  1
  Zn  Zn169  1  0.56992521  0.81740748  0.05709121  1
  Zn  Zn170  1  0.55993752  0.81360724  0.55764698  1
  O  O171  1  0.11886633  0.11922344  0.11844291  1
  O  O172  1  0.11720553  0.11091974  0.62766221  1
  O  O173  1  0.13074412  0.61181951  0.12126866  1
  O  O174  1  0.12559092  0.62427806  0.61816954  1
  O  O175  1  0.63376104  0.10949458  0.11940214  1
  O  O176  1  0.61984257  0.12197507  0.61727179  1
  O  O177  1  0.61682696  0.62574693  0.11131365  1
  O  O178  1  0.61966461  0.61637526  0.61543884  1
  O  O179  1  0.37546953  0.38260213  0.38311386  1
  O  O180  1  0.38208342  0.37462246  0.88399415  1
  O  O181  1  0.38523887  0.86901837  0.38185903  1
  O  O182  1  0.38629183  0.87306964  0.87996604  1
  O  O183  1  0.88101654  0.37530748  0.38184361  1
  O  O184  1  0.87695201  0.37915320  0.88123633  1
  O  O185  1  0.88479366  0.88361931  0.37985419  1
  O  O186  1  0.88230005  0.87646801  0.87952665  1
  O  O187  1  0.24174582  0.01049865  0.36642960  1
  O  O188  1  0.25078389  0.01281569  0.88069167  1
  O  O189  1  0.25441541  0.50737551  0.37130927  1
  O  O190  1  0.25138352  0.50416010  0.86927544  1
  O  O191  1  0.76327557  -0.00400468  0.37860756  1
  O  O192  1  0.75319746  0.00382778  0.86767832  1
  O  O193  1  0.75241422  0.49878716  0.35927344  1
  O  O194  1  0.76469844  0.50156990  0.87939083  1
  O  O195  1  0.24237116  0.49303869  0.13212825  1
  O  O196  1  0.24331024  0.49344712  0.63297770  1
  O  O197  1  0.24731617  0.99475431  0.13268474  1
  O  O198  1  0.24481580  1.00947148  0.62468654  1
  O  O199  1  0.74625710  0.49068341  0.13235690  1
  O  O200  1  0.73901349  0.50067637  0.61987539  1
  O  O201  1  0.74135283  0.99258062  0.12220287  1
  O  O202  1  0.74434956  0.99457902  0.63162618  1
  O  O203  1  0.00537555  0.36999010  0.25509539  1
  O  O204  1  0.01017628  0.38295098  0.76016926  1
  O  O205  1  0.01375274  0.87584233  0.25608682  1
  O  O206  1  0.00439288  0.86940622  0.76118702  1
  O  O207  1  0.51319412  0.38352728  0.24838692  1
  O  O208  1  0.50396278  0.36819857  0.75174353  1
  O  O209  1  0.49163888  0.86847702  0.26316869  1
  O  O210  1  0.49633516  0.87603392  0.76646806  1
  O  O211  1  0.47034901  0.10772802  0.32472179  1
  O  O212  1  0.51155156  0.14819176  0.73282048  1
  O  O213  1  0.48878339  0.62120120  0.24316983  1
  O  O214  1  0.49124647  0.62114009  0.74138164  1
  O  O215  1  0.99668243  0.13025698  0.24144389  1
  O  O216  1  1.00841258  0.12713767  0.73658122  1
  O  O217  1  0.98845168  0.62040690  0.25041583  1
  O  O218  1  0.99527099  0.63051143  0.74223557  1
  O  O219  1  0.36639805  0.25996860  0.00809078  1
  O  O220  1  0.36644544  0.26079948  0.49031105  1
  O  O221  1  0.36615732  0.74817235  0.00997459  1
  O  O222  1  0.37200364  0.75459383  0.50704666  1
  O  O223  1  0.88508632  0.26950080  0.01220716  1
  O  O224  1  0.87521062  0.25753004  0.50752811  1
  O  O225  1  0.87932574  0.75563575  0.00750192  1
  O  O226  1  0.86025376  0.74884033  0.50568372  1
  O  O227  1  0.13052716  0.25294274  0.49424208  1
  O  O228  1  0.13066476  0.24242694  1.00036214  1
  O  O229  1  0.12583019  0.75007713  0.49943322  1
  O  O230  1  0.13072775  0.74428266  0.99894716  1
  O  O231  1  0.63181865  0.24439476  0.49562064  1
  O  O232  1  0.61821869  0.25157255  0.97983638  1
  O  O233  1  0.63620461  0.73955156  0.50508013  1
  O  O234  1  0.61962537  0.73694067  0.98297932  1
  O  O235  1  0.48462678  0.24966796  0.12637503  1
  O  O236  1  0.49921661  0.25021844  0.63157947  1
  O  O237  1  0.49019182  0.74132753  0.11858092  1
  O  O238  1  0.51021852  0.73551407  0.62844682  1
  O  O239  1  0.99254442  0.24579847  0.12971247  1
  O  O240  1  0.98752623  0.23890777  0.62446318  1
  O  O241  1  0.98263715  0.75532499  0.12711846  1
  O  O242  1  0.99416740  0.74621979  0.62959686  1
  O  O243  1  0.00372590  0.25342353  0.37069469  1
  O  O244  1  -0.00293301  0.26328289  0.88382950  1
  O  O245  1  -0.00060094  0.76283999  0.37030901  1
  O  O246  1  0.00468385  0.75526930  0.87247831  1
  O  O247  1  0.51952931  0.26041582  0.38049768  1
  O  O248  1  0.50536428  0.26063643  0.86241004  1
  O  O249  1  0.50256683  0.75616711  0.37516843  1
  O  O250  1  0.50710757  0.76282934  0.87122756  1
  O  O251  1  0.23957726  0.13395313  0.49530976  1
  O  O252  1  0.24337492  0.13111104  0.99372695  1
  O  O253  1  0.24972121  0.61970188  0.49438659  1
  O  O254  1  0.24388222  0.62936100  0.99753201  1
  O  O255  1  0.73983187  0.12568835  0.49738494  1
  O  O256  1  0.79857871  0.13316672  0.97748233  1
  O  O257  1  0.74298005  0.63234791  0.49464223  1
  O  O258  1  0.73404141  0.62486648  0.99864778  1
  O  O259  1  0.25360273  0.36732566  0.00535793  1
  O  O260  1  0.25589968  0.36851786  0.50505198  1
  O  O261  1  0.25338123  0.86863497  0.00712712  1
  O  O262  1  0.27397228  0.88191750  0.49406394  1
  O  O263  1  0.75621591  0.38083803  0.01078770  1
  O  O264  1  0.76570489  0.37850319  0.50353333  1
  O  O265  1  0.76076066  0.87702440  -0.00801621  1
  O  O266  1  0.74955653  0.86695517  0.51108443  1
  O  O267  1  0.12716539  0.49521056  0.24247062  1
  O  O268  1  0.13621612  0.49401905  0.74645491  1
  O  O269  1  0.13197547  0.99234185  0.24387426  1
  O  O270  1  0.12552714  0.99228026  0.73884276  1
  O  O271  1  0.63228104  0.49307894  0.24309749  1
  O  O272  1  0.61803202  0.49128525  0.73772556  1
  O  O273  1  0.62127144  1.00196214  0.23330571  1
  O  O274  1  0.62706086  1.00549034  0.73656606  1
  O  O275  1  0.36437683  -0.00701788  0.26156826  1
  O  O276  1  0.42013957  0.02519115  0.76156274  1
  O  O277  1  0.36915327  0.50618608  0.25613965  1
  O  O278  1  0.36305379  0.50418166  0.75158313  1
  O  O279  1  0.88204110  -0.00484202  0.26732149  1
  O  O280  1  0.85853448  -0.01150961  0.76008567  1
  O  O281  1  0.86777035  0.50525940  0.24747594  1
  O  O282  1  0.88125454  0.50894138  0.75738398  1
  O  O283  1  0.11764542  0.37004583  0.36963189  1
  O  O284  1  0.11458542  0.37455299  0.86832060  1
  O  O285  1  0.12104750  0.87248871  0.36930817  1
  O  O286  1  0.11743848  0.87040132  0.87183644  1
  O  O287  1  0.62571912  0.37080982  0.36295116  1
  O  O288  1  0.61803515  0.37194552  0.86693766  1
  O  O289  1  0.61753222  0.86840449  0.37608807  1
  O  O290  1  0.62001417  0.86317285  0.87765152  1
  O  O291  1  0.36473964  0.14190315  0.12776859  1
  O  O292  1  0.38615909  0.12350201  0.61931769  1
  O  O293  1  0.38093577  0.63016942  0.13100980  1
  O  O294  1  0.38653500  0.61676088  0.63481740  1
  O  O295  1  0.88128860  0.13367797  0.12526119  1
  O  O296  1  0.88359272  0.13423445  0.62686451  1
  O  O297  1  0.87252539  0.63394304  0.12655113  1
  O  O298  1  0.87883993  0.63015740  0.63088871  1
  O  O299  1  0.25008517  0.25703024  0.11497148  1
  O  O300  1  0.24390883  0.25277333  0.61274072  1
  O  O301  1  0.25682546  0.75569112  0.12010256  1
  O  O302  1  0.23781952  0.73327311  0.61528806  1
  O  O303  1  0.76099255  0.25724445  0.12660400  1
  O  O304  1  0.76544572  0.25149985  0.62511062  1
  O  O305  1  0.76886025  0.75495777  0.12579826  1
  O  O306  1  0.74977000  0.75612781  0.62030594  1
  O  O307  1  0.23715166  0.24862658  0.38390171  1
  O  O308  1  0.24411694  0.24993901  0.88932059  1
  O  O309  1  0.24989030  0.73601395  0.37222639  1
  O  O310  1  0.24447539  0.74296654  0.88361381  1
  O  O311  1  0.73896387  0.25365620  0.38224720  1
  O  O312  1  0.72815166  0.24617560  0.86663358  1
  O  O313  1  0.74479323  0.75413703  0.37859375  1
  O  O314  1  0.73613071  0.74880177  0.87123893  1
  O  O315  1  0.00157898  0.11785450  0.00626903  1
  O  O316  1  0.00417222  0.12144304  0.51639684  1
  O  O317  1  0.00581285  0.61141459  -0.00517185  1
  O  O318  1  -0.00619363  0.61660326  0.50590963  1
  O  O319  1  0.49747290  0.11570800  -0.00712268  1
  O  O320  1  0.51199906  0.13118143  0.50579752  1
  O  O321  1  0.50865535  0.62620119  0.00509145  1
  O  O322  1  0.50575419  0.61793422  0.50518127  1
  O  O323  1  0.49297327  0.38204125  0.50107011  1
  O  O324  1  0.49039603  0.37012529  0.99035308  1
  O  O325  1  0.48818868  0.86977984  0.49023311  1
  O  O326  1  0.49674594  0.87374730  0.98813706  1
  O  O327  1  0.99094918  0.38077240  0.49740352  1
  O  O328  1  0.99375893  0.38630484  0.99311573  1
  O  O329  1  0.99642580  0.87754369  0.49307116  1
  O  O330  1  0.99657382  0.87772354  0.98837726  1
  O  O331  1  0.49520436  0.49853319  0.38650775  1
  O  O332  1  0.49754139  0.48451820  0.86717598  1
  O  O333  1  0.50506367  0.97621888  0.37762168  1
  O  O334  1  0.51438492  0.98380526  0.89141885  1
  O  O335  1  0.99820328  0.49312843  0.38353064  1
  O  O336  1  0.98897517  0.49253934  0.88270727  1
  O  O337  1  0.99807526  0.98841952  0.37912346  1
  O  O338  1  0.99724052  0.98925856  0.87799371  1
  O  O339  1  0.00426268  0.00334727  0.12006820  1
  O  O340  1  -0.00598946  0.01128174  0.62755616  1
  O  O341  1  0.00936993  0.49303709  0.11476473  1
  O  O342  1  0.00713782  0.50831896  0.62006087  1
  O  O343  1  0.51053155  0.00100818  0.11455250  1
  O  O344  1  0.50738614  0.01195303  0.61718148  1
  O  O345  1  0.49834863  0.51394172  0.12586741  1
  O  O346  1  0.50744728  0.50687626  0.61338164  1
  O  O347  1  0.24155956  0.38128680  0.24694967  1
  O  O348  1  0.24616892  0.37941517  0.74832840  1
  O  O349  1  0.24086194  0.88228417  0.24837314  1
  O  O350  1  0.23730562  0.86759500  0.75703314  1
  O  O351  1  0.74297773  0.38012046  0.23724611  1
  O  O352  1  0.73727396  0.37644992  0.74874624  1
  O  O353  1  0.74108093  0.85971945  0.25990318  1
  O  O354  1  0.74539852  0.88029520  0.73843122  1
  O  O355  1  0.24011452  0.11315449  0.25746854  1
  O  O356  1  0.24957739  0.13146079  0.76747429  1
  O  O357  1  0.25865203  0.61789368  0.25697570  1
  O  O358  1  0.25781021  0.61521522  0.75915980  1
  O  O359  1  0.76154983  0.13695762  0.25893101  1
  O  O360  1  0.74583147  0.11444743  0.75103790  1
  O  O361  1  0.75907615  0.61506006  0.24653608  1
  O  O362  1  0.76173443  0.62671770  0.74900675  1
  O  O363  1  0.34629954  0.13328575  0.38335285  1
  O  O364  1  0.35709370  0.13424657  0.87997026  1
  O  O365  1  0.37026452  0.61944326  0.36853217  1
  O  O366  1  0.37168153  0.62277678  0.86953531  1
  O  O367  1  0.87881063  0.10846582  0.37660222  1
  O  O368  1  0.89772636  0.10693971  0.85708437  1
  O  O369  1  0.87009321  0.62317455  0.36238100  1
  O  O370  1  0.87374401  0.61765137  0.86574291  1
  O  O371  1  0.12955432  0.38364415  0.12815749  1
  O  O372  1  0.12918739  0.37943899  0.63359058  1
  O  O373  1  0.13094087  0.87945745  0.13206974  1
  O  O374  1  0.12395549  0.88982877  0.63639003  1
  O  O375  1  0.62986171  0.37230796  0.12684282  1
  O  O376  1  0.62814783  0.38383713  0.63081721  1
  O  O377  1  0.63007306  0.88752406  0.11946930  1
  O  O378  1  0.62969572  0.88686142  0.61777351  1
  O  O379  1  0.11795761  0.25513312  0.25454478  1
  O  O380  1  0.12895040  0.26403895  0.75209854  1
  O  O381  1  0.12397366  0.75840801  0.25076299  1
  O  O382  1  0.11543318  0.75776013  0.75984966  1
  O  O383  1  0.62920983  0.25929818  0.25613302  1
  O  O384  1  0.61429448  0.26384759  0.75127028  1
  O  O385  1  0.62861853  0.73991505  0.25494196  1
  O  O386  1  0.61877220  0.73897155  0.76851343  1
  O  O387  1  0.36863778  0.25691488  0.23776653  1
  O  O388  1  0.38897086  0.24622287  0.75176893  1
  O  O389  1  0.36676365  0.73854382  0.23852935  1
  O  O390  1  0.37708563  0.73634902  0.75092692  1
  O  O391  1  0.88463447  0.25647260  0.23953091  1
  O  O392  1  0.87621857  0.25812111  0.73967683  1
  O  O393  1  0.88138231  0.73790107  0.23811324  1
  O  O394  1  0.87913649  0.74242722  0.74535422  1
  O  O395  1  0.38339965  0.49130493  0.49485430  1
  O  O396  1  0.36704423  0.48446141  1.00100740  1
  O  O397  1  0.38624246  1.01079038  0.46947605  1
  O  O398  1  0.39467717  0.99879068  1.00855458  1
  O  O399  1  0.88686892  0.49279382  0.50029802  1
  O  O400  1  0.88080364  0.49266845  0.99638427  1
  O  O401  1  0.87721697  0.99674310  0.48957722  1
  O  O402  1  0.88276892  0.98769271  0.98986614  1
  O  O403  1  0.11834604  0.00459649  0.00674580  1
  O  O404  1  0.12390849  -0.00331724  0.51847168  1
  O  O405  1  0.11802950  0.50295514  0.00639174  1
  O  O406  1  0.11117125  0.49270914  0.50720657  1
  O  O407  1  0.61297070  0.00215757  0.00924387  1
  O  O408  1  0.62295639  0.01015625  0.50936141  1
  O  O409  1  0.62337467  0.51400603  -0.00111371  1
  O  O410  1  0.61938366  0.50321770  0.50446057  1
  O  O411  1  0.36726054  0.36920591  0.11936564  1
  O  O412  1  0.36623621  0.38159122  0.61448932  1
  O  O413  1  0.37061809  0.86707538  0.12698742  1
  O  O414  1  0.38316976  0.88141883  0.60886094  1
  O  O415  1  0.86653130  0.37091062  0.11866198  1
  O  O416  1  0.87861808  0.36456248  0.61983861  1
  O  O417  1  0.86998798  0.86804013  0.11447773  1
  O  O418  1  0.86519907  0.86610347  0.62530917  1
  O  O419  1  0.12612352  0.13289615  0.37776287  1
  O  O420  1  0.13257054  0.12538371  0.88243068  1
  O  O421  1  0.13685060  0.62691734  0.37346991  1
  O  O422  1  0.12981591  0.62964637  0.88066807  1
  O  O423  1  0.62913180  0.13239107  0.38338490  1
  O  O424  1  0.61462236  0.13876702  0.86504451  1
  O  O425  1  0.62675483  0.61726071  0.38717717  1
  O  O426  1  0.62590480  0.62691835  0.88267198  1
