# generated using pymatgen
data_V85Zn86O256
_symmetry_space_group_name_H-M   'P 1'
_cell_length_a   16.96764278
_cell_length_b   16.95784902
_cell_length_c   16.95422116
_cell_angle_alpha   89.97365568
_cell_angle_beta   89.99790709
_cell_angle_gamma   89.99059477
_symmetry_Int_Tables_number   1
_chemical_formula_structural   V85Zn86O256
_chemical_formula_sum   'V85 Zn86 O256'
_cell_volume   4878.31757129
_cell_formula_units_Z   1
loop_
 _symmetry_equiv_pos_site_id
 _symmetry_equiv_pos_as_xyz
  1  'x, y, z'
loop_
 _atom_site_type_symbol
 _atom_site_label
 _atom_site_symmetry_multiplicity
 _atom_site_fract_x
 _atom_site_fract_y
 _atom_site_fract_z
 _atom_site_occupancy
  V  V0  1  0.00130789  0.36261988  0.87174008  1
  V  V1  1  0.25412533  0.37972876  0.62425952  1
  V  V2  1  0.74794620  0.87649208  0.11575053  1
  V  V3  1  0.49849578  0.50180660  -0.00159699  1
  V  V4  1  0.75167469  0.49929919  0.24701736  1
  V  V5  1  0.87436098  0.75140888  0.12163783  1
  V  V6  1  0.12489379  0.37950352  0.24371099  1
  V  V7  1  0.24775816  0.25278176  0.49554149  1
  V  V8  1  0.87647278  0.00040525  0.36416430  1
  V  V9  1  0.24732265  0.63087839  0.87350532  1
  V  V10  1  0.37962997  -0.01329579  0.37310658  1
  V  V11  1  0.86311773  0.09962443  0.74629207  1
  V  V12  1  0.50406200  -0.00312110  0.50257527  1
  V  V13  1  0.50639847  0.12959618  0.63010033  1
  V  V14  1  0.62595459  0.62888536  0.49966459  1
  V  V15  1  0.49949662  0.50180128  0.49880374  1
  V  V16  1  0.49901800  0.37695224  0.37320854  1
  V  V17  1  0.24993606  0.75194091  0.00247412  1
  V  V18  1  0.37193159  0.37374331  -0.00099966  1
  V  V19  1  0.24844654  0.12617584  0.37613528  1
  V  V20  1  0.74930843  0.37717708  0.62547774  1
  V  V21  1  0.75257596  0.75245116  0.50030421  1
  V  V22  1  0.62489365  0.75771156  0.36054189  1
  V  V23  1  0.75322636  0.62401504  0.87663918  1
  V  V24  1  0.49808254  0.24833813  0.24312836  1
  V  V25  1  0.62706050  0.12572270  0.49943852  1
  V  V26  1  0.12235459  0.24686673  0.37587380  1
  V  V27  1  0.12586138  0.62620168  0.48326131  1
  V  V28  1  0.13832247  0.12882021  -0.00124373  1
  V  V29  1  0.25447374  0.74159709  0.48104157  1
  V  V30  1  0.75014211  0.12474577  0.36995753  1
  V  V31  1  0.60816836  -0.00593933  0.12389490  1
  V  V32  1  0.24569082  0.87568744  0.13381520  1
  V  V33  1  0.74882938  0.12095943  0.88623131  1
  V  V34  1  0.62900272  0.62905551  0.00035873  1
  V  V35  1  0.01151819  0.62676434  0.63030030  1
  V  V36  1  0.00688477  0.49355894  0.00014959  1
  V  V37  1  0.37752492  0.37143290  0.50202913  1
  V  V38  1  0.32426070  0.91098356  0.53393385  1
  V  V39  1  0.74998012  0.25169911  0.49925413  1
  V  V40  1  0.14165856  0.23949445  0.87162798  1
  V  V41  1  0.01051135  0.75201076  0.24961263  1
  V  V42  1  0.24482394  -0.00021688  0.25386735  1
  V  V43  1  0.36878794  0.24745067  0.11921879  1
  V  V44  1  0.12533630  0.36427607  0.74870912  1
  V  V45  1  0.37878036  0.88691564  0.00157747  1
  V  V46  1  0.38013339  0.75275760  0.12920152  1
  V  V47  1  0.01068276  0.87299288  0.36487435  1
  V  V48  1  0.12437229  0.50051413  0.62473900  1
  V  V49  1  0.36961336  0.74897657  0.62090478  1
  V  V50  1  -0.00077530  0.37538243  0.37628463  1
  V  V51  1  0.36505450  0.50409057  0.37296046  1
  V  V52  1  0.50027185  0.88198542  0.87805820  1
  V  V53  1  0.62265855  0.25012107  0.37256663  1
  V  V54  1  0.36944700  0.62720275  0.25171945  1
  V  V55  1  0.75290520  0.35982503  0.11708866  1
  V  V56  1  0.86858718  -0.01786116  0.88440695  1
  V  V57  1  0.11655218  0.76518198  0.88084865  1
  V  V58  1  0.62409905  0.37410676  0.24772876  1
  V  V59  1  0.87364086  0.24966501  0.64345993  1
  V  V60  1  0.62923066  0.37538066  0.75410416  1
  V  V61  1  0.32924090  0.20522875  0.67577621  1
  V  V62  1  0.62741999  0.49981155  0.12383544  1
  V  V63  1  0.00084309  0.76122439  0.75667599  1
  V  V64  1  0.37582727  0.12813195  0.24905778  1
  V  V65  1  0.00265399  0.12697551  0.62495864  1
  V  V66  1  0.74290069  -0.00927891  0.24781853  1
  V  V67  1  0.63013816  0.88148628  0.74541774  1
  V  V68  1  0.24909434  0.50738789  0.75055158  1
  V  V69  1  0.24851764  0.38344795  0.12140112  1
  V  V70  1  0.87685734  0.37364202  0.50293284  1
  V  V71  1  0.49968085  0.75154166  0.75149633  1
  V  V72  1  0.36529796  0.00893369  0.85432379  1
  V  V73  1  0.50382438  0.25222747  0.74854353  1
  V  V74  1  0.75104180  0.62560477  0.37427856  1
  V  V75  1  -0.00859160  0.25021227  0.23946017  1
  V  V76  1  0.87900396  0.74722955  0.62348930  1
  V  V77  1  0.75165407  0.50159415  0.75033511  1
  V  V78  1  0.60274166  0.12364072  0.00485171  1
  V  V79  1  0.50184333  0.62596476  0.62565847  1
  V  V80  1  0.50199106  0.63008673  0.13133493  1
  V  V81  1  0.12004334  0.00189278  0.12519653  1
  V  V82  1  0.00416349  0.61648922  0.12584994  1
  V  V83  1  0.01033672  0.00905577  0.49588689  1
  V  V84  1  0.88045813  0.87555400  0.49337683  1
  Zn  Zn85  1  0.77519697  0.89026754  0.64055011  1
  Zn  Zn86  1  0.62499906  0.25041220  0.88499140  1
  Zn  Zn87  1  -0.00129755  0.50141816  0.50176779  1
  Zn  Zn88  1  0.37419888  0.50419763  0.87610910  1
  Zn  Zn89  1  0.17598077  -0.06919603  0.69763215  1
  Zn  Zn90  1  0.62484430  0.50156374  0.62474127  1
  Zn  Zn91  1  0.51189899  0.87313812  0.37811243  1
  Zn  Zn92  1  0.37536911  0.62752413  0.75317868  1
  Zn  Zn93  1  0.00329512  -0.00645104  -0.01406252  1
  Zn  Zn94  1  0.63771103  0.00619331  0.63183951  1
  Zn  Zn95  1  0.87330752  0.49962840  0.37742430  1
  Zn  Zn96  1  0.88299592  0.35934101  0.01097022  1
  Zn  Zn97  1  0.87543221  0.62485680  0.24931546  1
  Zn  Zn98  1  0.24112572  0.50655722  0.24813156  1
  Zn  Zn99  1  0.87994083  0.62325245  0.75263632  1
  Zn  Zn100  1  0.12705989  0.61838065  0.00579011  1
  Zn  Zn101  1  0.50033373  0.37479533  0.87567565  1
  Zn  Zn102  1  0.62669196  0.75339300  0.87535150  1
  Zn  Zn103  1  0.75899677  0.75645177  -0.00550455  1
  Zn  Zn104  1  0.86840737  0.12971349  0.23844105  1
  Zn  Zn105  1  -0.01024925  0.13015911  0.11091744  1
  Zn  Zn106  1  0.87890155  0.49542205  0.87809853  1
  Zn  Zn107  1  0.18739860  0.19192827  0.18582364  1
  Zn  Zn108  1  0.15866764  0.13337475  0.72162703  1
  Zn  Zn109  1  0.18669277  0.68692911  0.18737992  1
  Zn  Zn110  1  0.20293076  0.73959834  0.70421368  1
  Zn  Zn111  1  0.68247169  0.17870694  0.18291914  1
  Zn  Zn112  1  0.69237404  0.18934388  0.69279069  1
  Zn  Zn113  1  0.69111407  0.68843740  0.18590946  1
  Zn  Zn114  1  0.68932606  0.69271705  0.68847885  1
  Zn  Zn115  1  0.31109000  0.31782728  0.31051331  1
  Zn  Zn116  1  0.30976515  0.32145184  0.81921730  1
  Zn  Zn117  1  0.33084491  0.82180962  0.31544934  1
  Zn  Zn118  1  0.31038762  0.82699378  0.81291996  1
  Zn  Zn119  1  0.81131928  0.31562668  0.31203231  1
  Zn  Zn120  1  0.83116141  0.28658190  0.85141128  1
  Zn  Zn121  1  0.81661516  0.81289460  0.30491257  1
  Zn  Zn122  1  0.81307121  0.80610705  0.80991878  1
  Zn  Zn123  1  0.18442740  0.43780621  0.43616156  1
  Zn  Zn124  1  0.18707396  0.43673825  0.93519139  1
  Zn  Zn125  1  0.18395298  0.93364097  0.43536313  1
  Zn  Zn126  1  0.19260105  0.94152843  0.94139909  1
  Zn  Zn127  1  0.68610577  0.43959848  0.43751179  1
  Zn  Zn128  1  0.68771061  0.43819694  0.93738619  1
  Zn  Zn129  1  0.69297407  0.93773279  0.44270314  1
  Zn  Zn130  1  0.68385468  0.94418603  0.93707793  1
  Zn  Zn131  1  0.31282765  0.06331371  0.06499351  1
  Zn  Zn132  1  0.31226109  0.07537969  0.56114007  1
  Zn  Zn133  1  0.31351950  0.56423389  0.06322593  1
  Zn  Zn134  1  0.31193580  0.56724975  0.56057736  1
  Zn  Zn135  1  0.81136577  0.06314980  0.06397746  1
  Zn  Zn136  1  0.81763499  0.06108603  0.55718776  1
  Zn  Zn137  1  0.82183015  0.55609214  0.05992714  1
  Zn  Zn138  1  0.81523183  0.56331410  0.56387315  1
  Zn  Zn139  1  0.43574259  0.43991043  0.18511827  1
  Zn  Zn140  1  0.43752404  0.43990275  0.68859054  1
  Zn  Zn141  1  0.43167381  0.93376194  0.19746293  1
  Zn  Zn142  1  0.44381613  0.93874057  0.68608517  1
  Zn  Zn143  1  0.93344940  0.43588188  0.18595850  1
  Zn  Zn144  1  0.93934360  0.43659704  0.69246138  1
  Zn  Zn145  1  0.95233567  0.92362857  0.15584790  1
  Zn  Zn146  1  0.98807253  0.91853751  0.66330671  1
  Zn  Zn147  1  0.06100194  0.06611533  0.30943708  1
  Zn  Zn148  1  0.04789133  0.04742246  0.80645450  1
  Zn  Zn149  1  0.05659791  0.55901701  0.30872650  1
  Zn  Zn150  1  0.06616836  0.56337269  0.81659377  1
  Zn  Zn151  1  0.56112517  0.06274851  0.30941593  1
  Zn  Zn152  1  0.55848713  0.06139576  0.81648746  1
  Zn  Zn153  1  0.56260893  0.56476145  0.31270247  1
  Zn  Zn154  1  0.56555289  0.56395318  0.81382871  1
  Zn  Zn155  1  0.43760174  0.18448478  0.43553557  1
  Zn  Zn156  1  0.43121999  0.18657456  0.93110173  1
  Zn  Zn157  1  0.44058229  0.68918933  0.43396919  1
  Zn  Zn158  1  0.43649023  0.69186318  0.93983805  1
  Zn  Zn159  1  0.93427151  0.18914451  0.43536350  1
  Zn  Zn160  1  0.94563415  0.18086785  0.93601872  1
  Zn  Zn161  1  0.94112390  0.68701772  0.43426336  1
  Zn  Zn162  1  0.93779243  0.68317949  0.94214222  1
  Zn  Zn163  1  0.06953442  0.31006494  0.05776940  1
  Zn  Zn164  1  0.06209910  0.30549177  0.56569627  1
  Zn  Zn165  1  0.06210473  0.81281258  0.06391931  1
  Zn  Zn166  1  0.07346932  0.81016867  0.55539294  1
  Zn  Zn167  1  0.56022549  0.31083327  0.06249657  1
  Zn  Zn168  1  0.56319413  0.31342868  0.56571606  1
  Zn  Zn169  1  0.56352663  0.81449116  0.06279321  1
  Zn  Zn170  1  0.56495464  0.81169733  0.56330300  1
  O  O171  1  0.12743340  0.12409712  0.11198563  1
  O  O172  1  0.10090303  0.14155756  0.62143782  1
  O  O173  1  0.10989388  0.62746539  0.12422360  1
  O  O174  1  0.11578402  0.62180096  0.61713712  1
  O  O175  1  0.62106849  0.11181453  0.11293544  1
  O  O176  1  0.62123787  0.12808830  0.61709531  1
  O  O177  1  0.62010884  0.62085364  0.12009678  1
  O  O178  1  0.61554078  0.62823511  0.62061806  1
  O  O179  1  0.38114019  0.38520377  0.37901975  1
  O  O180  1  0.37994683  0.38215326  0.88496415  1
  O  O181  1  0.34715791  0.89434869  0.42344084  1
  O  O182  1  0.38210090  0.87822352  0.88404173  1
  O  O183  1  0.88138909  0.37469364  0.38486345  1
  O  O184  1  0.89693977  0.38107521  0.85097617  1
  O  O185  1  0.88149940  0.88117905  0.37659592  1
  O  O186  1  0.85954199  0.88365951  0.87790278  1
  O  O187  1  0.25428037  0.00532430  0.37131072  1
  O  O188  1  0.26750123  -0.01053369  0.87314758  1
  O  O189  1  0.26235452  0.49562341  0.37161412  1
  O  O190  1  0.24927173  0.51105729  0.86738215  1
  O  O191  1  0.75416617  0.00431571  0.36767293  1
  O  O192  1  0.75616081  0.00915664  0.87306771  1
  O  O193  1  0.74808041  0.50843220  0.36703422  1
  O  O194  1  0.75268723  0.50521330  0.86725129  1
  O  O195  1  0.25554205  0.48799582  0.12783747  1
  O  O196  1  0.24492629  0.49975156  0.63055713  1
  O  O197  1  0.24335605  0.99541628  0.13399339  1
  O  O198  1  0.26490812  0.97641396  0.58785627  1
  O  O199  1  0.74522228  0.49586966  0.13221948  1
  O  O200  1  0.74766537  0.49645182  0.63188037  1
  O  O201  1  0.74100204  0.99225680  0.13078352  1
  O  O202  1  0.74764364  0.99382319  0.61088980  1
  O  O203  1  0.00313051  0.36763419  0.25561256  1
  O  O204  1  0.02070312  0.37863171  0.75237437  1
  O  O205  1  -0.00548996  0.86000556  0.25015985  1
  O  O206  1  -0.01249625  0.85927373  0.76177893  1
  O  O207  1  0.50457566  0.37023014  0.25314598  1
  O  O208  1  0.51165954  0.37253611  0.74921554  1
  O  O209  1  0.42834527  0.89014896  0.30271751  1
  O  O210  1  0.50719571  0.86798302  0.75563009  1
  O  O211  1  0.48534546  0.13504459  0.25683231  1
  O  O212  1  0.50756516  0.13343997  0.73813044  1
  O  O213  1  0.49362353  0.61898819  0.23584238  1
  O  O214  1  0.50008905  0.63203624  0.74362553  1
  O  O215  1  0.99863771  0.14652389  0.25479280  1
  O  O216  1  0.98042558  0.11890830  0.73317166  1
  O  O217  1  0.99623493  0.63205990  0.24504371  1
  O  O218  1  1.00033754  0.62868481  0.74383859  1
  O  O219  1  0.38301889  0.25936680  0.00829172  1
  O  O220  1  0.36987367  0.26605095  0.48688727  1
  O  O221  1  0.36734262  0.75689943  0.01131894  1
  O  O222  1  0.36343835  0.74248389  0.50182405  1
  O  O223  1  0.87210965  0.26104687  -0.04265307  1
  O  O224  1  0.86733732  0.26085647  0.50417976  1
  O  O225  1  0.87557603  0.74553344  0.01546813  1
  O  O226  1  0.87486881  0.75596770  0.50315440  1
  O  O227  1  0.13589794  0.26134316  0.48845078  1
  O  O228  1  0.12636972  0.23674939  0.98903716  1
  O  O229  1  0.13627264  0.73380727  0.49717434  1
  O  O230  1  0.13059758  0.74832186  0.99546946  1
  O  O231  1  0.62808359  0.24272722  0.49490865  1
  O  O232  1  0.61561382  0.23090295  1.00183864  1
  O  O233  1  0.63527932  0.74583276  0.49651100  1
  O  O234  1  0.62670633  0.73676687  0.99969990  1
  O  O235  1  0.48758592  0.25704729  0.13793858  1
  O  O236  1  0.50276437  0.24602088  0.63739993  1
  O  O237  1  0.49240024  0.74270582  0.12132759  1
  O  O238  1  0.49273015  0.74394328  0.62737182  1
  O  O239  1  1.00433466  0.25174753  0.13677348  1
  O  O240  1  0.98309551  0.23897794  0.61749675  1
  O  O241  1  0.99380087  0.74227407  0.13408949  1
  O  O242  1  0.99811912  0.74246796  0.63499748  1
  O  O243  1  0.00486754  0.26015303  0.37061398  1
  O  O244  1  0.01806892  0.25948531  0.87200347  1
  O  O245  1  -0.00697456  0.75721585  0.35835690  1
  O  O246  1  0.01026745  0.74389737  0.87503735  1
  O  O247  1  0.50298768  0.25671240  0.36511940  1
  O  O248  1  0.50152028  0.25009393  0.86026476  1
  O  O249  1  0.52008646  0.75238545  0.37998038  1
  O  O250  1  0.50027710  0.75783261  0.86618546  1
  O  O251  1  0.25437440  0.14491705  0.49285072  1
  O  O252  1  0.23762193  0.12030877  0.99879962  1
  O  O253  1  0.23970771  0.63111784  0.49410734  1
  O  O254  1  0.24976647  0.63806019  0.99857390  1
  O  O255  1  0.74406899  0.13226286  0.49104690  1
  O  O256  1  0.74302436  0.12126048  0.98768528  1
  O  O257  1  0.74645393  0.63016859  0.49313419  1
  O  O258  1  0.74407665  0.62075401  0.99417049  1
  O  O259  1  0.26319641  0.38098569  0.00507896  1
  O  O260  1  0.25713752  0.37007388  0.50214837  1
  O  O261  1  0.25751703  0.86622258  0.00991046  1
  O  O262  1  0.23525690  0.85186577  0.50860429  1
  O  O263  1  0.74631729  0.37661951  0.01511852  1
  O  O264  1  0.75561223  0.37171268  0.50441761  1
  O  O265  1  0.73960623  0.87358026  0.01140504  1
  O  O266  1  0.76787655  0.86799333  0.49720252  1
  O  O267  1  0.12364754  0.48470382  0.25358375  1
  O  O268  1  0.13630971  0.49435688  0.74510387  1
  O  O269  1  0.14107037  1.01045155  0.24776792  1
  O  O270  1  0.13692363  1.02447259  0.74630106  1
  O  O271  1  0.63352925  0.49595668  0.24544806  1
  O  O272  1  0.63467517  0.49516189  0.74925536  1
  O  O273  1  0.63006601  1.00683066  0.23633761  1
  O  O274  1  0.61902380  0.98481080  0.75025844  1
  O  O275  1  0.36360139  0.01469569  0.25439731  1
  O  O276  1  0.37289512  -0.00560957  0.75416306  1
  O  O277  1  0.37504126  0.50803524  0.25705872  1
  O  O278  1  0.36193799  0.50409986  0.75179995  1
  O  O279  1  0.86544081  -0.00029902  0.25905609  1
  O  O280  1  0.86981391  0.00152936  0.75140069  1
  O  O281  1  0.86163270  0.49934346  0.25390233  1
  O  O282  1  0.86144728  0.50422605  0.74644432  1
  O  O283  1  0.11703468  0.36809482  0.36842335  1
  O  O284  1  0.12576097  0.36338713  0.86662765  1
  O  O285  1  0.10995377  0.87653435  0.37048745  1
  O  O286  1  0.12351288  0.86398719  0.88659486  1
  O  O287  1  0.61948299  0.36963646  0.36817142  1
  O  O288  1  0.62218375  0.37170683  0.86872070  1
  O  O289  1  0.63053136  0.86247120  0.37555407  1
  O  O290  1  0.61749362  0.87492063  0.86678847  1
  O  O291  1  0.36904237  0.13536472  0.13501866  1
  O  O292  1  0.38820814  0.14319229  0.61519890  1
  O  O293  1  0.38362075  0.63266910  0.12921929  1
  O  O294  1  0.38791653  0.63032823  0.62606777  1
  O  O295  1  0.87813597  0.12430328  0.12647375  1
  O  O296  1  0.87136647  0.13225462  0.63365060  1
  O  O297  1  0.88546333  0.62888844  0.12678623  1
  O  O298  1  0.88940863  0.63480524  0.61957527  1
  O  O299  1  0.26330034  0.26292187  0.13021833  1
  O  O300  1  0.26099867  0.26008139  0.61559470  1
  O  O301  1  0.25524980  0.75768698  0.12131671  1
  O  O302  1  0.26771093  0.73321949  0.61080942  1
  O  O303  1  0.74115819  0.26244004  0.13022542  1
  O  O304  1  0.75590618  0.25758986  0.61887217  1
  O  O305  1  0.75521395  0.75724076  0.12251212  1
  O  O306  1  0.76436618  0.75231249  0.61939764  1
  O  O307  1  0.24206719  0.25099465  0.37882567  1
  O  O308  1  0.24066390  0.25098960  0.87676071  1
  O  O309  1  0.26188338  0.75259658  0.38309984  1
  O  O310  1  0.24111508  0.74942886  0.88487078  1
  O  O311  1  0.74214338  0.24675168  0.37795360  1
  O  O312  1  0.73609968  0.22359519  0.85988082  1
  O  O313  1  0.74378529  0.74357947  0.37677196  1
  O  O314  1  0.74740767  0.73872409  0.87771684  1
  O  O315  1  0.01430675  0.11480459  -0.00238195  1
  O  O316  1  -0.01124080  0.11959899  0.50752274  1
  O  O317  1  0.00160395  0.61205038  0.00800332  1
  O  O318  1  0.01225061  0.62471273  0.50387904  1
  O  O319  1  0.50489983  0.12077820  -0.00365459  1
  O  O320  1  0.50966730  0.12317011  0.50752628  1
  O  O321  1  0.50602855  0.62100902  0.00867030  1
  O  O322  1  0.50571351  0.62234890  0.50686350  1
  O  O323  1  0.49413849  0.37985610  0.49598028  1
  O  O324  1  0.49206635  0.38500975  1.00111526  1
  O  O325  1  0.51218072  0.89250532  0.49876341  1
  O  O326  1  0.49105069  0.86766826  0.98971868  1
  O  O327  1  0.99303845  0.37382305  0.49401525  1
  O  O328  1  1.00271192  0.37552580  0.99002383  1
  O  O329  1  0.99319970  0.88040458  0.48614897  1
  O  O330  1  0.99819572  0.90136060  1.05008546  1
  O  O331  1  0.49491035  0.49508772  0.38015765  1
  O  O332  1  0.49894108  0.50378434  0.88805081  1
  O  O333  1  0.49361437  1.00451645  0.38537537  1
  O  O334  1  0.48673313  0.98678927  0.86930452  1
  O  O335  1  0.99575010  0.48657654  0.37757194  1
  O  O336  1  1.00409481  0.48933529  0.88150016  1
  O  O337  1  0.99248375  0.99564896  0.37220376  1
  O  O338  1  0.97569883  0.99567332  0.87288852  1
  O  O339  1  0.02225597  0.01741583  0.15551386  1
  O  O340  1  -0.01296080  0.01814763  0.60810439  1
  O  O341  1  -0.00474222  0.50481178  0.11829182  1
  O  O342  1  0.00702650  0.50656532  0.62447343  1
  O  O343  1  0.50943892  -0.01084684  0.13601225  1
  O  O344  1  0.50625961  0.01253934  0.61895608  1
  O  O345  1  0.50611271  0.50709563  0.11507975  1
  O  O346  1  0.50190040  0.50999131  0.61931064  1
  O  O347  1  0.24091813  0.37820212  0.24165547  1
  O  O348  1  0.24336568  0.38550265  0.74533580  1
  O  O349  1  0.26001412  0.88690320  0.24474047  1
  O  O350  1  0.24429264  0.84664108  0.72849318  1
  O  O351  1  0.74266740  0.38137545  0.24328544  1
  O  O352  1  0.73860658  0.38333267  0.74618759  1
  O  O353  1  0.74779761  0.88684991  0.24493193  1
  O  O354  1  0.73375101  0.86470231  0.74795895  1
  O  O355  1  0.25776185  0.12543340  0.25722665  1
  O  O356  1  0.27343594  0.13964166  0.72256007  1
  O  O357  1  0.26392968  0.62233948  0.24213391  1
  O  O358  1  0.25010193  0.62564781  0.75831395  1
  O  O359  1  0.74812863  0.11526500  0.25511830  1
  O  O360  1  0.75895646  0.11689478  0.75080685  1
  O  O361  1  0.74993248  0.61615455  0.25684847  1
  O  O362  1  0.74913048  0.61838280  0.75756399  1
  O  O363  1  0.36865421  0.11476231  0.37004680  1
  O  O364  1  0.37715621  0.10765113  0.87106031  1
  O  O365  1  0.38527060  0.61712570  0.36226801  1
  O  O366  1  0.36160332  0.62810784  0.87608654  1
  O  O367  1  0.86675395  0.11844865  0.36935069  1
  O  O368  1  0.86335211  0.11641909  0.86028530  1
  O  O369  1  0.86219053  0.62237117  0.37565790  1
  O  O370  1  0.86432508  0.61952270  0.87543975  1
  O  O371  1  0.13663164  0.36761452  0.13103809  1
  O  O372  1  0.13290382  0.37651806  0.63055155  1
  O  O373  1  0.14099141  0.88449195  0.12596271  1
  O  O374  1  0.09360993  0.88376943  0.63334129  1
  O  O375  1  0.63046601  0.38095836  0.12965143  1
  O  O376  1  0.63270024  0.37852817  0.63180813  1
  O  O377  1  0.62892064  0.88617369  0.12507892  1
  O  O378  1  0.62117119  0.87661625  0.64053288  1
  O  O379  1  0.11625423  0.26080492  0.25644683  1
  O  O380  1  0.13472219  0.24955634  0.76174919  1
  O  O381  1  0.10957052  0.74755227  0.24714431  1
  O  O382  1  0.11360092  0.74471057  0.77252220  1
  O  O383  1  0.61440250  0.25130880  0.25137864  1
  O  O384  1  0.61902207  0.26025512  0.75017767  1
  O  O385  1  0.62711130  0.74762618  0.26221007  1
  O  O386  1  0.61320865  0.75802068  0.75038313  1
  O  O387  1  0.37941147  0.24685104  0.24603797  1
  O  O388  1  0.38131287  0.26076914  0.74685523  1
  O  O389  1  0.37294400  0.74252459  0.23691994  1
  O  O390  1  0.38739323  0.75126283  0.73922829  1
  O  O391  1  0.88896496  0.25354944  0.25448427  1
  O  O392  1  0.86738070  0.24632133  0.74367411  1
  O  O393  1  0.88015353  0.74399112  0.23795317  1
  O  O394  1  0.88090686  0.74281460  0.74063665  1
  O  O395  1  0.37940240  0.49545911  0.49131988  1
  O  O396  1  0.38373304  0.49513888  1.00092447  1
  O  O397  1  0.38719037  1.00451513  0.50058023  1
  O  O398  1  0.37241825  0.98809793  1.00185643  1
  O  O399  1  0.87589767  0.48613840  0.50103829  1
  O  O400  1  0.88898864  0.48561049  0.99654615  1
  O  O401  1  0.88136326  0.99220520  0.48311701  1
  O  O402  1  0.87013029  0.99966685  0.98544969  1
  O  O403  1  0.12678061  0.00924803  0.00858998  1
  O  O404  1  0.10937610  0.00336714  0.48887398  1
  O  O405  1  0.11322879  0.49778923  -0.00138437  1
  O  O406  1  0.12569633  0.51045130  0.50573576  1
  O  O407  1  0.62083886  0.00692330  0.01474737  1
  O  O408  1  0.62141104  0.01445462  0.49678672  1
  O  O409  1  0.61899709  0.51030828  0.00405653  1
  O  O410  1  0.61784811  0.50962432  0.50055219  1
  O  O411  1  0.36943060  0.36994848  0.11843309  1
  O  O412  1  0.36955797  0.38415693  0.61224289  1
  O  O413  1  0.36966540  0.86927899  0.12102372  1
  O  O414  1  0.38365119  0.86675962  0.60748464  1
  O  O415  1  0.85781886  0.37134349  0.12618226  1
  O  O416  1  0.87107186  0.36822871  0.62229999  1
  O  O417  1  0.85732851  0.86427352  0.13289736  1
  O  O418  1  0.88751976  0.86256098  0.61362514  1
  O  O419  1  0.12992864  0.14075986  0.37045347  1
  O  O420  1  0.12448284  0.13469810  0.88052213  1
  O  O421  1  0.12041979  0.61784726  0.38511018  1
  O  O422  1  0.13739332  0.63172404  0.88288779  1
  O  O423  1  0.62848201  0.13164255  0.38043061  1
  O  O424  1  0.62952234  0.11564509  0.89009651  1
  O  O425  1  0.63446779  0.63376451  0.37832488  1
  O  O426  1  0.63550526  0.62614781  0.88335220  1
