# generated using pymatgen
data_V85Zn86O256
_symmetry_space_group_name_H-M   'P 1'
_cell_length_a   16.93350561
_cell_length_b   16.94654274
_cell_length_c   16.94006939
_cell_angle_alpha   89.96435266
_cell_angle_beta   90.03011547
_cell_angle_gamma   90.04137669
_symmetry_Int_Tables_number   1
_chemical_formula_structural   V85Zn86O256
_chemical_formula_sum   'V85 Zn86 O256'
_cell_volume   4861.19357311
_cell_formula_units_Z   1
loop_
 _symmetry_equiv_pos_site_id
 _symmetry_equiv_pos_as_xyz
  1  'x, y, z'
loop_
 _atom_site_type_symbol
 _atom_site_label
 _atom_site_symmetry_multiplicity
 _atom_site_fract_x
 _atom_site_fract_y
 _atom_site_fract_z
 _atom_site_occupancy
  V  V0  1  0.49986692  0.12116345  0.11885205  1
  V  V1  1  0.12019989  0.49798104  0.62143057  1
  V  V2  1  0.49638454  0.74868900  0.75105265  1
  V  V3  1  0.63176830  0.87896169  0.74998257  1
  V  V4  1  0.86731901  0.75265874  0.62513108  1
  V  V5  1  0.50399996  0.88273710  0.88637429  1
  V  V6  1  -0.00062685  -0.00228484  0.49450429  1
  V  V7  1  0.49652623  0.62271514  0.62807517  1
  V  V8  1  0.50332540  0.12370771  0.62107544  1
  V  V9  1  0.49912323  0.50016727  -0.00047765  1
  V  V10  1  0.62403351  0.75151302  0.87737560  1
  V  V11  1  0.36249738  0.75614292  0.12531941  1
  V  V12  1  0.50105408  0.37313334  0.87487465  1
  V  V13  1  0.00191594  0.37151474  0.87833783  1
  V  V14  1  0.36626511  0.37195382  -0.00046293  1
  V  V15  1  0.76412488  0.75240654  0.00303093  1
  V  V16  1  0.74856896  0.63154945  0.37461651  1
  V  V17  1  0.75048042  0.24857949  0.00022323  1
  V  V18  1  0.48949199  0.87799292  0.37320113  1
  V  V19  1  -0.00595649  0.38509460  0.38640177  1
  V  V20  1  0.37490272  0.37626152  0.49969653  1
  V  V21  1  0.62506371  0.87229265  0.24991007  1
  V  V22  1  0.49584723  0.24495731  0.75000531  1
  V  V23  1  0.13245596  -0.00835916  0.62513996  1
  V  V24  1  0.62505572  0.12286434  -0.00087676  1
  V  V25  1  0.01358870  0.87193014  0.88124249  1
  V  V26  1  0.50600273  0.50066343  0.50551474  1
  V  V27  1  0.49971141  0.37871596  0.37268612  1
  V  V28  1  0.62718869  0.37509008  0.73633296  1
  V  V29  1  0.62436326  0.24684432  0.37964903  1
  V  V30  1  0.12677069  0.36662751  0.75164010  1
  V  V31  1  0.12948035  0.24323133  0.89389433  1
  V  V32  1  0.62649071  0.25010537  0.87366723  1
  V  V33  1  0.62248103  0.63488510  0.50166810  1
  V  V34  1  0.01094977  0.12565055  0.11787700  1
  V  V35  1  -0.00264464  0.63790601  0.12329358  1
  V  V36  1  0.12367848  0.12735409  0.49418888  1
  V  V37  1  0.37171569  0.24239766  0.62770055  1
  V  V38  1  0.38193127  0.00688160  0.86591041  1
  V  V39  1  0.75141789  0.11812700  0.87011153  1
  V  V40  1  0.80679409  0.42269508  0.56887965  1
  V  V41  1  0.76279063  0.49958960  0.25292645  1
  V  V42  1  0.87601075  0.24976438  0.12592578  1
  V  V43  1  0.25544444  0.12757126  0.87955751  1
  V  V44  1  0.50171011  0.24668225  0.25045341  1
  V  V45  1  0.24613658  0.25098506  0.49139358  1
  V  V46  1  0.24954586  0.37977300  0.13446104  1
  V  V47  1  0.12334048  0.86276115  0.24421955  1
  V  V48  1  0.62385873  -0.00273733  0.11852610  1
  V  V49  1  0.88159466  0.63963368  0.25174313  1
  V  V50  1  0.87418870  0.24644598  0.62291862  1
  V  V51  1  0.24522248  -0.00545787  0.24558785  1
  V  V52  1  0.87702011  0.12662368  0.25017317  1
  V  V53  1  0.25212082  0.50312662  0.75013105  1
  V  V54  1  0.87333019  0.11367188  0.74762851  1
  V  V55  1  0.74648898  0.12370668  0.37757890  1
  V  V56  1  0.87590949  -0.01043977  0.87882437  1
  V  V57  1  0.87445194  0.49724534  0.87657450  1
  V  V58  1  0.24938665  0.37219046  0.62393461  1
  V  V59  1  0.36876310  0.24712062  0.12173526  1
  V  V60  1  0.76695522  0.87291494  0.12196567  1
  V  V61  1  0.00147136  0.12297677  0.62402036  1
  V  V62  1  0.86540233  0.86970070  0.49639503  1
  V  V63  1  0.25277580  0.11962380  0.37478209  1
  V  V64  1  0.87458163  0.37447548  0.00048473  1
  V  V65  1  0.62535650  0.49936997  0.12912341  1
  V  V66  1  0.12301797  0.63035750  0.49459965  1
  V  V67  1  0.50083884  0.00288517  0.49561181  1
  V  V68  1  0.74798017  0.24509957  0.50541431  1
  V  V69  1  0.37137161  0.50213723  0.87324131  1
  V  V70  1  0.00557987  0.85678548  0.37284439  1
  V  V71  1  0.12451434  0.50311352  0.13543154  1
  V  V72  1  0.13293353  0.62616257  -0.01118984  1
  V  V73  1  0.74424121  0.49525680  0.75213561  1
  V  V74  1  0.75150955  0.00040884  0.24776808  1
  V  V75  1  0.87394043  0.62714686  0.75440467  1
  V  V76  1  0.36763772  0.87905277  0.50238374  1
  V  V77  1  0.62648733  0.62794762  0.00059301  1
  V  V78  1  0.36741582  0.75250306  0.62376673  1
  V  V79  1  0.63149387  0.00334588  0.62457724  1
  V  V80  1  0.01102609  0.25100788  0.26180533  1
  V  V81  1  0.00917373  0.75095558  0.75148487  1
  V  V82  1  0.49776243  0.63189826  0.12628415  1
  V  V83  1  0.36633744  0.88702369  0.00498610  1
  V  V84  1  0.37640035  0.11647374  0.25431276  1
  Zn  Zn85  1  -0.00305640  0.62447509  0.62495732  1
  Zn  Zn86  1  0.49547437  0.75132541  0.25176604  1
  Zn  Zn87  1  0.62443586  0.75541243  0.37976435  1
  Zn  Zn88  1  0.24157151  0.75626443  0.49698450  1
  Zn  Zn89  1  0.24757045  0.75004174  -0.01520672  1
  Zn  Zn90  1  0.74709859  0.87422065  0.62244264  1
  Zn  Zn91  1  0.36544587  0.50274039  0.36803069  1
  Zn  Zn92  1  0.32310269  0.66554174  0.80247380  1
  Zn  Zn93  1  0.13321819  -0.00309380  0.11643278  1
  Zn  Zn94  1  0.13595859  0.86840801  0.74726649  1
  Zn  Zn95  1  0.25680987  0.00415621  0.74625352  1
  Zn  Zn96  1  0.74998609  0.37453157  0.12634149  1
  Zn  Zn97  1  0.36521873  0.61362720  0.24620823  1
  Zn  Zn98  1  0.00019955  0.24608069  0.75098372  1
  Zn  Zn99  1  0.13191926  0.37679475  0.26291876  1
  Zn  Zn100  1  0.24741876  0.62515144  0.36277106  1
  Zn  Zn101  1  -0.01446316  0.49932663  0.50350149  1
  Zn  Zn102  1  0.00279122  -0.00281340  0.00120088  1
  Zn  Zn103  1  0.74934884  0.62544946  0.87715808  1
  Zn  Zn104  1  0.62802799  0.37409917  0.24896394  1
  Zn  Zn105  1  0.87568486  -0.00240925  0.37443584  1
  Zn  Zn106  1  0.00119554  0.50071480  0.00305547  1
  Zn  Zn107  1  0.19051428  0.18877756  0.18767115  1
  Zn  Zn108  1  0.18977275  0.17993894  0.68890955  1
  Zn  Zn109  1  0.18720154  0.68695947  0.18449330  1
  Zn  Zn110  1  0.18526491  0.68478675  0.67628120  1
  Zn  Zn111  1  0.68771691  0.18792103  0.18867198  1
  Zn  Zn112  1  0.68655977  0.18502155  0.68838189  1
  Zn  Zn113  1  0.69141661  0.68977073  0.18601973  1
  Zn  Zn114  1  0.68286985  0.68617703  0.68818629  1
  Zn  Zn115  1  0.31646412  0.30814902  0.31194972  1
  Zn  Zn116  1  0.31068781  0.31163075  0.81327107  1
  Zn  Zn117  1  0.30481215  0.80430616  0.31524138  1
  Zn  Zn118  1  0.30838930  0.83009090  0.81608514  1
  Zn  Zn119  1  0.81407160  0.31305789  0.31445147  1
  Zn  Zn120  1  0.81222545  0.30845831  0.80931011  1
  Zn  Zn121  1  0.81241030  0.81269173  0.31252228  1
  Zn  Zn122  1  0.81132047  0.81041190  0.81447597  1
  Zn  Zn123  1  0.18094936  0.43986723  0.43271773  1
  Zn  Zn124  1  0.18739520  0.44115580  0.94210735  1
  Zn  Zn125  1  0.18603150  0.93837397  0.43168466  1
  Zn  Zn126  1  0.18795933  0.94739102  0.93686485  1
  Zn  Zn127  1  0.68039654  0.44463953  0.43122601  1
  Zn  Zn128  1  0.68694107  0.43674626  0.93710640  1
  Zn  Zn129  1  0.68286508  0.94115256  0.43678096  1
  Zn  Zn130  1  0.69240977  0.93646985  0.93986328  1
  Zn  Zn131  1  0.30918178  0.06414535  0.05890400  1
  Zn  Zn132  1  0.31565657  0.06245354  0.56036462  1
  Zn  Zn133  1  0.31043661  0.56222326  0.06755773  1
  Zn  Zn134  1  0.31182401  0.56109668  0.55419606  1
  Zn  Zn135  1  0.81704949  0.06088547  0.06079771  1
  Zn  Zn136  1  0.81252800  0.06029055  0.55868089  1
  Zn  Zn137  1  0.81415437  0.56429883  0.06585823  1
  Zn  Zn138  1  0.80312945  0.58471198  0.56747988  1
  Zn  Zn139  1  0.43984868  0.43480803  0.18569665  1
  Zn  Zn140  1  0.43721043  0.43469091  0.68662643  1
  Zn  Zn141  1  0.43780928  0.93935881  0.18632964  1
  Zn  Zn142  1  0.44251503  0.93378328  0.68760143  1
  Zn  Zn143  1  0.94234772  0.43637628  0.18740891  1
  Zn  Zn144  1  0.94113107  0.43711772  0.69658498  1
  Zn  Zn145  1  0.94439968  0.94021592  0.19204743  1
  Zn  Zn146  1  0.94207559  0.93409996  0.68661665  1
  Zn  Zn147  1  0.06567476  0.06153345  0.31139557  1
  Zn  Zn148  1  0.06345110  0.06264791  0.81297874  1
  Zn  Zn149  1  0.05720536  0.56034972  0.31401385  1
  Zn  Zn150  1  0.06098371  0.55767794  0.80974829  1
  Zn  Zn151  1  0.56421564  0.05895506  0.31027530  1
  Zn  Zn152  1  0.56258869  0.06248303  0.80864721  1
  Zn  Zn153  1  0.55721309  0.56409573  0.31240872  1
  Zn  Zn154  1  0.56046707  0.56244921  0.81204981  1
  Zn  Zn155  1  0.43577479  0.18654932  0.43921608  1
  Zn  Zn156  1  0.43645110  0.18669888  0.93919650  1
  Zn  Zn157  1  0.43177530  0.69140392  0.43386301  1
  Zn  Zn158  1  0.42934861  0.69522562  0.93943396  1
  Zn  Zn159  1  0.93322873  0.18922687  0.43814873  1
  Zn  Zn160  1  0.93732293  0.18689826  0.93522701  1
  Zn  Zn161  1  0.93530241  0.68221339  0.43946816  1
  Zn  Zn162  1  0.94472045  0.68741483  0.93614589  1
  Zn  Zn163  1  0.06185419  0.31440341  0.06937772  1
  Zn  Zn164  1  0.06081518  0.31140703  0.56024521  1
  Zn  Zn165  1  0.06817847  0.81009974  0.05874034  1
  Zn  Zn166  1  0.05323319  0.81151247  0.56340539  1
  Zn  Zn167  1  0.56004852  0.31214262  0.06250895  1
  Zn  Zn168  1  0.56244217  0.30945755  0.55971939  1
  Zn  Zn169  1  0.56380579  0.81257892  0.06403540  1
  Zn  Zn170  1  0.55640195  0.81507319  0.56373672  1
  O  O171  1  0.11285438  0.12626687  0.12997191  1
  O  O172  1  0.11909749  0.11790636  0.61357698  1
  O  O173  1  0.11252482  0.61922094  0.12081424  1
  O  O174  1  0.11595951  0.61262765  0.62081430  1
  O  O175  1  0.61894592  0.11890218  0.12188715  1
  O  O176  1  0.61461489  0.11767387  0.62859644  1
  O  O177  1  0.62032475  0.62093769  0.11665729  1
  O  O178  1  0.61050955  0.62994315  0.61691572  1
  O  O179  1  0.38730814  0.36922471  0.38212383  1
  O  O180  1  0.37990625  0.37913771  0.88282558  1
  O  O181  1  0.38552599  0.87448689  0.37998738  1
  O  O182  1  0.38643840  0.88922910  0.88708095  1
  O  O183  1  0.89535883  0.36171157  0.37548222  1
  O  O184  1  0.88019385  0.37508949  0.88014662  1
  O  O185  1  0.88566458  0.87500921  0.37859495  1
  O  O186  1  0.87986283  0.88709648  0.86611753  1
  O  O187  1  0.24757394  0.01286181  0.36471370  1
  O  O188  1  0.26281945  0.01132857  0.87418763  1
  O  O189  1  0.25485985  0.51093016  0.39411235  1
  O  O190  1  0.25955036  0.49216617  0.86549428  1
  O  O191  1  0.75062007  0.00841506  0.36800597  1
  O  O192  1  0.75894434  0.01054957  0.87982944  1
  O  O193  1  0.74159722  0.51164982  0.35805182  1
  O  O194  1  0.75580204  0.50201361  0.86793246  1
  O  O195  1  0.24109769  0.48929180  0.12297834  1
  O  O196  1  0.24404782  0.49013052  0.63001070  1
  O  O197  1  0.25086609  1.00812140  0.14068136  1
  O  O198  1  0.23499025  1.00823459  0.62251572  1
  O  O199  1  0.74318643  0.49980619  0.13578450  1
  O  O200  1  0.75502842  0.48912665  0.62946666  1
  O  O201  1  0.74503299  0.99573756  0.12911843  1
  O  O202  1  0.73541122  0.99911334  0.61821743  1
  O  O203  1  -0.00013064  0.36052007  0.25589733  1
  O  O204  1  0.00901756  0.36889497  0.76003625  1
  O  O205  1  0.00914690  0.87957178  0.26498579  1
  O  O206  1  0.00519314  0.86641794  0.75731083  1
  O  O207  1  0.50408764  0.36447334  0.25789982  1
  O  O208  1  0.50731043  0.36530666  0.75381532  1
  O  O209  1  0.50771981  0.87984528  0.25714814  1
  O  O210  1  0.50893358  0.86440061  0.75933017  1
  O  O211  1  0.49468131  0.12719066  0.24271811  1
  O  O212  1  0.50393866  0.13896998  0.74119958  1
  O  O213  1  0.50345751  0.62988027  0.23392215  1
  O  O214  1  0.50574769  0.63800244  0.74384759  1
  O  O215  1  0.99529083  0.13417567  0.24653093  1
  O  O216  1  0.99150106  0.12636282  0.74353619  1
  O  O217  1  0.98793847  0.62293607  0.24301832  1
  O  O218  1  0.99060985  0.63130515  0.75163562  1
  O  O219  1  0.38302009  0.26019278  0.00987620  1
  O  O220  1  0.36687573  0.25510087  0.50745017  1
  O  O221  1  0.38010503  0.76694084  0.01376820  1
  O  O222  1  0.37904295  0.76268601  0.50890283  1
  O  O223  1  0.87008544  0.25446989  0.00437870  1
  O  O224  1  0.86615668  0.24635448  0.51390398  1
  O  O225  1  0.86243873  0.74183303  -0.00514664  1
  O  O226  1  0.87941292  0.75747587  0.51063223  1
  O  O227  1  0.13552125  0.23975998  0.50745118  1
  O  O228  1  0.12544581  0.25350547  0.99144784  1
  O  O229  1  0.12006916  0.73444685  0.51125475  1
  O  O230  1  0.13009767  0.73342726  0.99978094  1
  O  O231  1  0.63136957  0.25046909  0.48808433  1
  O  O232  1  0.62992613  0.24437311  0.99370769  1
  O  O233  1  0.61810198  0.73947320  0.50024492  1
  O  O234  1  0.62971604  0.74282983  0.99596477  1
  O  O235  1  0.49380546  0.24216396  0.13146406  1
  O  O236  1  0.49378404  0.24291186  0.62863713  1
  O  O237  1  0.49346530  0.74478329  0.12611121  1
  O  O238  1  0.49305619  0.74563699  0.63477848  1
  O  O239  1  0.99561101  0.24189917  0.13595615  1
  O  O240  1  0.99043431  0.24170351  0.62475798  1
  O  O241  1  1.00099311  0.73620400  0.12223407  1
  O  O242  1  0.98504877  0.75060524  0.63622862  1
  O  O243  1  0.00040210  0.24626576  0.36345377  1
  O  O244  1  0.01379899  0.25231645  0.87409113  1
  O  O245  1  -0.00104938  0.75884911  0.37699450  1
  O  O246  1  -0.00640018  0.76438929  0.86564992  1
  O  O247  1  0.50766769  0.25315467  0.37276217  1
  O  O248  1  0.50395131  0.25241998  0.86652918  1
  O  O249  1  0.50372022  0.76368824  0.37050722  1
  O  O250  1  0.50386168  0.75832005  0.87027999  1
  O  O251  1  0.24558183  0.12947042  0.49278551  1
  O  O252  1  0.25088976  0.12550674  0.98190549  1
  O  O253  1  0.22834811  0.62680373  0.51176950  1
  O  O254  1  0.23648692  0.62235571  1.00156148  1
  O  O255  1  0.75268286  0.13290539  0.48959304  1
  O  O256  1  0.74529662  0.12998917  0.99344032  1
  O  O257  1  0.73642756  0.62122015  0.48742877  1
  O  O258  1  0.74157296  0.63113769  1.00202049  1
  O  O259  1  0.26210572  0.37757608  0.00964828  1
  O  O260  1  0.25172814  0.36551629  0.50459735  1
  O  O261  1  0.26491522  0.87425224  -0.00808577  1
  O  O262  1  0.26395321  0.88040106  0.49400339  1
  O  O263  1  0.75794821  0.36760830  -0.00000546  1
  O  O264  1  0.74617994  0.37190341  0.50149050  1
  O  O265  1  0.74945886  0.86550393  0.00965957  1
  O  O266  1  0.76207625  0.87826017  0.49586486  1
  O  O267  1  0.11824419  0.49590795  0.23953039  1
  O  O268  1  0.13009241  0.48704226  0.74351647  1
  O  O269  1  0.13210885  0.99408090  0.24587192  1
  O  O270  1  0.11868764  1.00182249  0.72992459  1
  O  O271  1  0.62997943  0.50207696  0.23818909  1
  O  O272  1  0.63610264  0.49240118  0.75549963  1
  O  O273  1  0.63155466  0.99214111  0.23921136  1
  O  O274  1  0.61807638  0.99048441  0.73842042  1
  O  O275  1  0.36971052  0.01185312  0.24653201  1
  O  O276  1  0.38251127  -0.00108953  0.76254130  1
  O  O277  1  0.39017072  0.50083249  0.25616423  1
  O  O278  1  0.36446055  0.48993901  0.75877249  1
  O  O279  1  0.87282012  0.01331228  0.25314624  1
  O  O280  1  0.87898365  0.00925260  0.75356782  1
  O  O281  1  0.86439102  0.50491732  0.24514895  1
  O  O282  1  0.86501140  0.50503986  0.75562448  1
  O  O283  1  0.10549097  0.37496350  0.37545604  1
  O  O284  1  0.12454449  0.36424905  0.87102152  1
  O  O285  1  0.11068417  0.87668402  0.36938127  1
  O  O286  1  0.11575363  0.87678543  0.87043599  1
  O  O287  1  0.61507065  0.36667699  0.37321665  1
  O  O288  1  0.61887048  0.36731620  0.87060854  1
  O  O289  1  0.61907497  0.87602823  0.36508249  1
  O  O290  1  0.62027231  0.87437703  0.87047614  1
  O  O291  1  0.38241483  0.13002527  0.12762307  1
  O  O292  1  0.38209430  0.13623441  0.62304063  1
  O  O293  1  0.38165728  0.63892682  0.12185560  1
  O  O294  1  0.38778854  0.63516828  0.61711683  1
  O  O295  1  0.88155489  0.13128034  0.13339709  1
  O  O296  1  0.87910742  0.12748145  0.62964313  1
  O  O297  1  0.88898574  0.62026242  0.13481450  1
  O  O298  1  0.87612037  0.63252180  0.63852250  1
  O  O299  1  0.26354628  0.25421665  0.12640523  1
  O  O300  1  0.25630628  0.25080052  0.61860064  1
  O  O301  1  0.26123293  0.75071622  0.11498967  1
  O  O302  1  0.26358198  0.74815009  0.62072295  1
  O  O303  1  0.75667298  0.25110027  0.11946554  1
  O  O304  1  0.75313975  0.24446490  0.61309108  1
  O  O305  1  0.74749169  0.76111077  0.11557317  1
  O  O306  1  0.76184464  0.75101124  0.63139665  1
  O  O307  1  0.25371943  0.24076222  0.38551413  1
  O  O308  1  0.23857119  0.24330015  0.87260914  1
  O  O309  1  0.25190823  0.73943583  0.38623181  1
  O  O310  1  0.29407748  0.74031994  0.88082934  1
  O  O311  1  0.74427271  0.24592764  0.38411448  1
  O  O312  1  0.74725771  0.23782634  0.87955395  1
  O  O313  1  0.74393114  0.73660861  0.36641002  1
  O  O314  1  0.74120840  0.74758621  0.88335193  1
  O  O315  1  -0.00286129  0.13138378  0.01658929  1
  O  O316  1  0.00607781  0.11891617  0.50155807  1
  O  O317  1  0.00537336  0.62327646  0.01078155  1
  O  O318  1  0.00505821  0.61754686  0.50465669  1
  O  O319  1  0.50826694  0.13027789  0.01164203  1
  O  O320  1  0.49635018  0.11903868  0.51088178  1
  O  O321  1  0.50578521  0.62248454  0.00917597  1
  O  O322  1  0.50444039  0.61840543  0.50575390  1
  O  O323  1  0.49754303  0.38076310  0.49445523  1
  O  O324  1  0.49162166  0.38116957  0.99600056  1
  O  O325  1  0.49402402  0.88356802  0.49103477  1
  O  O326  1  0.49744865  0.87430769  0.98962864  1
  O  O327  1  0.99799477  0.37801106  0.49189847  1
  O  O328  1  0.99131900  0.37407290  0.99614680  1
  O  O329  1  0.99314935  0.87996166  0.48844662  1
  O  O330  1  1.00020083  0.87004265  0.98397585  1
  O  O331  1  0.50402352  0.48824254  0.38373075  1
  O  O332  1  0.49652957  0.48996935  0.87948181  1
  O  O333  1  0.50568613  0.99431507  0.38434106  1
  O  O334  1  0.49690344  0.99473066  0.87453679  1
  O  O335  1  0.99124083  0.48921806  0.37977639  1
  O  O336  1  0.99243114  0.48906295  0.87675171  1
  O  O337  1  0.99916549  1.00039859  0.38630545  1
  O  O338  1  0.99507232  0.98652104  0.87210384  1
  O  O339  1  -0.00243967  0.01871368  0.12643946  1
  O  O340  1  0.00563632  0.00364988  0.61145939  1
  O  O341  1  0.00864171  0.50544621  0.12292609  1
  O  O342  1  0.00666981  0.49817891  0.62653695  1
  O  O343  1  0.51055440  0.01060100  0.12896860  1
  O  O344  1  0.50665077  0.00847652  0.62069845  1
  O  O345  1  0.50829871  0.50702547  0.11716405  1
  O  O346  1  0.49516834  0.50938296  0.61997686  1
  O  O347  1  0.24948673  0.36642966  0.23955807  1
  O  O348  1  0.24300897  0.38010688  0.74408160  1
  O  O349  1  0.23351202  0.88281530  0.25990078  1
  O  O350  1  0.24677786  0.89024229  0.74982231  1
  O  O351  1  0.74936314  0.38638048  0.25070188  1
  O  O352  1  0.74043927  0.38186315  0.75545833  1
  O  O353  1  0.74460603  0.88160466  0.24421901  1
  O  O354  1  0.73509558  0.87142186  0.74975987  1
  O  O355  1  0.25670894  0.12240471  0.25783619  1
  O  O356  1  0.24540968  0.11941016  0.76673724  1
  O  O357  1  0.25141931  0.62334789  0.24596258  1
  O  O358  1  0.24496287  0.60849256  0.74311357  1
  O  O359  1  0.75869554  0.12122794  0.25454289  1
  O  O360  1  0.75829303  0.12718123  0.75929646  1
  O  O361  1  0.76037479  0.61816268  0.25014329  1
  O  O362  1  0.75431854  0.61515371  0.75158280  1
  O  O363  1  0.36712917  0.12929334  0.36571427  1
  O  O364  1  0.36857495  0.12074992  0.87675545  1
  O  O365  1  0.37957284  0.62189219  0.36600506  1
  O  O366  1  0.39171461  0.60478146  0.87519526  1
  O  O367  1  0.86360409  0.12608051  0.36763189  1
  O  O368  1  0.87046995  0.11931095  0.86552241  1
  O  O369  1  0.86748040  0.62762480  0.36109434  1
  O  O370  1  0.87440241  0.61865391  0.86629200  1
  O  O371  1  0.13436595  0.38243452  0.12725346  1
  O  O372  1  0.12831839  0.37773212  0.63259960  1
  O  O373  1  0.11345768  0.87837842  0.14059528  1
  O  O374  1  0.11959283  0.88923182  0.62073186  1
  O  O375  1  0.62666414  0.38493452  0.12590032  1
  O  O376  1  0.62147371  0.37009907  0.63700287  1
  O  O377  1  0.62993527  0.88376812  0.12992970  1
  O  O378  1  0.62460959  0.88163543  0.63245860  1
  O  O379  1  0.11303555  0.25177222  0.24839109  1
  O  O380  1  0.12530438  0.25968990  0.74984788  1
  O  O381  1  0.12520058  0.76428202  0.24533831  1
  O  O382  1  0.11294691  0.74789779  0.74118313  1
  O  O383  1  0.62165739  0.25079407  0.26133236  1
  O  O384  1  0.61962837  0.25658676  0.75527466  1
  O  O385  1  0.62378589  0.76525268  0.24539148  1
  O  O386  1  0.61834453  0.75620382  0.75824373  1
  O  O387  1  0.38176383  0.23779594  0.24189268  1
  O  O388  1  0.38415991  0.25803498  0.74040901  1
  O  O389  1  0.37650349  0.76017440  0.23260761  1
  O  O390  1  0.38280186  0.75106474  0.74165293  1
  O  O391  1  0.88089621  0.24049486  0.24622694  1
  O  O392  1  0.87403396  0.23947622  0.73753780  1
  O  O393  1  0.87203903  0.73755831  0.24603424  1
  O  O394  1  0.87929179  0.74185190  0.74804296  1
  O  O395  1  0.38802506  0.49074595  0.50089393  1
  O  O396  1  0.37939617  0.49258716  0.99479023  1
  O  O397  1  0.38941715  0.99309434  0.50693904  1
  O  O398  1  0.37640977  0.99098025  0.99627581  1
  O  O399  1  0.86237496  0.49047392  0.51663947  1
  O  O400  1  0.87384659  0.49257040  0.99375529  1
  O  O401  1  0.88315785  0.99104295  0.49721099  1
  O  O402  1  0.88433923  1.00746061  0.98475043  1
  O  O403  1  0.11678373  -0.00349379  0.00522433  1
  O  O404  1  0.11947210  0.00547323  0.50649350  1
  O  O405  1  0.12300020  0.50902781  0.01065177  1
  O  O406  1  0.11989531  0.50343633  0.51444186  1
  O  O407  1  0.63098615  0.00595502  0.01168156  1
  O  O408  1  0.61108786  -0.00471317  0.51010851  1
  O  O409  1  0.62275947  0.50720002  0.00916431  1
  O  O410  1  0.61227942  0.50991476  0.49899314  1
  O  O411  1  0.37060927  0.36721283  0.11913526  1
  O  O412  1  0.37049017  0.36350527  0.61831962  1
  O  O413  1  0.37926937  0.87293195  0.11250338  1
  O  O414  1  0.38450140  0.86587498  0.61467822  1
  O  O415  1  0.87460129  0.36776708  0.11840963  1
  O  O416  1  0.87127283  0.36668891  0.62941403  1
  O  O417  1  0.86579573  0.88312390  0.13112441  1
  O  O418  1  0.87150118  0.87029139  0.61659338  1
  O  O419  1  0.13267390  0.12208613  0.38731576  1
  O  O420  1  0.12979249  0.13831330  0.87406579  1
  O  O421  1  0.11826615  0.61788192  0.39281332  1
  O  O422  1  0.11832269  0.61590606  0.89060333  1
  O  O423  1  0.63766986  0.13147559  0.36739293  1
  O  O424  1  0.63310027  0.12830459  0.87725732  1
  O  O425  1  0.62850891  0.62919567  0.38120434  1
  O  O426  1  0.62330158  0.62773484  0.88868550  1
