# generated using pymatgen
data_V85Zn86O256
_symmetry_space_group_name_H-M   'P 1'
_cell_length_a   16.94669693
_cell_length_b   16.95028176
_cell_length_c   16.95815238
_cell_angle_alpha   89.99466611
_cell_angle_beta   90.11991490
_cell_angle_gamma   90.00759806
_symmetry_Int_Tables_number   1
_chemical_formula_structural   V85Zn86O256
_chemical_formula_sum   'V85 Zn86 O256'
_cell_volume   4871.24038033
_cell_formula_units_Z   1
loop_
 _symmetry_equiv_pos_site_id
 _symmetry_equiv_pos_as_xyz
  1  'x, y, z'
loop_
 _atom_site_type_symbol
 _atom_site_label
 _atom_site_symmetry_multiplicity
 _atom_site_fract_x
 _atom_site_fract_y
 _atom_site_fract_z
 _atom_site_occupancy
  V  V0  1  0.25202116  0.49400724  0.75105653  1
  V  V1  1  0.75209988  0.26677368  0.51009727  1
  V  V2  1  0.85550839  0.38725439  0.00801346  1
  V  V3  1  0.73845298  -0.00212516  0.25086996  1
  V  V4  1  -0.00282184  0.12827408  0.12586847  1
  V  V5  1  -0.00056713  0.61897480  0.12442364  1
  V  V6  1  0.62232836  0.12194289  0.50021389  1
  V  V7  1  0.24759115  0.24231360  0.48131754  1
  V  V8  1  0.87948228  0.00303865  0.37989075  1
  V  V9  1  0.90488847  0.12594197  0.73895754  1
  V  V10  1  0.75032225  0.12659519  0.37978142  1
  V  V11  1  0.49602333  0.37736243  0.37016692  1
  V  V12  1  0.49905285  0.62561605  0.62698479  1
  V  V13  1  0.25205864  0.62163473  0.37515537  1
  V  V14  1  0.75178708  0.75029679  0.49716512  1
  V  V15  1  0.51472748  0.11852664  0.12666063  1
  V  V16  1  0.37100949  0.24979410  0.62267006  1
  V  V17  1  0.24992668  0.87781145  0.62273668  1
  V  V18  1  0.51386367  0.87863311  0.37869489  1
  V  V19  1  0.37610393  0.12506555  0.75079795  1
  V  V20  1  0.00297190  0.87764595  0.36792450  1
  V  V21  1  0.24553911  0.62636406  0.87308473  1
  V  V22  1  0.87393586  0.49670807  0.37830550  1
  V  V23  1  0.61995530  -0.00292449  0.62046560  1
  V  V24  1  0.63220734  0.49573100  0.62250207  1
  V  V25  1  0.25364908  0.75215511  0.49942814  1
  V  V26  1  0.24403543  0.75026393  -0.00440959  1
  V  V27  1  0.00622197  0.37553041  0.37608296  1
  V  V28  1  0.88357403  0.74982435  0.62603165  1
  V  V29  1  0.12687354  0.49838129  0.62529825  1
  V  V30  1  0.87462686  0.75131767  0.12748168  1
  V  V31  1  0.88927038  0.26169199  0.62437026  1
  V  V32  1  0.75352531  0.01357672  0.75061460  1
  V  V33  1  0.88450803  0.88003345  0.50126369  1
  V  V34  1  0.49499578  0.50155621  0.49440324  1
  V  V35  1  0.74769088  0.74995418  -0.00035888  1
  V  V36  1  -0.00313820  0.00204152  -0.00014082  1
  V  V37  1  0.74901545  0.61489334  0.87307712  1
  V  V38  1  0.12651643  0.75447541  0.36742356  1
  V  V39  1  0.73553371  0.87807319  0.12959147  1
  V  V40  1  0.51339146  0.75625019  0.25370929  1
  V  V41  1  0.49817318  0.87497225  0.87412638  1
  V  V42  1  0.24905210  0.13269799  0.88034369  1
  V  V43  1  0.12643021  0.62462245  0.49929864  1
  V  V44  1  0.87367929  0.12806803  0.25318502  1
  V  V45  1  0.12013126  -0.00490531  0.13261803  1
  V  V46  1  0.62807882  0.87295743  0.74822190  1
  V  V47  1  0.49901466  0.12308479  0.62182307  1
  V  V48  1  0.37678344  0.62514535  0.25557519  1
  V  V49  1  0.12631979  0.49727556  0.12198339  1
  V  V50  1  0.87598993  0.62463055  0.25046958  1
  V  V51  1  0.86190123  0.26010203  0.12717640  1
  V  V52  1  0.62345187  0.25237574  0.37773066  1
  V  V53  1  0.24196895  0.87339125  0.13552252  1
  V  V54  1  0.00185098  0.37532122  0.89701411  1
  V  V55  1  0.37409531  0.75005632  0.12815130  1
  V  V56  1  0.51480838  -0.00017568  0.00422022  1
  V  V57  1  0.00686972  0.25313177  0.25403249  1
  V  V58  1  0.37393189  0.00363451  0.87819613  1
  V  V59  1  0.50701878  0.37700799  0.88202939  1
  V  V60  1  0.50325350  0.25367535  0.75206029  1
  V  V61  1  0.11700404  0.62337892  -0.00477653  1
  V  V62  1  0.63290969  0.37319392  0.74674383  1
  V  V63  1  0.37146720  -0.00095371  0.38089684  1
  V  V64  1  0.87701264  0.62485856  0.75080802  1
  V  V65  1  0.75238549  0.87476599  0.62399832  1
  V  V66  1  0.37119513  0.87600227  0.00000925  1
  V  V67  1  0.11679661  0.12597697  0.48626741  1
  V  V68  1  0.24970799  0.00091393  0.74666423  1
  V  V69  1  0.87471495  0.87458998  -0.00275477  1
  V  V70  1  0.62389083  0.62980981  0.49458202  1
  V  V71  1  0.12544083  0.13287871  0.00364144  1
  V  V72  1  0.37607053  0.49879077  0.88581223  1
  V  V73  1  0.74339638  0.49506059  0.24214512  1
  V  V74  1  0.25666814  0.49820378  0.25199469  1
  V  V75  1  -0.00255793  0.49844254  0.50143112  1
  V  V76  1  0.11202250  0.36707613  0.75087101  1
  V  V77  1  0.25201023  0.36710298  0.11943342  1
  V  V78  1  0.11228397  0.00974437  0.61811728  1
  V  V79  1  0.37114288  0.37775850  0.49494075  1
  V  V80  1  0.36567578  0.12030584  0.24849004  1
  V  V81  1  0.74714758  0.63017372  0.37275210  1
  V  V82  1  0.37324829  0.35892388  -0.00254082  1
  V  V83  1  0.61492984  0.61691150  -0.00014923  1
  V  V84  1  0.62519522  0.74888884  0.87209243  1
  Zn  Zn85  1  0.62945830  0.37060667  0.24691409  1
  Zn  Zn86  1  0.75595736  0.49379674  0.74435588  1
  Zn  Zn87  1  0.85387593  0.03759442  0.90350708  1
  Zn  Zn88  1  0.49812294  0.24648906  0.24856715  1
  Zn  Zn89  1  0.37296507  0.24048902  0.11984715  1
  Zn  Zn90  1  0.61602439  0.47757051  0.10516522  1
  Zn  Zn91  1  0.37559370  0.75139292  0.62736076  1
  Zn  Zn92  1  0.12104593  0.87323610  0.75499597  1
  Zn  Zn93  1  0.70596539  0.16158923  0.92384232  1
  Zn  Zn94  1  0.38200799  0.87930324  0.50168574  1
  Zn  Zn95  1  0.01700628  0.74457200  0.77223878  1
  Zn  Zn96  1  0.00259388  0.87145343  0.87683985  1
  Zn  Zn97  1  0.00493444  0.62666223  0.62922912  1
  Zn  Zn98  1  0.13095849  0.37181101  0.25231024  1
  Zn  Zn99  1  0.09798664  0.23380491  0.86402742  1
  Zn  Zn100  1  0.49881694  0.62252270  0.12188787  1
  Zn  Zn101  1  0.88359180  0.50402635  0.88205187  1
  Zn  Zn102  1  0.37617314  0.62397119  0.75092130  1
  Zn  Zn103  1  0.49562926  0.74941727  0.74918302  1
  Zn  Zn104  1  0.24792473  0.37078600  0.62512186  1
  Zn  Zn105  1  0.00597335  0.75348780  0.24584882  1
  Zn  Zn106  1  0.24118803  -0.00203457  0.25719784  1
  Zn  Zn107  1  0.18696250  0.18595837  0.18999052  1
  Zn  Zn108  1  0.18343394  0.18493553  0.68606255  1
  Zn  Zn109  1  0.18836794  0.68560488  0.18616730  1
  Zn  Zn110  1  0.18841178  0.68747281  0.68824823  1
  Zn  Zn111  1  0.68601868  0.18762862  0.19320479  1
  Zn  Zn112  1  0.68655912  0.19072428  0.68413338  1
  Zn  Zn113  1  0.68852566  0.68548836  0.18465858  1
  Zn  Zn114  1  0.68957823  0.68567633  0.68457492  1
  Zn  Zn115  1  0.31699445  0.31139539  0.30760061  1
  Zn  Zn116  1  0.31313566  0.31176880  0.81327042  1
  Zn  Zn117  1  0.31714154  0.81482487  0.31530218  1
  Zn  Zn118  1  0.31000363  0.81139662  0.80895641  1
  Zn  Zn119  1  0.81574351  0.31464545  0.31800857  1
  Zn  Zn120  1  0.82477755  0.31252038  0.80451490  1
  Zn  Zn121  1  0.81242592  0.81484434  0.31136108  1
  Zn  Zn122  1  0.81387030  0.81041601  0.81066067  1
  Zn  Zn123  1  0.18884105  0.43625209  0.43629683  1
  Zn  Zn124  1  0.18552782  0.43403138  0.93769396  1
  Zn  Zn125  1  0.18698887  0.93928193  0.43913800  1
  Zn  Zn126  1  0.18512025  0.94197332  0.94187343  1
  Zn  Zn127  1  0.68375519  0.44234353  0.43227905  1
  Zn  Zn128  1  0.68965924  0.32499356  0.93477543  1
  Zn  Zn129  1  0.69253928  0.93921377  0.43843613  1
  Zn  Zn130  1  0.69195945  0.93565633  0.93337540  1
  Zn  Zn131  1  0.31047848  0.05964907  0.06411077  1
  Zn  Zn132  1  0.31047192  0.06501699  0.55840074  1
  Zn  Zn133  1  0.31123506  0.56162838  0.06316182  1
  Zn  Zn134  1  0.31282558  0.56098497  0.56332453  1
  Zn  Zn135  1  0.80760764  0.06554652  0.07274392  1
  Zn  Zn136  1  0.81419339  0.06715269  0.56654139  1
  Zn  Zn137  1  0.80570796  0.56320430  0.06210679  1
  Zn  Zn138  1  0.81410521  0.56363676  0.56172231  1
  Zn  Zn139  1  0.44079733  0.43927622  0.17924546  1
  Zn  Zn140  1  0.43860091  0.43817375  0.68575543  1
  Zn  Zn141  1  0.43817157  0.93756188  0.19004852  1
  Zn  Zn142  1  0.43738494  0.93547642  0.68768798  1
  Zn  Zn143  1  0.93656609  0.43892903  0.18964214  1
  Zn  Zn144  1  0.93813359  0.43849407  0.68599119  1
  Zn  Zn145  1  0.93006491  0.93902946  0.18930449  1
  Zn  Zn146  1  0.93958674  0.93706943  0.69227161  1
  Zn  Zn147  1  0.05946635  0.06425519  0.31451438  1
  Zn  Zn148  1  0.06889997  0.03673988  0.82335135  1
  Zn  Zn149  1  0.06578780  0.56246288  0.30981700  1
  Zn  Zn150  1  0.06084662  0.55634017  0.81219074  1
  Zn  Zn151  1  0.55726215  0.06228405  0.31486824  1
  Zn  Zn152  1  0.56340129  0.05758276  0.80691708  1
  Zn  Zn153  1  0.56009777  0.56473799  0.31036729  1
  Zn  Zn154  1  0.56348622  0.55681079  0.81156759  1
  Zn  Zn155  1  0.43635660  0.18493144  0.43515056  1
  Zn  Zn156  1  0.53829238  0.18626023  0.93681776  1
  Zn  Zn157  1  0.43872405  0.69225303  0.43392760  1
  Zn  Zn158  1  0.43307237  0.68950857  0.93445099  1
  Zn  Zn159  1  0.93562628  0.19478977  0.44254587  1
  Zn  Zn160  1  0.87265031  0.20735547  0.92813313  1
  Zn  Zn161  1  0.93973985  0.68739508  0.43720015  1
  Zn  Zn162  1  0.93709684  0.68998837  0.93751222  1
  Zn  Zn163  1  0.06079032  0.30959243  0.06668296  1
  Zn  Zn164  1  0.06857655  0.31440196  0.55660386  1
  Zn  Zn165  1  0.06084692  0.80960991  0.05738799  1
  Zn  Zn166  1  0.06714313  0.81554955  0.56229122  1
  Zn  Zn167  1  0.56779895  0.30007682  0.06777421  1
  Zn  Zn168  1  0.55977422  0.31359047  0.56187744  1
  Zn  Zn169  1  0.55868675  0.80870085  0.06006326  1
  Zn  Zn170  1  0.56275670  0.80983861  0.55942291  1
  O  O171  1  0.11906354  0.11931792  0.12137001  1
  O  O172  1  0.12902569  0.11481044  0.61252410  1
  O  O173  1  0.11834487  0.61965464  0.11863327  1
  O  O174  1  0.12671014  0.61653049  0.61638606  1
  O  O175  1  0.61401468  0.12261118  0.13084533  1
  O  O176  1  0.61969221  0.11739174  0.61880613  1
  O  O177  1  0.62450523  0.63419869  0.10442826  1
  O  O178  1  0.61547388  0.61868994  0.61760768  1
  O  O179  1  0.38028954  0.36986536  0.38746883  1
  O  O180  1  0.38055298  0.38059940  0.87999160  1
  O  O181  1  0.38346140  0.88598975  0.37665427  1
  O  O182  1  0.37612028  0.88441994  0.87803896  1
  O  O183  1  0.88506187  0.39130502  0.37234835  1
  O  O184  1  0.88188197  0.38144328  0.89483899  1
  O  O185  1  0.87997739  0.88275987  0.38237422  1
  O  O186  1  0.87123678  0.86731966  0.89365684  1
  O  O187  1  0.26593842  -0.00818311  0.37235699  1
  O  O188  1  0.25728092  0.00542675  0.86584797  1
  O  O189  1  0.24489770  0.50763041  0.36397989  1
  O  O190  1  0.25618760  0.50382686  0.86929151  1
  O  O191  1  0.76122377  0.00590198  0.37168786  1
  O  O192  1  0.75686709  -0.00963885  0.85518115  1
  O  O193  1  0.75758310  0.51159543  0.37206157  1
  O  O194  1  0.75454187  0.51392199  0.86980204  1
  O  O195  1  0.24527424  0.49177733  0.13147469  1
  O  O196  1  0.24579418  0.49558105  0.63344036  1
  O  O197  1  0.23860691  0.98878563  0.12635418  1
  O  O198  1  0.25179258  0.99555740  0.63042265  1
  O  O199  1  0.74003932  0.50781217  0.14027477  1
  O  O200  1  0.73619195  0.50589678  0.62349595  1
  O  O201  1  0.75276940  0.99123856  0.13793343  1
  O  O202  1  0.74116478  0.99535467  0.63223296  1
  O  O203  1  0.00244289  0.37006050  0.25664325  1
  O  O204  1  0.01063470  0.37845131  0.75432624  1
  O  O205  1  -0.00831166  0.87180208  0.26388017  1
  O  O206  1  -0.00157129  0.86833446  0.75651497  1
  O  O207  1  0.49018878  0.37235751  0.26432046  1
  O  O208  1  0.50533115  0.36932697  0.75446015  1
  O  O209  1  0.49783284  0.86313367  0.25789920  1
  O  O210  1  0.50949459  0.87415908  0.75649386  1
  O  O211  1  0.49136626  0.11941111  0.23846866  1
  O  O212  1  0.49408014  0.13308625  0.74266346  1
  O  O213  1  0.49182372  0.63890752  0.25390321  1
  O  O214  1  0.50048034  0.62346001  0.73961550  1
  O  O215  1  0.99249230  0.13392283  0.24762450  1
  O  O216  1  1.00193263  0.10966388  0.74476578  1
  O  O217  1  0.99438555  0.62817382  0.24228994  1
  O  O218  1  0.99311690  0.62801914  0.74956228  1
  O  O219  1  0.37361158  0.25999897  -0.00020241  1
  O  O220  1  0.36530757  0.25283460  0.50329268  1
  O  O221  1  0.36450665  0.75402207  0.00736564  1
  O  O222  1  0.36278944  0.75014287  0.50026205  1
  O  O223  1  0.88030883  0.27292858  0.02057680  1
  O  O224  1  0.85956656  0.24873296  0.51001340  1
  O  O225  1  0.86724582  0.75147897  0.01253328  1
  O  O226  1  0.87055891  0.75579065  0.50560752  1
  O  O227  1  0.13972596  0.24002517  0.50211362  1
  O  O228  1  0.11825589  0.23499478  0.99799742  1
  O  O229  1  0.13596183  0.74577761  0.49229648  1
  O  O230  1  0.13744842  0.73900198  1.00612630  1
  O  O231  1  0.63266439  0.24692244  0.49436099  1
  O  O232  1  0.62475114  0.24621520  0.98742441  1
  O  O233  1  0.63429914  0.73664003  0.50497066  1
  O  O234  1  0.62859494  0.74758341  0.98571793  1
  O  O235  1  0.49399223  0.22959283  0.12767937  1
  O  O236  1  0.48807462  0.24635303  0.62840479  1
  O  O237  1  0.49095056  0.74889835  0.13587409  1
  O  O238  1  0.49896005  0.74012366  0.62578276  1
  O  O239  1  0.99138879  0.24698184  0.13630682  1
  O  O240  1  0.98758657  0.25500906  0.60988155  1
  O  O241  1  0.99363255  0.73921635  0.12536294  1
  O  O242  1  0.98884014  0.74892879  0.61743361  1
  O  O243  1  -0.01061692  0.26481543  0.36788370  1
  O  O244  1  -0.01144308  0.27198574  0.88025489  1
  O  O245  1  0.00937239  0.75737955  0.37371588  1
  O  O246  1  0.00768188  0.75652253  0.88664324  1
  O  O247  1  0.50754010  0.25859621  0.37816420  1
  O  O248  1  0.49258381  0.26457244  0.86152157  1
  O  O249  1  0.49706590  0.76283990  0.36207023  1
  O  O250  1  0.50668317  0.75668821  0.87255117  1
  O  O251  1  0.24702497  0.13908903  0.49781721  1
  O  O252  1  0.23835658  0.11467015  0.99201281  1
  O  O253  1  0.24628023  0.63081685  0.49534282  1
  O  O254  1  0.24264759  0.63136324  0.99375822  1
  O  O255  1  0.73857577  0.13324710  0.49710138  1
  O  O256  1  0.79780742  0.11809693  0.97497047  1
  O  O257  1  0.74350194  0.62919617  0.49225408  1
  O  O258  1  0.74126353  0.63233966  0.99122422  1
  O  O259  1  0.25862646  0.37872028  0.00805218  1
  O  O260  1  0.25522163  0.36373850  0.50075183  1
  O  O261  1  0.25119875  0.86777723  0.00468134  1
  O  O262  1  0.25412918  0.86823048  0.50558953  1
  O  O263  1  0.75712296  0.38894175  0.00408855  1
  O  O264  1  0.74394457  0.36452741  0.49472770  1
  O  O265  1  0.75563670  0.86966640  0.00830796  1
  O  O266  1  0.76003497  0.86886360  0.50403782  1
  O  O267  1  0.13765547  0.50223891  0.23771728  1
  O  O268  1  0.13250304  0.49198931  0.74345613  1
  O  O269  1  0.12286609  1.00490333  0.23760467  1
  O  O270  1  0.13654440  1.00454804  0.72933361  1
  O  O271  1  0.64001792  0.49966369  0.25978923  1
  O  O272  1  0.62677894  0.49138887  0.73909222  1
  O  O273  1  0.63975535  1.00479721  0.26033001  1
  O  O274  1  0.63526246  0.99205239  0.74145136  1
  O  O275  1  0.37093787  0.00600034  0.25739071  1
  O  O276  1  0.37026180  0.00465391  0.75634339  1
  O  O277  1  0.36448992  0.51097680  0.24348143  1
  O  O278  1  0.36656184  0.49906659  0.75744225  1
  O  O279  1  0.86855687  0.00935967  0.26030386  1
  O  O280  1  0.86541657  0.01640548  0.73464168  1
  O  O281  1  0.86400685  0.50700982  0.25588606  1
  O  O282  1  0.87374280  0.51338867  0.74826418  1
  O  O283  1  0.11152843  0.38270638  0.36952427  1
  O  O284  1  0.11343163  0.37008688  0.87234959  1
  O  O285  1  0.11508320  0.86836509  0.38189519  1
  O  O286  1  0.10882669  0.92432639  0.86206859  1
  O  O287  1  0.61490234  0.36855666  0.37283286  1
  O  O288  1  0.61180085  0.37914070  0.86473034  1
  O  O289  1  0.61335343  0.88018120  0.37874264  1
  O  O290  1  0.62173754  0.86604651  0.86855837  1
  O  O291  1  0.37611759  0.12000203  0.13739487  1
  O  O292  1  0.38081221  0.13021033  0.62814535  1
  O  O293  1  0.37270742  0.63684054  0.13172308  1
  O  O294  1  0.38930646  0.62291210  0.62398648  1
  O  O295  1  0.87946742  0.13879803  0.13455972  1
  O  O296  1  0.87424229  0.13778590  0.63289078  1
  O  O297  1  0.88129822  0.62989072  0.12785389  1
  O  O298  1  0.87716722  0.63350321  0.63180869  1
  O  O299  1  0.25150742  0.26333671  0.13213655  1
  O  O300  1  0.26275920  0.24934136  0.62303446  1
  O  O301  1  0.25454016  0.75515326  0.11839898  1
  O  O302  1  0.25136175  0.75923219  0.61530204  1
  O  O303  1  0.76328131  0.24816595  0.13374618  1
  O  O304  1  0.75066799  0.25287335  0.61244771  1
  O  O305  1  0.75736220  0.75557698  0.12169113  1
  O  O306  1  0.76146757  0.75456421  0.61869011  1
  O  O307  1  0.25125323  0.25193692  0.38338805  1
  O  O308  1  0.25091896  0.23311243  0.86973862  1
  O  O309  1  0.24464049  0.74670639  0.38045067  1
  O  O310  1  0.25387034  0.73960524  0.88387016  1
  O  O311  1  0.74443732  0.24643255  0.38459353  1
  O  O312  1  0.76753723  0.25579791  0.88407777  1
  O  O313  1  0.75814230  0.73749197  0.37860155  1
  O  O314  1  0.74185424  0.74279318  0.87823734  1
  O  O315  1  0.00547184  0.11756613  0.01417155  1
  O  O316  1  0.01734874  0.13234690  0.49221722  1
  O  O317  1  0.01155529  0.62532156  0.00700843  1
  O  O318  1  0.00922570  0.61484013  0.49926964  1
  O  O319  1  0.49531643  0.11215669  0.01710565  1
  O  O320  1  0.51371817  0.13229750  0.50602315  1
  O  O321  1  0.51120515  0.63259651  -0.00257475  1
  O  O322  1  0.50561307  0.62059480  0.50110293  1
  O  O323  1  0.49254097  0.38207193  0.49129131  1
  O  O324  1  0.49424491  0.36967384  0.98476136  1
  O  O325  1  0.49830703  0.86665711  0.48346046  1
  O  O326  1  0.49045562  0.87875181  0.99459130  1
  O  O327  1  1.00689104  0.39030369  0.49183823  1
  O  O328  1  1.00285686  0.38193757  0.99814293  1
  O  O329  1  0.98846993  0.87006055  0.49043040  1
  O  O330  1  0.99160875  0.88418440  1.00404145  1
  O  O331  1  0.50384472  0.49403634  0.38646798  1
  O  O332  1  0.48979391  0.48611588  0.86764039  1
  O  O333  1  0.49089747  0.98450618  0.36842976  1
  O  O334  1  0.49067016  0.99331388  0.88131048  1
  O  O335  1  0.99379070  0.49844920  0.37914887  1
  O  O336  1  0.99814240  0.48194422  0.87196954  1
  O  O337  1  0.98772632  0.99349650  0.37293000  1
  O  O338  1  0.97849384  1.00764913  0.89676848  1
  O  O339  1  0.00147545  0.00604180  0.12330626  1
  O  O340  1  0.01497479  -0.00566470  0.62004001  1
  O  O341  1  0.00920696  0.51159510  0.13273088  1
  O  O342  1  0.00705522  0.50267058  0.61654276  1
  O  O343  1  0.49641706  0.00675096  0.11768138  1
  O  O344  1  0.51324044  0.00318167  0.62990802  1
  O  O345  1  0.51071854  0.51184823  0.13571091  1
  O  O346  1  0.50724790  0.50535949  0.61242971  1
  O  O347  1  0.25220096  0.38303773  0.24395345  1
  O  O348  1  0.24331353  0.38418384  0.75251470  1
  O  O349  1  0.25130746  0.87327783  0.23798823  1
  O  O350  1  0.24981819  0.88790942  0.74209862  1
  O  O351  1  0.75130160  0.39253937  0.25937753  1
  O  O352  1  0.73671677  0.37472048  0.75583685  1
  O  O353  1  0.75495963  0.88485265  0.24204304  1
  O  O354  1  0.74778760  0.87885333  0.74018411  1
  O  O355  1  0.26176303  0.11970439  0.24840606  1
  O  O356  1  0.25583394  0.11542439  0.75405100  1
  O  O357  1  0.25778849  0.61948267  0.25344531  1
  O  O358  1  0.24971800  0.61231224  0.75756839  1
  O  O359  1  0.75576033  0.12079588  0.26066103  1
  O  O360  1  0.74260721  0.11327141  0.74701120  1
  O  O361  1  0.75399371  0.61893507  0.25644509  1
  O  O362  1  0.75784076  0.62539137  0.75643408  1
  O  O363  1  0.38614275  0.10886329  0.36274812  1
  O  O364  1  0.36763961  0.11171312  0.86928112  1
  O  O365  1  0.36890078  0.63074457  0.36298448  1
  O  O366  1  0.36345308  0.61625404  0.87552808  1
  O  O367  1  0.87131279  0.12009763  0.37519379  1
  O  O368  1  0.88271584  0.13213392  0.84118201  1
  O  O369  1  0.87035821  0.61759716  0.36964703  1
  O  O370  1  0.86787081  0.62497745  0.86902074  1
  O  O371  1  0.13259053  0.38223478  0.12635364  1
  O  O372  1  0.12750021  0.37983520  0.63349953  1
  O  O373  1  0.13032374  0.88145820  0.12045354  1
  O  O374  1  0.13829307  0.89021553  0.61709454  1
  O  O375  1  0.61792391  0.37024125  0.13577680  1
  O  O376  1  0.61695243  0.38502274  0.63219739  1
  O  O377  1  0.63702779  0.86605769  0.12139563  1
  O  O378  1  0.63023759  0.88040664  0.62602757  1
  O  O379  1  0.11115601  0.25070454  0.24810084  1
  O  O380  1  0.12914190  0.25942000  0.75282792  1
  O  O381  1  0.12635036  0.74569285  0.26349549  1
  O  O382  1  0.12617993  0.76053573  0.74110357  1
  O  O383  1  0.62091460  0.24869430  0.26692940  1
  O  O384  1  0.61153331  0.25821114  0.73950911  1
  O  O385  1  0.61129165  0.74507027  0.24740083  1
  O  O386  1  0.62559031  0.75301432  0.75867190  1
  O  O387  1  0.37824967  0.23217174  0.25071164  1
  O  O388  1  0.38218703  0.24667906  0.74127907  1
  O  O389  1  0.37821556  0.74417137  0.24286782  1
  O  O390  1  0.37615120  0.74333376  0.74626675  1
  O  O391  1  0.88142190  0.25055521  0.24412897  1
  O  O392  1  0.88100474  0.24078275  0.73234142  1
  O  O393  1  0.87556210  0.74397205  0.23950452  1
  O  O394  1  0.87653697  0.73971427  0.74147321  1
  O  O395  1  0.38243936  0.49015083  0.50316555  1
  O  O396  1  0.37121004  0.49479256  0.98853203  1
  O  O397  1  0.37613359  1.00288892  0.48494585  1
  O  O398  1  0.37749611  0.99302245  0.99240251  1
  O  O399  1  0.88538167  0.50733555  0.49148752  1
  O  O400  1  0.87508356  0.49090069  1.00672835  1
  O  O401  1  0.86793155  0.99177710  0.49355078  1
  O  O402  1  0.88025176  0.98725577  1.01252057  1
  O  O403  1  0.11352722  0.00729087  0.01455933  1
  O  O404  1  0.13351491  0.01452579  0.50842318  1
  O  O405  1  0.13359011  0.50979124  0.01388266  1
  O  O406  1  0.12205942  0.50456095  0.50615157  1
  O  O407  1  0.61360040  -0.01052651  -0.00337767  1
  O  O408  1  0.63149695  0.00941151  0.50888281  1
  O  O409  1  0.62556772  0.51871067  -0.00508303  1
  O  O410  1  0.61808788  0.50925486  0.50438715  1
  O  O411  1  0.36985689  0.37243324  0.11460396  1
  O  O412  1  0.37516283  0.36692600  0.61255429  1
  O  O413  1  0.36698167  0.86522474  0.12138640  1
  O  O414  1  0.36491492  0.87553237  0.62088867  1
  O  O415  1  0.87338265  0.37196639  0.12060267  1
  O  O416  1  0.87357774  0.36169347  0.63106384  1
  O  O417  1  0.86996367  0.86467599  0.11933729  1
  O  O418  1  0.87245302  0.86978934  0.61792675  1
  O  O419  1  0.12983132  0.11753872  0.38686987  1
  O  O420  1  0.12997105  0.12130355  0.88381206  1
  O  O421  1  0.13100336  0.63298948  0.38076109  1
  O  O422  1  0.13643891  0.61424597  0.88314311  1
  O  O423  1  0.62634890  0.13195027  0.38367544  1
  O  O424  1  0.61361027  0.12136242  0.88039773  1
  O  O425  1  0.63403741  0.62182455  0.38354419  1
  O  O426  1  0.62926569  0.63039248  0.87931776  1
