# generated using pymatgen
data_V85Zn86O256
_symmetry_space_group_name_H-M   'P 1'
_cell_length_a   16.94389161
_cell_length_b   16.96048570
_cell_length_c   16.96782062
_cell_angle_alpha   90.00503238
_cell_angle_beta   89.89478991
_cell_angle_gamma   89.93000381
_symmetry_Int_Tables_number   1
_chemical_formula_structural   V85Zn86O256
_chemical_formula_sum   'V85 Zn86 O256'
_cell_volume   4876.14325120
_cell_formula_units_Z   1
loop_
 _symmetry_equiv_pos_site_id
 _symmetry_equiv_pos_as_xyz
  1  'x, y, z'
loop_
 _atom_site_type_symbol
 _atom_site_label
 _atom_site_symmetry_multiplicity
 _atom_site_fract_x
 _atom_site_fract_y
 _atom_site_fract_z
 _atom_site_occupancy
  V  V0  1  0.49868338  0.25075544  0.25180563  1
  V  V1  1  0.62331444  0.25224047  0.87573709  1
  V  V2  1  0.62311799  0.25183084  0.37840380  1
  V  V3  1  0.12973781  0.25471664  0.87839154  1
  V  V4  1  0.60611949  0.61960751  0.49776422  1
  V  V5  1  0.62499661  0.12623944  0.00064564  1
  V  V6  1  0.24045809  -0.01346981  0.74270700  1
  V  V7  1  0.74768126  0.74417966  0.50239958  1
  V  V8  1  0.25059850  0.49880245  0.73649467  1
  V  V9  1  0.88001280  0.37942728  0.49828785  1
  V  V10  1  0.87733923  -0.00066736  0.37352746  1
  V  V11  1  0.92864887  0.69638170  0.57714461  1
  V  V12  1  0.00190018  0.87358343  0.37295092  1
  V  V13  1  0.87467358  0.63070070  0.75037087  1
  V  V14  1  0.74930222  0.37614668  0.12565738  1
  V  V15  1  0.49556717  0.87143734  0.37814666  1
  V  V16  1  0.13705777  0.75528575  0.86871545  1
  V  V17  1  0.75178897  0.12693409  0.86792006  1
  V  V18  1  0.00251774  -0.00085573  0.00075001  1
  V  V19  1  0.62259376  0.74884735  0.37082304  1
  V  V20  1  -0.00281983  0.62221563  0.12613226  1
  V  V21  1  0.62368769  0.00111230  0.12674069  1
  V  V22  1  0.12972637  -0.00329179  0.12605345  1
  V  V23  1  0.25480104  0.13106308  0.87711996  1
  V  V24  1  0.74592559  0.50297400  0.74913911  1
  V  V25  1  0.49346018  0.64115383  0.13372002  1
  V  V26  1  0.49375250  0.25121767  0.74566746  1
  V  V27  1  0.75039597  0.24978638  0.50108041  1
  V  V28  1  0.49859632  0.12686734  0.12620881  1
  V  V29  1  0.36549826  0.25701354  0.11918843  1
  V  V30  1  0.87509952  0.87412604  0.49720608  1
  V  V31  1  0.61915443  0.50091551  0.12972839  1
  V  V32  1  -0.00613790  0.74836625  0.24545721  1
  V  V33  1  0.36625941  0.50143403  0.37525064  1
  V  V34  1  0.75041578  -0.00339232  0.75076433  1
  V  V35  1  0.12956874  0.37168453  0.24074097  1
  V  V36  1  0.12646263  0.86810687  0.25154070  1
  V  V37  1  0.87623981  0.24930737  0.12553190  1
  V  V38  1  0.10779910  0.49812885  0.61549772  1
  V  V39  1  0.37757956  0.63050748  0.72949909  1
  V  V40  1  0.37252766  0.12672657  0.74039864  1
  V  V41  1  0.25268828  0.49730510  0.24206805  1
  V  V42  1  0.12964349  0.62444330  -0.00736620  1
  V  V43  1  0.75290820  0.86965302  0.62933937  1
  V  V44  1  0.49830891  0.00010239  0.50321371  1
  V  V45  1  0.00230924  0.37635617  0.86979823  1
  V  V46  1  0.00109112  0.49813422  -0.00223287  1
  V  V47  1  0.23417013  0.73994606  0.49525688  1
  V  V48  1  0.36515875  0.37514435  0.51113090  1
  V  V49  1  0.13344244  0.12781222  0.00143670  1
  V  V50  1  0.49415736  0.38198354  0.37823619  1
  V  V51  1  0.87478708  0.50066623  0.87410256  1
  V  V52  1  0.13586558  0.24169338  0.37444926  1
  V  V53  1  0.25429903  0.74618384  0.00679897  1
  V  V54  1  0.87952361  0.50502432  0.37100416  1
  V  V55  1  0.75008226  0.25084234  0.00088382  1
  V  V56  1  0.75684672  0.50798784  0.24780094  1
  V  V57  1  0.74557655  0.62515112  0.87531684  1
  V  V58  1  0.75040334  0.12589740  0.37680908  1
  V  V59  1  0.00454214  0.37477943  0.37584141  1
  V  V60  1  0.37524409  -0.00149307  0.87438557  1
  V  V61  1  0.11328188  0.12614037  0.51505958  1
  V  V62  1  0.36786931  0.00311663  0.37959793  1
  V  V63  1  0.50007911  -0.00126954  -0.00098089  1
  V  V64  1  0.36877386  0.12488149  0.25617486  1
  V  V65  1  0.62618399  -0.00188519  0.62885037  1
  V  V66  1  0.61822912  0.87275803  0.25037977  1
  V  V67  1  0.87616483  0.87483582  0.00244464  1
  V  V68  1  0.36767652  0.63965593  0.25380914  1
  V  V69  1  0.36601806  0.51388505  0.87804929  1
  V  V70  1  0.37571493  0.87110066  0.00700858  1
  V  V71  1  0.61966262  0.62683060  0.00073416  1
  V  V72  1  0.00210135  0.74545759  0.75724309  1
  V  V73  1  0.36119484  0.86810618  0.51445419  1
  V  V74  1  0.50338881  0.75266354  0.73681162  1
  V  V75  1  0.00098225  0.12888898  0.12602201  1
  V  V76  1  0.74923977  0.75077425  0.00023815  1
  V  V77  1  0.25274565  0.24305810  0.51929462  1
  V  V78  1  0.62674263  0.12585075  0.50173070  1
  V  V79  1  0.87695023  0.00569169  0.87463467  1
  V  V80  1  0.74707175  0.37732015  0.62349351  1
  V  V81  1  0.74713302  0.00051995  0.25008517  1
  V  V82  1  0.62284837  0.37936635  0.75181904  1
  V  V83  1  0.49410961  0.37990125  0.87996662  1
  V  V84  1  0.88070943  0.24850421  0.63311074  1
  Zn  Zn85  1  0.87675851  0.37493364  -0.00019672  1
  Zn  Zn86  1  0.87238692  0.74369401  0.12534595  1
  Zn  Zn87  1  0.36066794  0.37895510  0.00124706  1
  Zn  Zn88  1  0.75568148  0.62723395  0.37104425  1
  Zn  Zn89  1  0.61052677  0.51313973  0.62616042  1
  Zn  Zn90  1  0.13535892  0.36997829  0.74219081  1
  Zn  Zn91  1  0.24821643  -0.00023389  0.25475678  1
  Zn  Zn92  1  0.00634879  0.87611470  0.87403631  1
  Zn  Zn93  1  0.74981063  0.87273102  0.12746318  1
  Zn  Zn94  1  0.13118844  0.49313485  0.11696272  1
  Zn  Zn95  1  0.62280425  0.75973770  0.86780955  1
  Zn  Zn96  1  0.87610796  0.12555278  0.25118775  1
  Zn  Zn97  1  0.00119240  0.24774039  0.25213705  1
  Zn  Zn98  1  0.50435783  0.87284082  0.86857063  1
  Zn  Zn99  1  0.00380544  0.24361518  0.74959712  1
  Zn  Zn100  1  0.49905146  0.13173327  0.62321019  1
  Zn  Zn101  1  0.12585368  0.61646943  0.49697974  1
  Zn  Zn102  1  0.93746010  0.07778340  0.69451713  1
  Zn  Zn103  1  0.03479519  -0.02322976  0.54676240  1
  Zn  Zn104  1  0.62459167  0.37746653  0.25405913  1
  Zn  Zn105  1  0.25615277  0.86957738  0.13040561  1
  Zn  Zn106  1  0.49329790  0.50262836  0.00400062  1
  Zn  Zn107  1  0.18828898  0.18244798  0.19290162  1
  Zn  Zn108  1  0.18412064  0.18026043  0.69298742  1
  Zn  Zn109  1  0.18356861  0.68427480  0.18515964  1
  Zn  Zn110  1  0.19297503  0.67861696  0.68150394  1
  Zn  Zn111  1  0.68688074  0.18845947  0.19044291  1
  Zn  Zn112  1  0.68687918  0.19081065  0.68703009  1
  Zn  Zn113  1  0.68589906  0.68713425  0.18703917  1
  Zn  Zn114  1  0.68147597  0.68622837  0.68297140  1
  Zn  Zn115  1  0.31064336  0.31330676  0.31222570  1
  Zn  Zn116  1  0.31375755  0.31639631  0.81408222  1
  Zn  Zn117  1  0.30719843  0.81652626  0.32059263  1
  Zn  Zn118  1  0.31988677  0.80994334  0.81351346  1
  Zn  Zn119  1  0.81199504  0.31661291  0.31008154  1
  Zn  Zn120  1  0.81202013  0.31622220  0.81311196  1
  Zn  Zn121  1  0.81070527  0.81049596  0.31058302  1
  Zn  Zn122  1  0.81272590  0.81568944  0.81663412  1
  Zn  Zn123  1  0.18974913  0.43482589  0.43583848  1
  Zn  Zn124  1  0.19040230  0.44303556  0.92922038  1
  Zn  Zn125  1  0.18608889  0.93935326  0.43721568  1
  Zn  Zn126  1  0.19336242  0.93559328  0.93542992  1
  Zn  Zn127  1  0.68865621  0.43980931  0.43479909  1
  Zn  Zn128  1  0.68536659  0.43988312  0.94070445  1
  Zn  Zn129  1  0.68839825  0.93634335  0.43906304  1
  Zn  Zn130  1  0.68679549  0.93632677  0.93705674  1
  Zn  Zn131  1  0.31426780  0.06292480  0.06501258  1
  Zn  Zn132  1  0.30532167  0.06074074  0.56341543  1
  Zn  Zn133  1  0.31320651  0.56639560  0.06517621  1
  Zn  Zn134  1  0.31114697  0.56224024  0.55809204  1
  Zn  Zn135  1  0.81167646  0.06357849  0.06148745  1
  Zn  Zn136  1  0.82860326  0.05480984  0.56612556  1
  Zn  Zn137  1  0.81315641  0.56253154  0.06171165  1
  Zn  Zn138  1  0.80590551  0.55726093  0.55824610  1
  Zn  Zn139  1  0.43706409  0.43866204  0.19090352  1
  Zn  Zn140  1  0.43540501  0.44268802  0.69040036  1
  Zn  Zn141  1  0.43802402  0.93780996  0.18964179  1
  Zn  Zn142  1  0.43668374  0.93886437  0.68908726  1
  Zn  Zn143  1  0.94239541  0.43375700  0.18677778  1
  Zn  Zn144  1  0.93576172  0.43648063  0.68966573  1
  Zn  Zn145  1  0.93831109  0.93811623  0.18602786  1
  Zn  Zn146  1  0.96318696  0.90323668  0.66478997  1
  Zn  Zn147  1  0.06231124  0.06080543  0.31279314  1
  Zn  Zn148  1  0.06767647  0.06296770  0.81668322  1
  Zn  Zn149  1  0.06978302  0.55608981  0.30773934  1
  Zn  Zn150  1  0.06760609  0.56569523  0.80914794  1
  Zn  Zn151  1  0.55741114  0.06248205  0.31665627  1
  Zn  Zn152  1  0.56284521  0.06286661  0.81100939  1
  Zn  Zn153  1  0.55696862  0.56450251  0.31271004  1
  Zn  Zn154  1  0.55520965  0.56760310  0.81249340  1
  Zn  Zn155  1  0.43583485  0.18988376  0.44132971  1
  Zn  Zn156  1  0.43815838  0.18811764  0.93637243  1
  Zn  Zn157  1  0.42829338  0.69289993  0.43704846  1
  Zn  Zn158  1  0.44091365  0.69159660  0.93513021  1
  Zn  Zn159  1  0.93820678  0.19234705  0.43810586  1
  Zn  Zn160  1  0.94284820  0.18816816  0.93756977  1
  Zn  Zn161  1  0.98430397  0.66235490  0.40594107  1
  Zn  Zn162  1  0.93964062  0.68622845  0.93658833  1
  Zn  Zn163  1  0.18770811  0.31080629  0.06059937  1
  Zn  Zn164  1  0.06522611  0.31796844  0.56231207  1
  Zn  Zn165  1  0.06521918  0.81025507  0.06106285  1
  Zn  Zn166  1  0.12591278  0.81444116  0.59628006  1
  Zn  Zn167  1  0.55893817  0.31522383  0.06371277  1
  Zn  Zn168  1  0.54098929  0.34800793  0.57841260  1
  Zn  Zn169  1  0.56281237  0.81459981  0.06010966  1
  Zn  Zn170  1  0.56408542  0.81454539  0.56126463  1
  O  O171  1  0.12035937  0.12024272  0.12025288  1
  O  O172  1  0.11752278  0.12770828  0.61532240  1
  O  O173  1  0.11450819  0.62276663  0.11074237  1
  O  O174  1  0.12887034  0.60371395  0.61843867  1
  O  O175  1  0.61847498  0.12228420  0.12141228  1
  O  O176  1  0.62782096  0.11560999  0.61915686  1
  O  O177  1  0.61285291  0.62056396  0.12324290  1
  O  O178  1  0.62413617  0.62627263  0.60283606  1
  O  O179  1  0.37753161  0.38287230  0.37648412  1
  O  O180  1  0.38102600  0.38708852  0.87833542  1
  O  O181  1  0.38191231  0.88334392  0.38305945  1
  O  O182  1  0.37852682  0.88462505  0.88719267  1
  O  O183  1  0.88220195  0.37697943  0.38141367  1
  O  O184  1  0.88238087  0.38210615  0.87696478  1
  O  O185  1  0.87641624  0.88055924  0.37676217  1
  O  O186  1  0.87087169  0.88880094  0.88884377  1
  O  O187  1  0.26438266  -0.00189646  0.37446431  1
  O  O188  1  0.26244319  0.00940070  0.87369388  1
  O  O189  1  0.25936650  0.49764429  0.36328138  1
  O  O190  1  0.26295047  0.50566040  0.86287990  1
  O  O191  1  0.75074417  0.00382688  0.36300221  1
  O  O192  1  0.75433802  0.00849513  0.87172528  1
  O  O193  1  0.75933446  0.50125796  0.36443946  1
  O  O194  1  0.75331402  0.50577718  0.87033063  1
  O  O195  1  0.24977633  0.50174641  0.13648506  1
  O  O196  1  0.25148836  0.49805399  0.63541126  1
  O  O197  1  0.23815771  0.99964333  0.12710953  1
  O  O198  1  0.24989014  1.00244848  0.64341567  1
  O  O199  1  0.74353592  0.49682571  0.12969778  1
  O  O200  1  0.74168369  0.49232334  0.62976112  1
  O  O201  1  0.74388058  1.00168290  0.13669757  1
  O  O202  1  0.74874941  0.99443353  0.63445695  1
  O  O203  1  0.01116541  0.36855907  0.25549201  1
  O  O204  1  0.00167165  0.37443639  0.76237625  1
  O  O205  1  0.00594134  0.87010789  0.25142498  1
  O  O206  1  -0.02059526  0.84955679  0.76329311  1
  O  O207  1  0.50050814  0.36657641  0.25932091  1
  O  O208  1  0.50047707  0.36847965  0.76473028  1
  O  O209  1  0.51120069  0.88071345  0.25980275  1
  O  O210  1  0.48770168  0.85729058  0.75039935  1
  O  O211  1  0.49302956  0.13276245  0.24625898  1
  O  O212  1  0.49210669  0.13444668  0.75060297  1
  O  O213  1  0.48799177  0.62531963  0.24047636  1
  O  O214  1  0.48605050  0.63242703  0.74765858  1
  O  O215  1  0.99773583  0.12642511  0.24040034  1
  O  O216  1  0.99614027  0.13145458  0.76732004  1
  O  O217  1  1.00765902  0.63504839  0.23743287  1
  O  O218  1  0.98820500  0.63290444  0.75622500  1
  O  O219  1  0.38133632  0.24930568  0.01756505  1
  O  O220  1  0.35826437  0.25372610  0.49833176  1
  O  O221  1  0.36685784  0.75841809  -0.00522038  1
  O  O222  1  0.36360588  0.76351286  0.50111387  1
  O  O223  1  0.87026418  0.24966304  0.01080479  1
  O  O224  1  0.86834007  0.26101032  0.50696811  1
  O  O225  1  0.86747948  0.75767615  -0.00170126  1
  O  O226  1  0.86974259  0.75334489  0.50712076  1
  O  O227  1  0.13400302  0.24416084  0.49415454  1
  O  O228  1  0.12706524  0.23987647  0.98990721  1
  O  O229  1  0.12984031  0.74798439  0.49827734  1
  O  O230  1  0.13297287  0.74415818  0.98990892  1
  O  O231  1  0.63251140  0.24156717  0.49488197  1
  O  O232  1  0.62871662  0.24656264  0.99561848  1
  O  O233  1  0.63009816  0.74367767  0.48905997  1
  O  O234  1  0.63125595  0.73915693  1.00256226  1
  O  O235  1  0.49497750  0.24687718  0.13672591  1
  O  O236  1  0.50571587  0.25338309  0.64260592  1
  O  O237  1  0.50364044  0.73907011  0.12719195  1
  O  O238  1  0.50461713  0.75354081  0.63657069  1
  O  O239  1  0.99179401  0.23556974  0.12503647  1
  O  O240  1  0.98441734  0.26099846  0.62753091  1
  O  O241  1  0.99833317  0.74158341  0.12762373  1
  O  O242  1  0.99404599  0.74635116  0.63744452  1
  O  O243  1  0.00841993  0.25942683  0.37268974  1
  O  O244  1  0.00941315  0.26152091  0.87884318  1
  O  O245  1  -0.00893947  0.76744682  0.36113670  1
  O  O246  1  0.01326989  0.74939221  0.87294697  1
  O  O247  1  0.50132356  0.25418449  0.36460792  1
  O  O248  1  0.50484808  0.25819233  0.87064984  1
  O  O249  1  0.50612261  0.76400103  0.38040529  1
  O  O250  1  0.50217172  0.75084055  0.86198581  1
  O  O251  1  0.24003511  0.13775791  0.50461347  1
  O  O252  1  0.24135345  0.11949101  0.99414559  1
  O  O253  1  0.24875667  0.63598291  0.49721195  1
  O  O254  1  0.24227453  0.63226239  1.00310857  1
  O  O255  1  0.74741482  0.12894255  0.49442303  1
  O  O256  1  0.74298861  0.13125568  0.99290279  1
  O  O257  1  0.74939846  0.63645676  0.49428941  1
  O  O258  1  0.74171624  0.63146049  0.99727424  1
  O  O259  1  0.24818296  0.37667878  -0.00345753  1
  O  O260  1  0.25848761  0.35950067  0.49509472  1
  O  O261  1  0.25900857  0.86725661  0.00303930  1
  O  O262  1  0.25799528  0.87819500  0.50280419  1
  O  O263  1  0.75082138  0.36831094  0.00667706  1
  O  O264  1  0.75355717  0.37039222  0.50692213  1
  O  O265  1  0.75612017  0.86688547  0.00424992  1
  O  O266  1  0.75595949  0.86182157  0.50087641  1
  O  O267  1  0.13423343  0.48926026  0.24416640  1
  O  O268  1  0.13892655  0.50284533  0.74288427  1
  O  O269  1  0.12564516  0.99191754  0.24183509  1
  O  O270  1  0.14230493  0.99742324  0.76431601  1
  O  O271  1  0.62999476  0.50140594  0.24124554  1
  O  O272  1  0.62750974  0.49721926  0.74867889  1
  O  O273  1  0.62867655  0.99512335  0.24725721  1
  O  O274  1  0.63854626  1.00618078  0.74226969  1
  O  O275  1  0.37767941  0.00836922  0.25985618  1
  O  O276  1  0.37256846  0.00905445  0.75946487  1
  O  O277  1  0.36786899  0.50552945  0.25556179  1
  O  O278  1  0.37048772  0.50952918  0.75578262  1
  O  O279  1  0.86417606  -0.00059773  0.25606744  1
  O  O280  1  0.86099328  0.00604676  0.76338737  1
  O  O281  1  0.86711660  0.49040604  0.25684229  1
  O  O282  1  0.86759619  0.51067470  0.75364194  1
  O  O283  1  0.12000742  0.36503830  0.36893187  1
  O  O284  1  0.11967149  0.36880717  0.87052563  1
  O  O285  1  0.11327056  0.88478246  0.36463033  1
  O  O286  1  0.12493623  0.85896374  0.87969634  1
  O  O287  1  0.61354615  0.37028304  0.37764727  1
  O  O288  1  0.61758775  0.37375210  0.87076261  1
  O  O289  1  0.61827024  0.86921585  0.37086176  1
  O  O290  1  0.61834392  0.87349232  0.87976006  1
  O  O291  1  0.38092498  0.13389055  0.13286915  1
  O  O292  1  0.37720576  0.12127079  0.63775831  1
  O  O293  1  0.38598386  0.62454923  0.13774099  1
  O  O294  1  0.37940501  0.62032014  0.63117302  1
  O  O295  1  0.88255200  0.12995824  0.12503090  1
  O  O296  1  0.86649161  0.14655588  0.62515279  1
  O  O297  1  0.89147266  0.62498289  0.11665305  1
  O  O298  1  0.86704092  0.63004835  0.63101001  1
  O  O299  1  0.26165638  0.24588543  0.12764861  1
  O  O300  1  0.24470108  0.24877089  0.61754072  1
  O  O301  1  0.24352351  0.75190964  0.11087448  1
  O  O302  1  0.22729340  0.76050776  0.60990855  1
  O  O303  1  0.75554631  0.25415656  0.12102233  1
  O  O304  1  0.75885008  0.25831365  0.62069890  1
  O  O305  1  0.75173724  0.74914386  0.11358978  1
  O  O306  1  0.73985014  0.75876804  0.61549522  1
  O  O307  1  0.23745399  0.25034145  0.37911928  1
  O  O308  1  0.24651805  0.23905305  0.87256652  1
  O  O309  1  0.24667649  0.76035044  0.39656299  1
  O  O310  1  0.24072636  0.75210755  0.88179579  1
  O  O311  1  0.74536474  0.24705550  0.37974958  1
  O  O312  1  0.74637900  0.24498007  0.88013661  1
  O  O313  1  0.74218406  0.74777193  0.38111164  1
  O  O314  1  0.74596066  0.74460870  0.88626402  1
  O  O315  1  0.01309675  0.11901580  0.00571757  1
  O  O316  1  0.01329602  0.13289281  0.50058637  1
  O  O317  1  0.00654932  0.61480048  0.00148256  1
  O  O318  1  -0.01783082  0.63556392  0.52021101  1
  O  O319  1  0.50571315  0.11968091  0.00519371  1
  O  O320  1  0.50739103  0.12060262  0.50367965  1
  O  O321  1  0.50433214  0.62577195  0.01317814  1
  O  O322  1  0.50756595  0.62768129  0.49221464  1
  O  O323  1  0.47637313  0.35574591  0.48373646  1
  O  O324  1  0.49758539  0.37872972  0.98928817  1
  O  O325  1  0.49143711  0.88058054  0.49499095  1
  O  O326  1  0.49320892  0.88354523  1.00080635  1
  O  O327  1  0.99037614  0.37028100  0.49012802  1
  O  O328  1  0.99931383  0.39202345  0.98661423  1
  O  O329  1  0.98155994  0.87991431  0.48645672  1
  O  O330  1  0.99282169  0.88040515  0.99874940  1
  O  O331  1  0.48779571  0.48863276  0.36834153  1
  O  O332  1  0.48862077  0.49482907  0.87725684  1
  O  O333  1  0.49432716  0.99002301  0.38386722  1
  O  O334  1  0.48921417  1.00266917  0.87938175  1
  O  O335  1  0.99209193  0.48218130  0.36416825  1
  O  O336  1  0.99621036  0.49731032  0.87718533  1
  O  O337  1  0.98658570  0.99014342  0.36614934  1
  O  O338  1  0.99197213  0.99703928  0.88272360  1
  O  O339  1  0.00946611  0.00941032  0.12106705  1
  O  O340  1  -0.05761796  0.00595349  0.61010107  1
  O  O341  1  0.00406021  0.50349607  0.11503896  1
  O  O342  1  0.00882517  0.49878121  0.62773687  1
  O  O343  1  0.50517701  0.00782123  0.12068337  1
  O  O344  1  0.51113248  0.00255485  0.62253809  1
  O  O345  1  0.50654087  0.50665178  0.12525374  1
  O  O346  1  0.51614711  0.45521323  0.61708667  1
  O  O347  1  0.24166127  0.38293589  0.25285153  1
  O  O348  1  0.25287451  0.39387553  0.75489556  1
  O  O349  1  0.24176924  0.87786326  0.24827500  1
  O  O350  1  0.25975278  0.88847890  0.75739689  1
  O  O351  1  0.74488492  0.38535567  0.24262984  1
  O  O352  1  0.74570606  0.38464579  0.74477372  1
  O  O353  1  0.73739626  0.88278035  0.24941938  1
  O  O354  1  0.75595456  0.88325864  0.74136353  1
  O  O355  1  0.26463356  0.12061425  0.25046231  1
  O  O356  1  0.25723740  0.11839054  0.76050505  1
  O  O357  1  0.26143598  0.61936820  0.24498580  1
  O  O358  1  0.26631413  0.61449838  0.74495408  1
  O  O359  1  0.75079332  0.11732608  0.25759309  1
  O  O360  1  0.74620912  0.12267793  0.76390697  1
  O  O361  1  0.74927266  0.61280441  0.24982588  1
  O  O362  1  0.75179349  0.62111262  0.75414518  1
  O  O363  1  0.38542773  0.11571200  0.36746683  1
  O  O364  1  0.36935348  0.12000208  0.87138092  1
  O  O365  1  0.38115985  0.61712205  0.36109329  1
  O  O366  1  0.38027085  0.61363172  0.87083612  1
  O  O367  1  0.87005598  0.11774752  0.37447514  1
  O  O368  1  0.86546730  0.11410434  0.88884524  1
  O  O369  1  0.88212643  0.60757765  0.37700289  1
  O  O370  1  0.86617154  0.61916298  0.86959057  1
  O  O371  1  0.12308783  0.36974842  0.13743876  1
  O  O372  1  0.12301704  0.38939667  0.62942660  1
  O  O373  1  0.12524619  0.88339922  0.13132863  1
  O  O374  1  0.07197445  0.90235332  0.62520292  1
  O  O375  1  0.62834691  0.38536026  0.12664537  1
  O  O376  1  0.64200036  0.36262928  0.63512168  1
  O  O377  1  0.62496591  0.88093534  0.13434689  1
  O  O378  1  0.63824088  0.89030490  0.61541908  1
  O  O379  1  0.12744805  0.25353455  0.26019568  1
  O  O380  1  0.12552788  0.25120181  0.76415481  1
  O  O381  1  0.11494049  0.76266481  0.24187387  1
  O  O382  1  0.11984752  0.73859629  0.76327070  1
  O  O383  1  0.61548488  0.25206729  0.25794779  1
  O  O384  1  0.61947690  0.25742124  0.75939472  1
  O  O385  1  0.63022691  0.75792188  0.26170033  1
  O  O386  1  0.60806108  0.73997945  0.75096892  1
  O  O387  1  0.38025880  0.24420750  0.24395636  1
  O  O388  1  0.38290659  0.24060097  0.75907783  1
  O  O389  1  0.36708336  0.73840353  0.25725324  1
  O  O390  1  0.38020161  0.73521976  0.74952505  1
  O  O391  1  0.87412608  0.24846967  0.23678063  1
  O  O392  1  0.87455779  0.25892658  0.73578273  1
  O  O393  1  0.88771829  0.75693364  0.24248506  1
  O  O394  1  0.87550461  0.73512390  0.76040019  1
  O  O395  1  0.36369390  0.48434590  0.49001288  1
  O  O396  1  0.37396801  0.50224337  0.98951214  1
  O  O397  1  0.37844200  0.99612666  0.49587851  1
  O  O398  1  0.38046469  0.99636795  0.99415421  1
  O  O399  1  0.86684631  0.48611942  0.48948388  1
  O  O400  1  0.88224752  0.50031425  0.99104252  1
  O  O401  1  0.85400657  0.98610903  0.47855381  1
  O  O402  1  0.88031170  0.99440250  0.99720151  1
  O  O403  1  0.12247489  0.00435299  0.00590273  1
  O  O404  1  0.12435233  0.02150731  0.49135374  1
  O  O405  1  0.11907771  0.50817970  -0.00341287  1
  O  O406  1  0.12659199  0.49435192  0.51110329  1
  O  O407  1  0.62149591  0.00709467  0.00852095  1
  O  O408  1  0.62181982  0.00763804  0.50589697  1
  O  O409  1  0.62394269  0.51247745  0.01264614  1
  O  O410  1  0.62768466  0.51837840  0.49280719  1
  O  O411  1  0.38087555  0.35993427  0.12435565  1
  O  O412  1  0.37298818  0.37593639  0.60884677  1
  O  O413  1  0.37454569  0.88218275  0.11252650  1
  O  O414  1  0.37619597  0.88082787  0.61068221  1
  O  O415  1  0.87068418  0.36588769  0.12160022  1
  O  O416  1  0.86529554  0.37212214  0.61839453  1
  O  O417  1  0.87216450  0.87587463  0.11262966  1
  O  O418  1  0.86016496  0.86964006  0.61150554  1
  O  O419  1  0.11915149  0.14011575  0.37685098  1
  O  O420  1  0.13567490  0.13190475  0.88491188  1
  O  O421  1  0.09002940  0.62457221  0.39019549  1
  O  O422  1  0.12333155  0.63516566  0.88617376  1
  O  O423  1  0.62961902  0.13040100  0.38114407  1
  O  O424  1  0.63214453  0.13096698  0.88102729  1
  O  O425  1  0.62468478  0.63367212  0.38003197  1
  O  O426  1  0.62792939  0.62350797  0.88719668  1
