# generated using pymatgen
data_V85Zn86O256
_symmetry_space_group_name_H-M   'P 1'
_cell_length_a   16.93931951
_cell_length_b   16.96094814
_cell_length_c   16.96493714
_cell_angle_alpha   89.90395219
_cell_angle_beta   90.03754891
_cell_angle_gamma   90.02894415
_symmetry_Int_Tables_number   1
_chemical_formula_structural   V85Zn86O256
_chemical_formula_sum   'V85 Zn86 O256'
_cell_volume   4874.13531872
_cell_formula_units_Z   1
loop_
 _symmetry_equiv_pos_site_id
 _symmetry_equiv_pos_as_xyz
  1  'x, y, z'
loop_
 _atom_site_type_symbol
 _atom_site_label
 _atom_site_symmetry_multiplicity
 _atom_site_fract_x
 _atom_site_fract_y
 _atom_site_fract_z
 _atom_site_occupancy
  V  V0  1  0.12355730  0.50066004  0.12304855  1
  V  V1  1  -0.00142444  0.37602476  0.87391521  1
  V  V2  1  0.62741221  0.86922207  0.25964740  1
  V  V3  1  0.87506739  0.75445468  0.63554637  1
  V  V4  1  0.25333743  0.74823255  -0.02552597  1
  V  V5  1  0.73215815  0.62537692  0.87099839  1
  V  V6  1  -0.00153854  0.12110825  0.11370938  1
  V  V7  1  0.01417997  0.87920985  0.87935779  1
  V  V8  1  0.73562959  0.74204662  0.00080506  1
  V  V9  1  0.25426410  0.24809797  0.50695515  1
  V  V10  1  -0.00669288  0.49937263  0.49854527  1
  V  V11  1  -0.00061457  0.50115978  -0.00102509  1
  V  V12  1  0.87425274  0.86802395  -0.01129526  1
  V  V13  1  0.50185370  -0.01386018  0.50066072  1
  V  V14  1  0.74929501  0.62891739  0.37168036  1
  V  V15  1  0.51478744  0.75601902  0.75611960  1
  V  V16  1  0.50332967  0.50290928  0.00248748  1
  V  V17  1  0.49341608  0.13040157  0.12909103  1
  V  V18  1  0.74381007  0.25453137  -0.00023940  1
  V  V19  1  0.12614835  0.37642280  0.75026320  1
  V  V20  1  0.37779870  0.37260848  0.50553240  1
  V  V21  1  0.62616639  -0.00122962  0.12739720  1
  V  V22  1  0.87306357  0.12155935  0.75214887  1
  V  V23  1  0.13119100  0.62959142  -0.01434048  1
  V  V24  1  -0.00113928  0.87401793  0.37281121  1
  V  V25  1  0.24675175  0.62375048  0.37419584  1
  V  V26  1  0.12735849  0.87612997  0.24648089  1
  V  V27  1  0.74732697  0.13094631  0.39288772  1
  V  V28  1  0.25506141  0.12494308  0.37641489  1
  V  V29  1  0.12381758  0.37480451  0.24908851  1
  V  V30  1  0.12723606  0.24887090  0.37653563  1
  V  V31  1  0.87443861  0.63201849  0.24796606  1
  V  V32  1  0.25680078  0.00021883  0.24774301  1
  V  V33  1  0.25295068  0.75779718  0.49632395  1
  V  V34  1  0.00738249  -0.00102334  0.49985813  1
  V  V35  1  -0.00287997  0.63024810  0.12011002  1
  V  V36  1  0.74331457  0.87591790  0.62994413  1
  V  V37  1  0.49611931  0.14057204  0.61131663  1
  V  V38  1  -0.00411219  0.62849526  0.62460607  1
  V  V39  1  0.62527432  0.63290151  0.49450720  1
  V  V40  1  0.38038023  0.87349150  -0.00345526  1
  V  V41  1  0.86528840  0.36895149  0.50539320  1
  V  V42  1  0.74348025  0.37472634  0.64055328  1
  V  V43  1  0.37335718  0.37135841  0.00066486  1
  V  V44  1  0.50199163  0.50124084  0.50323884  1
  V  V45  1  0.62420667  0.12818773  -0.00070042  1
  V  V46  1  0.49970478  -0.00147612  -0.00124862  1
  V  V47  1  0.75869369  0.86677048  0.12526250  1
  V  V48  1  0.50571625  0.37381499  0.87743360  1
  V  V49  1  0.37353891  0.50110969  0.37688411  1
  V  V50  1  0.87440407  0.87238755  0.50420778  1
  V  V51  1  0.37167932  0.63288935  0.75883633  1
  V  V52  1  0.00162054  0.37346116  0.37875695  1
  V  V53  1  0.50946486  0.37633834  0.37078355  1
  V  V54  1  0.25341040  0.36976309  0.12703843  1
  V  V55  1  0.85721324  0.48041634  0.34403302  1
  V  V56  1  0.25376812  0.37600293  0.62749184  1
  V  V57  1  0.51199751  0.62400229  0.12268969  1
  V  V58  1  0.00016013  0.75320119  0.24195013  1
  V  V59  1  0.00155786  0.12250186  0.62409182  1
  V  V60  1  0.50403734  0.74769937  0.25694358  1
  V  V61  1  0.86804389  0.25013426  0.12244343  1
  V  V62  1  0.24921733  0.24374586  0.00175302  1
  V  V63  1  0.87132598  0.12347596  0.24862217  1
  V  V64  1  0.12431607  0.50179678  0.62499553  1
  V  V65  1  0.49180338  0.24236873  0.75905996  1
  V  V66  1  0.49955067  0.62493142  0.62760746  1
  V  V67  1  0.37694012  0.75763658  0.62139145  1
  V  V68  1  0.87574397  -0.00089704  0.37419081  1
  V  V69  1  0.37360277  0.62419437  0.24788831  1
  V  V70  1  0.12335452  0.62503561  0.49802495  1
  V  V71  1  0.25045465  0.50700765  0.75754192  1
  V  V72  1  0.25288458  0.11994374  0.85678711  1
  V  V73  1  0.63713456  0.48376363  0.13531152  1
  V  V74  1  0.86712622  0.50434813  0.86891735  1
  V  V75  1  0.37193902  0.74618809  0.12329085  1
  V  V76  1  0.24247030  0.87677555  0.63475566  1
  V  V77  1  0.74073347  -0.00387377  0.75431785  1
  V  V78  1  0.12328684  0.00030914  0.11700146  1
  V  V79  1  0.00950150  0.74785837  0.76366506  1
  V  V80  1  -0.00173362  0.25073344  0.74730407  1
  V  V81  1  0.00034430  0.24808892  0.24818514  1
  V  V82  1  0.74987832  -0.00081780  0.25012385  1
  V  V83  1  0.86975520  0.37735621  0.00074031  1
  V  V84  1  0.74751125  0.12992367  0.87459952  1
  Zn  Zn85  1  0.49535236  0.87036905  0.37720485  1
  Zn  Zn86  1  0.12920810  0.12281430  0.50237498  1
  Zn  Zn87  1  0.37380132  0.13624697  0.24686904  1
  Zn  Zn88  1  0.37199812  0.50383277  0.87898080  1
  Zn  Zn89  1  0.12618333  0.24911610  0.87491680  1
  Zn  Zn90  1  0.38205358  0.01356464  0.85598892  1
  Zn  Zn91  1  0.14298855  0.00373081  0.65045614  1
  Zn  Zn92  1  0.63581373  0.50532761  0.63418659  1
  Zn  Zn93  1  0.74713882  0.75324256  0.49741586  1
  Zn  Zn94  1  0.12414771  0.12293371  -0.00414050  1
  Zn  Zn95  1  0.25086112  0.87290830  0.12016497  1
  Zn  Zn96  1  0.37528436  -0.00733059  0.38186910  1
  Zn  Zn97  1  0.51690720  0.87775028  0.87189320  1
  Zn  Zn98  1  0.24718011  0.49984664  0.24919682  1
  Zn  Zn99  1  0.62052227  0.37754610  0.75764427  1
  Zn  Zn100  1  0.87860278  0.00241131  0.88622251  1
  Zn  Zn101  1  0.50131179  0.26116846  0.24392211  1
  Zn  Zn102  1  0.86806005  0.62246690  0.75071345  1
  Zn  Zn103  1  0.86215611  0.24329658  0.62142035  1
  Zn  Zn104  1  0.63072052  0.25017866  0.37240315  1
  Zn  Zn105  1  0.62660798  0.01025129  0.62030158  1
  Zn  Zn106  1  0.12273941  0.74799817  0.37205903  1
  Zn  Zn107  1  0.18783129  0.18611569  0.18679642  1
  Zn  Zn108  1  0.18476397  0.19019237  0.68588075  1
  Zn  Zn109  1  0.18609324  0.68697639  0.18297416  1
  Zn  Zn110  1  0.18820260  0.69055067  0.68645833  1
  Zn  Zn111  1  0.68026356  0.19353832  0.19114414  1
  Zn  Zn112  1  0.67422448  0.19627517  0.68703112  1
  Zn  Zn113  1  0.68957644  0.68515436  0.18724270  1
  Zn  Zn114  1  0.69093696  0.68202765  0.68204225  1
  Zn  Zn115  1  0.31998414  0.31107997  0.31243092  1
  Zn  Zn116  1  0.31712283  0.30993962  0.81556220  1
  Zn  Zn117  1  0.31390840  0.81188425  0.31214074  1
  Zn  Zn118  1  0.33249530  0.84264750  0.79779925  1
  Zn  Zn119  1  0.81389894  0.31045999  0.31176297  1
  Zn  Zn120  1  0.81293588  0.30950822  0.81390676  1
  Zn  Zn121  1  0.81357805  0.80923469  0.31320687  1
  Zn  Zn122  1  0.69158849  0.81157893  0.81358251  1
  Zn  Zn123  1  0.18720884  0.43691881  0.43978282  1
  Zn  Zn124  1  0.18658576  0.43633397  0.93769902  1
  Zn  Zn125  1  0.18785734  0.93715702  0.43356365  1
  Zn  Zn126  1  0.19469179  0.93810490  0.93688085  1
  Zn  Zn127  1  0.68639982  0.44170460  0.44376564  1
  Zn  Zn128  1  0.68403171  0.44387224  0.94392958  1
  Zn  Zn129  1  0.68580570  0.94349173  0.44002419  1
  Zn  Zn130  1  0.69110580  0.94183586  0.94190473  1
  Zn  Zn131  1  0.31378720  0.05826515  0.05979252  1
  Zn  Zn132  1  0.32353783  0.06067399  0.56792700  1
  Zn  Zn133  1  0.31153052  0.56307630  0.05966009  1
  Zn  Zn134  1  0.31351676  0.56639092  0.56656358  1
  Zn  Zn135  1  0.81198113  0.05763063  0.06142764  1
  Zn  Zn136  1  0.81922233  0.05478937  0.56759789  1
  Zn  Zn137  1  0.81101087  0.56487484  0.06201708  1
  Zn  Zn138  1  0.81121643  0.56069633  0.56132392  1
  Zn  Zn139  1  0.43503144  0.44177124  0.18766134  1
  Zn  Zn140  1  0.43759722  0.43915328  0.69223082  1
  Zn  Zn141  1  0.43868229  0.93482290  0.18693398  1
  Zn  Zn142  1  0.43792319  0.94257017  0.68209837  1
  Zn  Zn143  1  0.92435015  0.43248871  0.18967859  1
  Zn  Zn144  1  0.93332408  0.43798113  0.68545206  1
  Zn  Zn145  1  0.93675323  0.93790307  0.18119673  1
  Zn  Zn146  1  0.96945589  0.95121728  0.70832242  1
  Zn  Zn147  1  0.06547258  0.06322013  0.30900894  1
  Zn  Zn148  1  0.06712211  0.06121804  0.81771093  1
  Zn  Zn149  1  0.05537375  0.55999670  0.31076875  1
  Zn  Zn150  1  0.05734435  0.56274991  0.81092842  1
  Zn  Zn151  1  0.56483595  0.06082476  0.31665397  1
  Zn  Zn152  1  0.56426522  0.06760704  0.81432182  1
  Zn  Zn153  1  0.56452862  0.55939678  0.31051038  1
  Zn  Zn154  1  0.55874771  0.55694246  0.81056487  1
  Zn  Zn155  1  0.43717123  0.18969608  0.43653327  1
  Zn  Zn156  1  0.43278678  0.18898200  0.93897186  1
  Zn  Zn157  1  0.43552480  0.68747042  0.43732028  1
  Zn  Zn158  1  0.44331283  0.68857328  0.93618176  1
  Zn  Zn159  1  0.93585307  0.18733022  0.43756336  1
  Zn  Zn160  1  0.93564408  0.19068316  0.93475114  1
  Zn  Zn161  1  0.93358089  0.68742170  0.43302151  1
  Zn  Zn162  1  0.92853343  0.69014812  0.93975630  1
  Zn  Zn163  1  0.06206112  0.31081907  0.06094194  1
  Zn  Zn164  1  0.06438982  0.31162437  0.56406061  1
  Zn  Zn165  1  0.06698815  0.81006813  0.05561266  1
  Zn  Zn166  1  0.06374140  0.81018934  0.56206143  1
  Zn  Zn167  1  0.56339757  0.31491641  0.06348641  1
  Zn  Zn168  1  0.57226175  0.30335104  0.55827429  1
  Zn  Zn169  1  0.56467333  0.81368096  0.07096281  1
  Zn  Zn170  1  0.56424532  0.81122726  0.56456725  1
  O  O171  1  0.11468734  0.11780017  0.12524073  1
  O  O172  1  0.11436454  0.11953214  0.62349667  1
  O  O173  1  0.11629191  0.61721023  0.11822432  1
  O  O174  1  0.11719015  0.62056098  0.61724632  1
  O  O175  1  0.62005274  0.11830180  0.11600125  1
  O  O176  1  0.60211957  0.12315698  0.63635164  1
  O  O177  1  0.61357753  0.62130785  0.12672881  1
  O  O178  1  0.61686775  0.62308000  0.61562998  1
  O  O179  1  0.37690653  0.38597892  0.38860649  1
  O  O180  1  0.37919422  0.38012897  0.88743265  1
  O  O181  1  0.38202420  0.88013677  0.36394472  1
  O  O182  1  0.39591390  0.86180953  0.89458944  1
  O  O183  1  0.88312861  0.37588580  0.39275636  1
  O  O184  1  0.87773006  0.38058724  0.88370213  1
  O  O185  1  0.88035168  0.87883738  0.38103646  1
  O  O186  1  0.87630318  0.87525809  0.88811283  1
  O  O187  1  0.25066316  0.00830241  0.36678769  1
  O  O188  1  0.25231755  0.01761956  0.87956225  1
  O  O189  1  0.25296609  0.51061686  0.37676415  1
  O  O190  1  0.24972879  0.49653805  0.86092096  1
  O  O191  1  0.75825268  0.00880304  0.36940670  1
  O  O192  1  0.75573367  0.01328662  0.87049896  1
  O  O193  1  0.76195553  0.50790779  0.38150337  1
  O  O194  1  0.75560312  0.51502678  0.88765631  1
  O  O195  1  0.23604568  0.49472852  0.12389957  1
  O  O196  1  0.24324679  0.49687758  0.63285611  1
  O  O197  1  0.24259126  0.99770309  0.13137655  1
  O  O198  1  0.25224792  0.98331688  0.61916931  1
  O  O199  1  0.73547487  0.50134900  0.11722684  1
  O  O200  1  0.75277560  0.48152691  0.62020133  1
  O  O201  1  0.74559994  0.99123946  0.13274980  1
  O  O202  1  0.74974675  0.99376844  0.63546750  1
  O  O203  1  0.00390759  0.36659529  0.25548852  1
  O  O204  1  0.00252348  0.36875954  0.75197186  1
  O  O205  1  0.00430095  0.86789342  0.24940059  1
  O  O206  1  -0.01009876  0.85687456  0.77172484  1
  O  O207  1  0.49259660  0.38366324  0.26877832  1
  O  O208  1  0.49419544  0.37392551  0.76570607  1
  O  O209  1  0.51137928  0.86473458  0.24540737  1
  O  O210  1  0.50539832  0.85693530  0.74626110  1
  O  O211  1  0.50077573  0.11631167  0.23426330  1
  O  O212  1  0.49639493  0.13926576  0.75648451  1
  O  O213  1  0.49462919  0.62987687  0.24316036  1
  O  O214  1  0.49340592  0.63324926  0.74223736  1
  O  O215  1  0.98935025  0.12931111  0.24341707  1
  O  O216  1  0.99271829  0.13341945  0.74513355  1
  O  O217  1  1.00282629  0.64089214  0.24196985  1
  O  O218  1  0.99337061  0.63435796  0.74568228  1
  O  O219  1  0.36549539  0.26304826  0.00110363  1
  O  O220  1  0.36623975  0.26165275  0.49702218  1
  O  O221  1  0.37076950  0.75025835  0.00664160  1
  O  O222  1  0.36468376  0.74042535  0.50891616  1
  O  O223  1  0.86624052  0.25596734  0.00425538  1
  O  O224  1  0.88400919  0.26532956  0.50535137  1
  O  O225  1  0.86095042  0.76154143  0.00062371  1
  O  O226  1  0.87848817  0.76198326  0.50591746  1
  O  O227  1  0.13345793  0.24813882  0.49337653  1
  O  O228  1  0.13391925  0.24854109  0.99611732  1
  O  O229  1  0.13140179  0.74092421  0.49416780  1
  O  O230  1  0.14225795  0.74198725  1.00143864  1
  O  O231  1  0.63043691  0.25217566  0.48274378  1
  O  O232  1  0.63703540  0.24411799  1.00677853  1
  O  O233  1  0.62520590  0.73676335  0.50008070  1
  O  O234  1  0.63652964  0.75238127  1.00463338  1
  O  O235  1  0.50497804  0.23305138  0.12174656  1
  O  O236  1  0.49816323  0.24468022  0.62817823  1
  O  O237  1  0.49099800  0.74128179  0.13052161  1
  O  O238  1  0.49515353  0.74163963  0.62919138  1
  O  O239  1  0.99024854  0.24216327  0.12826681  1
  O  O240  1  1.00047817  0.24234302  0.63496144  1
  O  O241  1  1.00613458  0.74238709  0.12995092  1
  O  O242  1  0.99450227  0.74639535  0.63049319  1
  O  O243  1  0.00575878  0.25361714  0.36956959  1
  O  O244  1  0.00002908  0.25567229  0.86248771  1
  O  O245  1  0.00104303  0.75691750  0.36382772  1
  O  O246  1  -0.00135166  0.75075696  0.86791794  1
  O  O247  1  0.49634052  0.27171339  0.37943288  1
  O  O248  1  0.49299428  0.25864174  0.86931055  1
  O  O249  1  0.49752791  0.74651584  0.36024294  1
  O  O250  1  0.50557846  0.74715262  0.85831928  1
  O  O251  1  0.25285803  0.13118778  0.49615411  1
  O  O252  1  0.24959878  0.13716366  1.00528959  1
  O  O253  1  0.24369296  0.62993716  0.49252729  1
  O  O254  1  0.24423025  0.63496860  0.99837719  1
  O  O255  1  0.76262616  0.12042644  0.49055055  1
  O  O256  1  0.74437161  0.13054520  0.99542707  1
  O  O257  1  0.74211720  0.62556509  0.49287143  1
  O  O258  1  0.75203045  0.63739791  0.99405575  1
  O  O259  1  0.25373319  0.36769212  0.00602558  1
  O  O260  1  0.25690117  0.36970832  0.50620818  1
  O  O261  1  0.26153126  0.86559873  0.00064715  1
  O  O262  1  0.24685039  0.85978785  0.49450683  1
  O  O263  1  0.75719925  0.36553711  -0.00728474  1
  O  O264  1  0.76389493  0.37743166  0.50178598  1
  O  O265  1  0.75563509  0.86438578  0.00673070  1
  O  O266  1  0.75914259  0.87586763  0.50507998  1
  O  O267  1  0.12247450  0.49337056  0.24083692  1
  O  O268  1  0.12967997  0.49744986  0.74435068  1
  O  O269  1  0.13411326  0.99424987  0.24137791  1
  O  O270  1  0.07833544  0.98682642  0.73808536  1
  O  O271  1  0.62412174  0.50216851  0.23391203  1
  O  O272  1  0.61665266  0.49092429  0.74428536  1
  O  O273  1  0.63170619  0.99169272  0.24581058  1
  O  O274  1  0.63870688  1.00610979  0.75029950  1
  O  O275  1  0.36235612  0.00245966  0.24417541  1
  O  O276  1  0.36901108  -0.04972743  0.76618459  1
  O  O277  1  0.36887197  0.50778870  0.25796212  1
  O  O278  1  0.36590276  0.51247525  0.75078238  1
  O  O279  1  0.87124346  0.00540180  0.25393420  1
  O  O280  1  0.87240441  0.01355025  0.75264649  1
  O  O281  1  0.90731537  0.52690496  0.25394076  1
  O  O282  1  0.87800057  0.49998088  0.76543767  1
  O  O283  1  0.12008592  0.37040947  0.37047100  1
  O  O284  1  0.11635734  0.37525731  0.86735471  1
  O  O285  1  0.11799524  0.87548834  0.35993288  1
  O  O286  1  0.11278141  0.87502402  0.88516449  1
  O  O287  1  0.61082859  0.38666569  0.37691184  1
  O  O288  1  0.60893594  0.37824426  0.88419235  1
  O  O289  1  0.62592069  0.87656360  0.36203676  1
  O  O290  1  0.62914649  0.88012363  0.87468019  1
  O  O291  1  0.39113027  0.11978313  0.12282113  1
  O  O292  1  0.39904023  0.11621512  0.63315235  1
  O  O293  1  0.38006997  0.62869974  0.13111430  1
  O  O294  1  0.38184076  0.63549419  0.63288573  1
  O  O295  1  0.88054226  0.12866676  0.12861294  1
  O  O296  1  0.88412240  0.12752121  0.63222749  1
  O  O297  1  0.88993216  0.62084954  0.12944649  1
  O  O298  1  0.87892765  0.63357062  0.62397118  1
  O  O299  1  0.24251948  0.26047254  0.11716678  1
  O  O300  1  0.24471893  0.25639211  0.61298949  1
  O  O301  1  0.26395404  0.74989828  0.12399364  1
  O  O302  1  0.25518645  0.75526117  0.61448078  1
  O  O303  1  0.76171139  0.24356853  0.11787514  1
  O  O304  1  0.74854734  0.26627892  0.62938608  1
  O  O305  1  0.74790386  0.75416169  0.11366702  1
  O  O306  1  0.75901981  0.75697323  0.62196393  1
  O  O307  1  0.24704764  0.24454870  0.38495577  1
  O  O308  1  0.24878261  0.23958770  0.88211983  1
  O  O309  1  0.24826233  0.73791889  0.37806402  1
  O  O310  1  0.26348089  0.76045931  0.87815371  1
  O  O311  1  0.75766548  0.23358204  0.37055880  1
  O  O312  1  0.75476751  0.23805939  0.88474681  1
  O  O313  1  0.75710300  0.73413486  0.37956548  1
  O  O314  1  0.74536149  0.73545333  0.88655167  1
  O  O315  1  0.00003461  0.12996030  0.01015846  1
  O  O316  1  0.00019811  0.11849490  0.50702469  1
  O  O317  1  0.00505217  0.62319063  0.00554602  1
  O  O318  1  0.00131143  0.61719129  0.50140981  1
  O  O319  1  0.50607024  0.12090593  0.00694106  1
  O  O320  1  0.49871918  0.12558901  0.50867980  1
  O  O321  1  0.49167737  0.61525659  0.01064734  1
  O  O322  1  0.50476103  0.62029408  0.50494665  1
  O  O323  1  0.49375961  0.38526893  0.49671118  1
  O  O324  1  0.48973003  0.37896482  0.99866681  1
  O  O325  1  0.50346319  0.88107940  0.49714978  1
  O  O326  1  0.49972135  0.88504640  1.00579192  1
  O  O327  1  0.99540970  0.38256074  0.50020711  1
  O  O328  1  0.99299861  0.37900116  0.99246715  1
  O  O329  1  0.99583413  0.88103812  0.49427046  1
  O  O330  1  0.98836165  0.86102685  0.98813995  1
  O  O331  1  0.49357331  0.49611993  0.38414261  1
  O  O332  1  0.49397309  0.49415547  0.88690188  1
  O  O333  1  0.50044039  0.99874417  0.38721601  1
  O  O334  1  0.49938466  1.00291607  0.88783834  1
  O  O335  1  0.98999339  0.49079090  0.38195028  1
  O  O336  1  0.99062387  0.49537038  0.88157203  1
  O  O337  1  0.99517269  0.99565400  0.37868775  1
  O  O338  1  0.99663563  0.98231294  0.87953544  1
  O  O339  1  0.00883820  0.01036028  0.13033693  1
  O  O340  1  -0.01112169  0.01023535  0.60972154  1
  O  O341  1  0.00883833  0.50392987  0.11802194  1
  O  O342  1  0.00263136  0.50720705  0.61842919  1
  O  O343  1  0.50610455  0.00660191  0.11570011  1
  O  O344  1  0.50553669  -0.00158174  0.61288666  1
  O  O345  1  0.50283037  0.50744458  0.12106532  1
  O  O346  1  0.49405070  0.51421094  0.61894688  1
  O  O347  1  0.24257290  0.37600272  0.24316199  1
  O  O348  1  0.24719169  0.38198698  0.74459354  1
  O  O349  1  0.24138897  0.88123304  0.24559755  1
  O  O350  1  0.23667299  0.86111425  0.73187449  1
  O  O351  1  0.82317818  0.41168290  0.26459194  1
  O  O352  1  0.74852492  0.37445579  0.74364209  1
  O  O353  1  0.74676142  0.87535357  0.24482596  1
  O  O354  1  0.75384427  0.88449728  0.74294053  1
  O  O355  1  0.25098073  0.11769307  0.25685690  1
  O  O356  1  0.24636926  0.12510855  0.75755614  1
  O  O357  1  0.25226921  0.62377007  0.25785804  1
  O  O358  1  0.25882273  0.61919372  0.74255115  1
  O  O359  1  0.76246307  0.11990043  0.24635754  1
  O  O360  1  0.75429571  0.12430906  0.75763684  1
  O  O361  1  0.76285448  0.62795668  0.25565202  1
  O  O362  1  0.74988810  0.62883938  0.76618932  1
  O  O363  1  0.36385462  0.12254349  0.37186975  1
  O  O364  1  0.35875369  0.12579945  0.87687779  1
  O  O365  1  0.36633014  0.61981289  0.36930813  1
  O  O366  1  0.37895452  0.62544480  0.86164943  1
  O  O367  1  0.87006535  0.11990771  0.36641580  1
  O  O368  1  0.86869102  0.12288206  0.86968289  1
  O  O369  1  0.86868171  0.61607034  0.36517826  1
  O  O370  1  0.86696311  0.61643078  0.87556461  1
  O  O371  1  0.13033907  0.38212773  0.12768389  1
  O  O372  1  0.13133722  0.38288424  0.63052671  1
  O  O373  1  0.12409662  0.88161132  0.13205013  1
  O  O374  1  0.14070263  0.87702675  0.61272006  1
  O  O375  1  0.62515667  0.38371189  0.12840386  1
  O  O376  1  0.63772496  0.37874226  0.62278453  1
  O  O377  1  0.63765985  0.88072140  0.13384999  1
  O  O378  1  0.64127590  0.87645049  0.61950449  1
  O  O379  1  0.12007938  0.25475402  0.25576724  1
  O  O380  1  0.11608231  0.25876934  0.75080011  1
  O  O381  1  0.11974176  0.75974608  0.24838195  1
  O  O382  1  0.10726206  0.74438390  0.74710911  1
  O  O383  1  0.61478552  0.24930069  0.25974493  1
  O  O384  1  0.60148611  0.26281567  0.74849690  1
  O  O385  1  0.61611429  0.75658230  0.24279955  1
  O  O386  1  0.61863359  0.74681129  0.74457909  1
  O  O387  1  0.38677207  0.24899010  0.25027963  1
  O  O388  1  0.39206369  0.26157274  0.74508282  1
  O  O389  1  0.38170998  0.74268746  0.24124240  1
  O  O390  1  0.38573204  0.74707475  0.74046985  1
  O  O391  1  0.87880980  0.24180143  0.23958842  1
  O  O392  1  0.88112821  0.23960702  0.74822255  1
  O  O393  1  0.88551626  0.74135701  0.25050999  1
  O  O394  1  0.88441416  0.74602584  0.73706371  1
  O  O395  1  0.38428466  0.49982579  0.49641300  1
  O  O396  1  0.38070923  0.49000736  1.00140277  1
  O  O397  1  0.39541783  1.00399082  0.49827895  1
  O  O398  1  0.38401320  0.98918326  0.99917015  1
  O  O399  1  0.88534909  0.48844434  0.50224300  1
  O  O400  1  0.87953994  0.49271183  0.99504002  1
  O  O401  1  0.88398577  0.98788240  0.49359459  1
  O  O402  1  0.86812747  0.97700780  1.00366017  1
  O  O403  1  0.13095130  0.00091973  0.01379347  1
  O  O404  1  0.11293929  0.00153955  0.49539364  1
  O  O405  1  0.12025103  0.50591690  0.00582957  1
  O  O406  1  0.11308560  0.50388425  0.50369927  1
  O  O407  1  0.62035214  0.00887581  0.00853292  1
  O  O408  1  0.61020177  0.00200515  0.50155757  1
  O  O409  1  0.60849840  0.49580792  0.01428611  1
  O  O410  1  0.61256106  0.50898065  0.50575337  1
  O  O411  1  0.35895078  0.38382065  0.12016249  1
  O  O412  1  0.36947389  0.38617230  0.61201628  1
  O  O413  1  0.37716727  0.86348026  0.11569715  1
  O  O414  1  0.36299767  0.86119603  0.62207291  1
  O  O415  1  0.88109588  0.36392384  0.10855092  1
  O  O416  1  0.86573509  0.37106839  0.61935546  1
  O  O417  1  0.86284278  0.87412642  0.12170594  1
  O  O418  1  0.86874155  0.86916468  0.61771672  1
  O  O419  1  0.13713094  0.13019303  0.37592884  1
  O  O420  1  0.13653912  0.12729046  0.87746570  1
  O  O421  1  0.13027611  0.62281985  0.37834745  1
  O  O422  1  0.12096912  0.61919519  0.88736345  1
  O  O423  1  0.64666314  0.12021898  0.37270013  1
  O  O424  1  0.63291014  0.12342618  0.89091078  1
  O  O425  1  0.63616896  0.61527791  0.38194479  1
  O  O426  1  0.63392615  0.61815439  0.87695911  1
