# generated using pymatgen
data_V85Zn86O256
_symmetry_space_group_name_H-M   'P 1'
_cell_length_a   16.92972850
_cell_length_b   16.92986930
_cell_length_c   16.92561533
_cell_angle_alpha   90.04796263
_cell_angle_beta   89.99254188
_cell_angle_gamma   90.00006988
_symmetry_Int_Tables_number   1
_chemical_formula_structural   V85Zn86O256
_chemical_formula_sum   'V85 Zn86 O256'
_cell_volume   4851.18580995
_cell_formula_units_Z   1
loop_
 _symmetry_equiv_pos_site_id
 _symmetry_equiv_pos_as_xyz
  1  'x, y, z'
loop_
 _atom_site_type_symbol
 _atom_site_label
 _atom_site_symmetry_multiplicity
 _atom_site_fract_x
 _atom_site_fract_y
 _atom_site_fract_z
 _atom_site_occupancy
  V  V0  1  0.00022942  0.62318633  0.12141869  1
  V  V1  1  0.37422162  0.87294899  0.49898773  1
  V  V2  1  0.37589761  0.88579626  -0.00294869  1
  V  V3  1  0.74825933  0.12645860  0.37549707  1
  V  V4  1  0.36506708  0.62641089  0.76335214  1
  V  V5  1  0.61748247  0.24469471  0.87377854  1
  V  V6  1  0.75042323  0.24111137  -0.00278502  1
  V  V7  1  0.49883810  0.50645901  0.00122630  1
  V  V8  1  0.25240036  0.38351373  0.12701342  1
  V  V9  1  0.25266629  -0.00487881  0.25418165  1
  V  V10  1  0.87651557  0.87220010  0.50650824  1
  V  V11  1  0.12465287  0.74084533  0.38162753  1
  V  V12  1  0.63052587  0.74516103  0.87227288  1
  V  V13  1  -0.00126895  0.74853983  0.25223142  1
  V  V14  1  0.12225551  0.01033333  0.62332389  1
  V  V15  1  0.01080644  0.61699120  0.62175382  1
  V  V16  1  0.25228920  0.87261429  0.12225056  1
  V  V17  1  0.62153261  0.50095791  0.62622772  1
  V  V18  1  0.48852422  0.62161559  0.62507034  1
  V  V19  1  0.87643761  0.12923043  0.23989161  1
  V  V20  1  0.49807798  0.75043135  0.74897931  1
  V  V21  1  0.24347539  0.13435358  0.37559861  1
  V  V22  1  0.74511378  0.88364052  0.62253882  1
  V  V23  1  0.62325312  0.50600541  0.12429472  1
  V  V24  1  0.87719832  0.87897475  -0.00141891  1
  V  V25  1  0.37322751  0.24836261  0.12545017  1
  V  V26  1  0.12429493  0.88021209  0.74836329  1
  V  V27  1  0.49840158  0.12763410  0.12442005  1
  V  V28  1  0.75058205  0.62374320  0.37858288  1
  V  V29  1  0.12515762  0.37901297  0.73792356  1
  V  V30  1  0.24461948  0.49902152  0.74996250  1
  V  V31  1  0.49449290  0.14450803  0.62879579  1
  V  V32  1  0.87390165  0.00336981  0.87555859  1
  V  V33  1  0.49808563  0.87450411  0.37390827  1
  V  V34  1  0.12565519  0.87165806  0.24434545  1
  V  V35  1  0.48743942  0.49598366  0.49306469  1
  V  V36  1  0.62231831  0.88509451  0.74499381  1
  V  V37  1  0.87140233  0.62995774  0.74728220  1
  V  V38  1  0.12257511  0.24920482  0.87848060  1
  V  V39  1  0.75132040  0.37550401  0.63017775  1
  V  V40  1  0.75015913  0.49618180  0.25111412  1
  V  V41  1  0.74757048  0.50539219  0.75586541  1
  V  V42  1  -0.00027581  0.87425146  0.37589164  1
  V  V43  1  0.12904412  0.62585991  -0.01023066  1
  V  V44  1  0.50021552  0.00867597  -0.00636584  1
  V  V45  1  0.87428806  0.00055533  0.37364534  1
  V  V46  1  0.87573909  0.62454671  0.25214066  1
  V  V47  1  0.25021896  0.11628761  0.87711578  1
  V  V48  1  0.37646838  0.13409249  0.75473753  1
  V  V49  1  0.36899763  0.49395810  0.35736360  1
  V  V50  1  -0.00365717  0.75202069  0.74094097  1
  V  V51  1  0.00482319  0.37260687  0.37769904  1
  V  V52  1  0.24791575  0.25180922  0.51706023  1
  V  V53  1  0.87867043  0.50026611  0.38032615  1
  V  V54  1  0.62307501  0.74849772  0.37466475  1
  V  V55  1  0.74788731  0.00145679  0.24886538  1
  V  V56  1  0.62525427  0.00689402  0.11726401  1
  V  V57  1  0.49685864  0.88055992  0.87300246  1
  V  V58  1  0.00137967  0.24052602  0.74487140  1
  V  V59  1  0.38489643  0.74119990  0.12108285  1
  V  V60  1  0.24563699  0.73785499  0.50093194  1
  V  V61  1  0.87984599  0.38149602  0.50486388  1
  V  V62  1  0.75440321  0.37794617  0.11278825  1
  V  V63  1  0.50329183  -0.00163729  0.51388478  1
  V  V64  1  0.00144456  0.87728934  0.87637962  1
  V  V65  1  0.37324904  0.74958836  0.62464768  1
  V  V66  1  -0.00291286  0.48987571  0.00039777  1
  V  V67  1  0.75185290  0.25180581  0.50203660  1
  V  V68  1  0.49694454  0.37553077  0.86817049  1
  V  V69  1  0.13109038  0.37865548  0.25172412  1
  V  V70  1  0.62115076  0.62343742  0.50242205  1
  V  V71  1  0.24506523  0.24993468  -0.00048137  1
  V  V72  1  0.00062195  0.00998499  0.49929339  1
  V  V73  1  0.87412566  0.12538562  0.74420556  1
  V  V74  1  0.61771557  0.25637440  0.37634748  1
  V  V75  1  0.62623657  0.12130762  0.50875054  1
  V  V76  1  0.75216149  0.74781916  0.50801343  1
  V  V77  1  0.00249545  0.25134355  0.24686217  1
  V  V78  1  0.37535272  0.36912593  0.51238368  1
  V  V79  1  0.24748631  0.87786116  0.62210617  1
  V  V80  1  0.37706205  0.00015091  0.37944531  1
  V  V81  1  0.50230188  0.73635433  0.24392477  1
  V  V82  1  0.87385793  0.75103980  0.12184238  1
  V  V83  1  0.87204063  0.49873342  0.87816670  1
  V  V84  1  0.62360475  0.87647590  0.24648692  1
  Zn  Zn85  1  0.24900165  0.61154474  0.36088904  1
  Zn  Zn86  1  0.11922689  0.13255753  0.49557344  1
  Zn  Zn87  1  0.06750485  0.06684781  0.08203791  1
  Zn  Zn88  1  0.75661679  0.74510959  -0.01120966  1
  Zn  Zn89  1  0.74848227  0.87512327  0.12057074  1
  Zn  Zn90  1  0.62400403  0.37405680  0.25025754  1
  Zn  Zn91  1  0.25843418  0.74411113  -0.00865713  1
  Zn  Zn92  1  0.25625485  0.00010692  0.75166049  1
  Zn  Zn93  1  0.37676420  0.12552602  0.25297264  1
  Zn  Zn94  1  0.04153632  0.49986793  0.50907921  1
  Zn  Zn95  1  0.88137040  0.25411577  0.11444055  1
  Zn  Zn96  1  0.61755951  0.37120068  0.74740890  1
  Zn  Zn97  1  0.13090991  0.74898670  0.87030738  1
  Zn  Zn98  1  0.63012071  0.62563301  -0.00144049  1
  Zn  Zn99  1  0.74598972  0.00482670  0.74596508  1
  Zn  Zn100  1  0.37605803  0.37539515  -0.00153602  1
  Zn  Zn101  1  0.88034851  0.24733012  0.62314519  1
  Zn  Zn102  1  0.74394311  0.12140136  0.87469466  1
  Zn  Zn103  1  0.12859259  0.50179508  0.12664282  1
  Zn  Zn104  1  0.49732295  0.25226580  0.25494857  1
  Zn  Zn105  1  -0.00407956  0.37184479  0.87597563  1
  Zn  Zn106  1  0.36692649  0.49961639  0.87932873  1
  Zn  Zn107  1  0.18537967  0.19436252  0.19527004  1
  Zn  Zn108  1  0.18617891  0.18588077  0.69352767  1
  Zn  Zn109  1  0.18764605  0.68596970  0.18178427  1
  Zn  Zn110  1  0.18708254  0.68892774  0.69153368  1
  Zn  Zn111  1  0.68786076  0.18882515  0.18521849  1
  Zn  Zn112  1  0.68643774  0.18920084  0.69008396  1
  Zn  Zn113  1  0.69054891  0.68594879  0.18599468  1
  Zn  Zn114  1  0.68487383  0.68971101  0.68820890  1
  Zn  Zn115  1  0.31895965  0.31722847  0.31332696  1
  Zn  Zn116  1  0.31059860  0.31244105  0.81003977  1
  Zn  Zn117  1  0.29693593  0.77239264  0.29237455  1
  Zn  Zn118  1  0.31016781  0.81294159  0.81444529  1
  Zn  Zn119  1  0.81116683  0.31358451  0.31228599  1
  Zn  Zn120  1  0.81264229  0.31328796  0.81528890  1
  Zn  Zn121  1  0.80997122  0.81251141  0.31498482  1
  Zn  Zn122  1  0.81284906  0.81625142  0.80670962  1
  Zn  Zn123  1  0.19534810  0.42560196  0.42720309  1
  Zn  Zn124  1  0.18600900  0.43657316  0.93423165  1
  Zn  Zn125  1  0.18537053  0.93426280  0.43576540  1
  Zn  Zn126  1  0.18522884  0.93716812  0.94301379  1
  Zn  Zn127  1  0.68797458  0.43883501  0.44284700  1
  Zn  Zn128  1  0.68282345  0.43538938  0.93541908  1
  Zn  Zn129  1  0.68547451  0.93785440  0.43692154  1
  Zn  Zn130  1  0.68909801  0.93345345  0.93589931  1
  Zn  Zn131  1  0.26731081  0.08125648  0.08473473  1
  Zn  Zn132  1  0.31390687  0.06616344  0.56465949  1
  Zn  Zn133  1  0.31369732  0.56226744  0.06312003  1
  Zn  Zn134  1  0.25354361  0.53108960  0.54296009  1
  Zn  Zn135  1  0.81492338  0.06225623  0.06020929  1
  Zn  Zn136  1  0.81489472  0.06212800  0.56311904  1
  Zn  Zn137  1  0.80974729  0.56622337  0.05710645  1
  Zn  Zn138  1  0.81635937  0.56379304  0.57105655  1
  Zn  Zn139  1  0.44617241  0.42877609  0.18497411  1
  Zn  Zn140  1  0.42823498  0.44009624  0.68842299  1
  Zn  Zn141  1  0.43658475  0.93612309  0.18503744  1
  Zn  Zn142  1  0.43220187  0.94303321  0.69076640  1
  Zn  Zn143  1  0.93713488  0.43651178  0.18826313  1
  Zn  Zn144  1  0.94035877  0.43846565  0.69200667  1
  Zn  Zn145  1  0.94045245  0.94066059  0.18177349  1
  Zn  Zn146  1  0.93788272  0.94290559  0.68573300  1
  Zn  Zn147  1  0.05240021  0.05028631  0.27891999  1
  Zn  Zn148  1  0.06147986  0.06352694  0.91919397  1
  Zn  Zn149  1  0.06266684  0.55768950  0.31424587  1
  Zn  Zn150  1  0.05741146  0.55979697  0.81132061  1
  Zn  Zn151  1  0.56108101  0.06641587  0.31327403  1
  Zn  Zn152  1  0.55911569  0.06701318  0.80980355  1
  Zn  Zn153  1  0.56164551  0.55658471  0.31360057  1
  Zn  Zn154  1  0.55709933  0.56074529  0.81185971  1
  Zn  Zn155  1  0.43478312  0.18601214  0.44264088  1
  Zn  Zn156  1  0.43314427  0.18917427  0.93866588  1
  Zn  Zn157  1  0.43131052  0.68157673  0.43276412  1
  Zn  Zn158  1  0.44430629  0.69128190  0.93927945  1
  Zn  Zn159  1  0.93447391  0.19059641  0.43148781  1
  Zn  Zn160  1  0.93633707  0.18684031  0.94101299  1
  Zn  Zn161  1  0.93905850  0.68614221  0.44479882  1
  Zn  Zn162  1  0.94012572  0.68605205  0.93139017  1
  Zn  Zn163  1  0.06616409  0.30918621  0.06603256  1
  Zn  Zn164  1  0.06475660  0.30979619  0.56218022  1
  Zn  Zn165  1  0.06256965  0.81432615  0.05965470  1
  Zn  Zn166  1  0.06087212  0.81153193  0.56414708  1
  Zn  Zn167  1  0.56533138  0.31732183  0.05818846  1
  Zn  Zn168  1  0.56392379  0.31707437  0.55788832  1
  Zn  Zn169  1  0.56300771  0.81531065  0.05841693  1
  Zn  Zn170  1  0.56274326  0.81120015  0.56314296  1
  O  O171  1  0.16377709  0.11215953  0.12605384  1
  O  O172  1  0.12901394  0.11321881  0.62091210  1
  O  O173  1  0.11305403  0.62436647  0.11928718  1
  O  O174  1  0.10987584  0.62813637  0.63118462  1
  O  O175  1  0.61490802  0.11642298  0.12861027  1
  O  O176  1  0.61483267  0.13005636  0.61621041  1
  O  O177  1  0.63004668  0.61009852  0.12565369  1
  O  O178  1  0.61181628  0.62183800  0.62143747  1
  O  O179  1  0.37551220  0.38691604  0.38419965  1
  O  O180  1  0.38278323  0.37387469  0.87793620  1
  O  O181  1  0.38269425  0.88213690  0.38344906  1
  O  O182  1  0.38884687  0.87314791  0.87937083  1
  O  O183  1  0.87920593  0.38307177  0.38388449  1
  O  O184  1  0.87698329  0.39284131  0.86783987  1
  O  O185  1  0.87798291  0.88025884  0.38397295  1
  O  O186  1  0.87963983  0.88005857  0.87961388  1
  O  O187  1  0.26309391  0.00194330  0.37646064  1
  O  O188  1  0.24539454  0.01298795  0.87450251  1
  O  O189  1  0.26271157  0.49546104  0.36163357  1
  O  O190  1  0.25144263  0.49625917  0.86187813  1
  O  O191  1  0.75255912  0.00625650  0.36949648  1
  O  O192  1  0.76016693  -0.00052240  0.87182841  1
  O  O193  1  0.75558883  0.50508958  0.37260077  1
  O  O194  1  0.75260372  0.49657565  0.86273183  1
  O  O195  1  0.25123164  0.48778467  0.12370567  1
  O  O196  1  0.25777026  0.49673093  0.64921666  1
  O  O197  1  0.26352696  0.98042635  0.14143097  1
  O  O198  1  0.24180283  0.99286324  0.62100695  1
  O  O199  1  0.74755242  0.49170489  0.12840601  1
  O  O200  1  0.74368577  0.49458426  0.63383315  1
  O  O201  1  0.74118441  0.99951587  0.12884383  1
  O  O202  1  0.74845704  0.98771750  0.62179196  1
  O  O203  1  0.00315674  0.36997456  0.25852495  1
  O  O204  1  0.01029883  0.36799106  0.75309611  1
  O  O205  1  0.00676692  0.86746412  0.25518736  1
  O  O206  1  0.00457988  0.87025113  0.75102281  1
  O  O207  1  0.51222486  0.36324845  0.24526915  1
  O  O208  1  0.49863115  0.38445191  0.76302173  1
  O  O209  1  0.51171849  0.87311031  0.25403658  1
  O  O210  1  0.50327286  0.87300647  0.75340946  1
  O  O211  1  0.49646689  0.12961678  0.24015310  1
  O  O212  1  0.49224373  0.12597072  0.73707290  1
  O  O213  1  0.50755593  0.63761881  0.25284936  1
  O  O214  1  0.49125370  0.62962197  0.74263065  1
  O  O215  1  0.98679927  0.14491442  0.27165602  1
  O  O216  1  0.99337770  0.14010631  0.75224158  1
  O  O217  1  0.99485921  0.62808870  0.24296064  1
  O  O218  1  0.99486332  0.63279186  0.74319427  1
  O  O219  1  0.36689546  0.25313746  0.01036429  1
  O  O220  1  0.36593254  0.26025662  0.49549843  1
  O  O221  1  0.38245318  0.76123916  0.00770704  1
  O  O222  1  0.36869528  0.75475704  0.50480248  1
  O  O223  1  0.85731558  0.25231858  -0.00244120  1
  O  O224  1  0.87095593  0.26309863  0.50178950  1
  O  O225  1  0.87792844  0.75457854  0.00668771  1
  O  O226  1  0.86387943  0.75980140  0.49434008  1
  O  O227  1  0.14107606  0.24858733  0.50135766  1
  O  O228  1  0.13613764  0.25276290  0.99384185  1
  O  O229  1  0.13140194  0.75327777  0.49345087  1
  O  O230  1  0.12159707  0.73466088  0.99902164  1
  O  O231  1  0.63101666  0.24324259  0.49294278  1
  O  O232  1  0.63775912  0.25724448  0.98668660  1
  O  O233  1  0.62993258  0.74283302  0.49432128  1
  O  O234  1  0.62308743  0.75264773  0.98213639  1
  O  O235  1  0.49533552  0.23823293  0.11625938  1
  O  O236  1  0.50292368  0.24246811  0.62273441  1
  O  O237  1  0.49501129  0.75241990  0.12817289  1
  O  O238  1  0.49434095  0.74282262  0.62961193  1
  O  O239  1  0.99551146  0.25683157  0.13944326  1
  O  O240  1  0.99899594  0.25234093  0.63953063  1
  O  O241  1  0.99070980  0.74408176  0.13012480  1
  O  O242  1  0.99936296  0.74313268  0.63496591  1
  O  O243  1  -0.00786635  0.26765988  0.36979106  1
  O  O244  1  0.00601732  0.25168336  0.86605451  1
  O  O245  1  0.00461464  0.75377018  0.37359509  1
  O  O246  1  0.00205934  0.76160004  0.86174768  1
  O  O247  1  0.51527904  0.24134689  0.37867655  1
  O  O248  1  0.51088886  0.25763499  0.88336193  1
  O  O249  1  0.50401854  0.75351809  0.36763200  1
  O  O250  1  0.50779439  0.76027046  0.86678348  1
  O  O251  1  0.25365326  0.13667889  0.49128178  1
  O  O252  1  0.26259357  0.13821275  0.98599256  1
  O  O253  1  0.25593462  0.63714535  0.49319240  1
  O  O254  1  0.23228726  0.62352663  1.00645964  1
  O  O255  1  0.74285085  0.12923182  0.49867733  1
  O  O256  1  0.74902765  0.13756350  0.99881724  1
  O  O257  1  0.74600275  0.63114463  0.50086263  1
  O  O258  1  0.74360181  0.63404270  1.00055857  1
  O  O259  1  0.25088046  0.36823854  0.00782768  1
  O  O260  1  0.26013808  0.35819613  0.49783742  1
  O  O261  1  0.25996504  0.87571718  0.00655914  1
  O  O262  1  0.25349281  0.86980624  0.51026916  1
  O  O263  1  0.74935534  0.37160787  0.00959211  1
  O  O264  1  0.75729845  0.37350020  0.51247395  1
  O  O265  1  0.76304318  0.86698339  0.00059954  1
  O  O266  1  0.75391474  0.86866437  0.50340938  1
  O  O267  1  0.11811658  0.48500965  0.24501952  1
  O  O268  1  0.12805807  0.48712582  0.75565891  1
  O  O269  1  0.14571417  0.98160369  0.26735851  1
  O  O270  1  0.12859694  0.98669464  0.73751362  1
  O  O271  1  0.63298300  0.49870168  0.24392537  1
  O  O272  1  0.63111941  0.50019532  0.74383545  1
  O  O273  1  0.62772369  0.99534512  0.24271413  1
  O  O274  1  0.62506568  0.98903590  0.75318828  1
  O  O275  1  0.36841935  -0.00477989  0.26177148  1
  O  O276  1  0.37023946  0.02112511  0.74166368  1
  O  O277  1  0.38751790  0.49476313  0.25963452  1
  O  O278  1  0.36715937  0.51070746  0.75698940  1
  O  O279  1  0.86538523  0.00695290  0.25564702  1
  O  O280  1  0.87225358  0.00810153  0.75492240  1
  O  O281  1  0.87075518  0.50575777  0.25901377  1
  O  O282  1  0.86650599  0.50811561  0.75411276  1
  O  O283  1  0.11562094  0.37400664  0.36525179  1
  O  O284  1  0.12104501  0.36127722  0.86963502  1
  O  O285  1  0.11667658  0.86479522  0.36909505  1
  O  O286  1  0.11638355  0.87641431  0.86438600  1
  O  O287  1  0.63170731  0.35886877  0.38056082  1
  O  O288  1  0.61585447  0.36662195  0.87125681  1
  O  O289  1  0.61892429  0.86864403  0.36806635  1
  O  O290  1  0.61528170  0.86921641  0.86636053  1
  O  O291  1  0.37730621  0.13171039  0.12772799  1
  O  O292  1  0.38943547  0.12811448  0.62774788  1
  O  O293  1  0.37564339  0.64246868  0.11698962  1
  O  O294  1  0.38346167  0.63148388  0.63353231  1
  O  O295  1  0.86983010  0.12943280  0.13702522  1
  O  O296  1  0.87258785  0.12671454  0.63807676  1
  O  O297  1  0.88399353  0.63204300  0.12950285  1
  O  O298  1  0.88617406  0.62310220  0.64023277  1
  O  O299  1  0.25715000  0.25791408  0.11805581  1
  O  O300  1  0.25079296  0.24335164  0.61497057  1
  O  O301  1  0.26454875  0.75976284  0.11623002  1
  O  O302  1  0.25252418  0.75675916  0.61885195  1
  O  O303  1  0.74636073  0.25981068  0.11233437  1
  O  O304  1  0.75196732  0.25972390  0.62054516  1
  O  O305  1  0.76588590  0.75352861  0.12924335  1
  O  O306  1  0.74387873  0.75884616  0.61232943  1
  O  O307  1  0.25507605  0.23545820  0.37305275  1
  O  O308  1  0.24337575  0.24618434  0.88250367  1
  O  O309  1  0.23736195  0.76219793  0.39079599  1
  O  O310  1  0.24425834  0.75412352  0.87993387  1
  O  O311  1  0.74473462  0.24428587  0.38397798  1
  O  O312  1  0.74225847  0.25074132  0.88458509  1
  O  O313  1  0.74253501  0.74390065  0.38445956  1
  O  O314  1  0.73348075  0.75819407  0.86847546  1
  O  O315  1  0.00558554  0.12356544  -0.00092081  1
  O  O316  1  -0.00063917  0.11423267  0.49065136  1
  O  O317  1  0.00601539  0.61884217  0.00659888  1
  O  O318  1  -0.00314449  0.62043425  0.51708442  1
  O  O319  1  0.49424439  0.11427631  0.00534196  1
  O  O320  1  0.50495331  0.11976325  0.51202610  1
  O  O321  1  0.50845588  0.61062640  -0.00676004  1
  O  O322  1  0.49962121  0.61875495  0.50836368  1
  O  O323  1  0.48682776  0.38180582  0.50255076  1
  O  O324  1  0.49983477  0.38692393  0.98995880  1
  O  O325  1  0.49747517  0.88154639  0.49540805  1
  O  O326  1  0.49676291  0.88494967  0.99064976  1
  O  O327  1  0.99661613  0.38049896  0.49718318  1
  O  O328  1  1.00385796  0.38678206  1.00238536  1
  O  O329  1  0.99116608  0.87990420  0.49533386  1
  O  O330  1  0.98822721  0.86764055  0.98913486  1
  O  O331  1  0.49491728  0.50202417  0.38986325  1
  O  O332  1  0.49869225  0.49335389  0.88515189  1
  O  O333  1  0.49169594  0.99799431  0.38282290  1
  O  O334  1  0.50629546  0.99452380  0.88284509  1
  O  O335  1  0.99505872  0.49195135  0.38359137  1
  O  O336  1  0.99158590  0.49716514  0.88378317  1
  O  O337  1  0.99452412  0.99163921  0.37754780  1
  O  O338  1  0.98643107  0.98514216  0.86692444  1
  O  O339  1  0.01313914  0.02160578  0.17225567  1
  O  O340  1  0.00896731  -0.00555409  0.61079858  1
  O  O341  1  -0.00285013  0.50866851  0.11808380  1
  O  O342  1  0.00112601  0.51197736  0.62492722  1
  O  O343  1  0.50478102  0.00985896  0.11876031  1
  O  O344  1  0.49987943  0.00322003  0.61528978  1
  O  O345  1  0.50858278  0.49502842  0.11020935  1
  O  O346  1  0.49955346  0.50687643  0.61766937  1
  O  O347  1  0.24092753  0.36558516  0.24097132  1
  O  O348  1  0.23284819  0.37890609  0.75452834  1
  O  O349  1  0.24419914  0.87096653  0.24417198  1
  O  O350  1  0.24448077  0.87678880  0.73755121  1
  O  O351  1  0.74540646  0.38133101  0.24240139  1
  O  O352  1  0.75075115  0.38247936  0.73961900  1
  O  O353  1  0.73799959  0.88044367  0.25019578  1
  O  O354  1  0.74137078  0.87686658  0.73810331  1
  O  O355  1  0.25569215  0.11194036  0.26381686  1
  O  O356  1  0.25872842  0.12474695  0.75858762  1
  O  O357  1  0.25932485  0.66622667  0.26200485  1
  O  O358  1  0.25629261  0.61849466  0.74955351  1
  O  O359  1  0.75658758  0.12202465  0.25516158  1
  O  O360  1  0.75742747  0.12390768  0.75316820  1
  O  O361  1  0.75732497  0.61824614  0.25728210  1
  O  O362  1  0.75786736  0.61826269  0.74205315  1
  O  O363  1  0.36957223  0.11491940  0.37596598  1
  O  O364  1  0.36906433  0.12975066  0.86269432  1
  O  O365  1  0.37299449  0.60008277  0.38084127  1
  O  O366  1  0.38130231  0.62837319  0.86517876  1
  O  O367  1  0.86416703  0.11944972  0.37041792  1
  O  O368  1  0.87273817  0.11688077  0.86518302  1
  O  O369  1  0.87085684  0.61906139  0.37419368  1
  O  O370  1  0.88179404  0.61412821  0.85888006  1
  O  O371  1  0.13492015  0.37693762  0.13200148  1
  O  O372  1  0.12288635  0.37379995  0.63932673  1
  O  O373  1  0.13485872  0.86563012  0.13498010  1
  O  O374  1  0.13174326  0.88107479  0.62752534  1
  O  O375  1  0.63815351  0.38556535  0.12368116  1
  O  O376  1  0.63243725  0.38202357  0.62626600  1
  O  O377  1  0.62580823  0.88333122  0.13166495  1
  O  O378  1  0.63164518  0.87122572  0.63278153  1
  O  O379  1  0.11341221  0.26239111  0.24981566  1
  O  O380  1  0.11598072  0.25618267  0.75430237  1
  O  O381  1  0.11646772  0.75774268  0.25677457  1
  O  O382  1  0.11698996  0.76376978  0.74794101  1
  O  O383  1  0.63002724  0.24542906  0.26905406  1
  O  O384  1  0.63035994  0.25439365  0.76817588  1
  O  O385  1  0.62152447  0.75776254  0.25203271  1
  O  O386  1  0.61788945  0.76049152  0.75549349  1
  O  O387  1  0.37599877  0.24815495  0.23762628  1
  O  O388  1  0.36966757  0.23492108  0.74624646  1
  O  O389  1  0.39274637  0.76344143  0.22987222  1
  O  O390  1  0.37839303  0.74498205  0.74343077  1
  O  O391  1  0.87858245  0.24417921  0.24800154  1
  O  O392  1  0.88517394  0.24536291  0.75107776  1
  O  O393  1  0.87989965  0.74529655  0.24604896  1
  O  O394  1  0.88187189  0.74198679  0.75373340  1
  O  O395  1  0.37275625  0.48493024  0.49997996  1
  O  O396  1  0.38653393  0.50017107  0.99876459  1
  O  O397  1  0.38301871  0.99498556  0.49707559  1
  O  O398  1  0.38644627  0.98823981  1.00325906  1
  O  O399  1  0.86954642  0.48930350  0.49794638  1
  O  O400  1  0.88384661  0.50744185  0.99024380  1
  O  O401  1  0.88142588  0.99375849  0.49381704  1
  O  O402  1  0.87248359  0.99094317  0.99121943  1
  O  O403  1  0.10969115  -0.00455917  -0.00237520  1
  O  O404  1  0.11595875  0.00032987  0.50452996  1
  O  O405  1  0.11590682  0.51022432  0.00217783  1
  O  O406  1  0.15273633  0.50016085  0.49810802  1
  O  O407  1  0.61757683  -0.00730833  0.01022808  1
  O  O408  1  0.61565327  0.01025351  0.49423791  1
  O  O409  1  0.61704860  0.50119165  0.00521496  1
  O  O410  1  0.61368588  0.50466270  0.50627929  1
  O  O411  1  0.36865826  0.36661351  0.12206612  1
  O  O412  1  0.37577986  0.37252898  0.61195403  1
  O  O413  1  0.37288762  0.86849804  0.11461535  1
  O  O414  1  0.36744250  0.87063168  0.62038738  1
  O  O415  1  0.85789097  0.37401625  0.13043115  1
  O  O416  1  0.86957927  0.37585275  0.62027472  1
  O  O417  1  0.87747384  0.87011925  0.11708138  1
  O  O418  1  0.86666687  0.87928791  0.61223548  1
  O  O419  1  0.14371411  0.11604595  0.37615953  1
  O  O420  1  0.13705928  0.13923919  0.86843753  1
  O  O421  1  0.12579775  0.63726774  0.36929091  1
  O  O422  1  0.11584313  0.62655141  0.88736182  1
  O  O423  1  0.63031265  0.13086993  0.38679750  1
  O  O424  1  0.62387305  0.13933537  0.87352851  1
  O  O425  1  0.63102691  0.62737629  0.38319573  1
  O  O426  1  0.61890318  0.64335457  0.86698937  1
