# generated using pymatgen
data_V85Zn86O256
_symmetry_space_group_name_H-M   'P 1'
_cell_length_a   16.94074231
_cell_length_b   16.93141138
_cell_length_c   16.93850160
_cell_angle_alpha   89.97906068
_cell_angle_beta   90.01557279
_cell_angle_gamma   90.01050418
_symmetry_Int_Tables_number   1
_chemical_formula_structural   V85Zn86O256
_chemical_formula_sum   'V85 Zn86 O256'
_cell_volume   4858.48129588
_cell_formula_units_Z   1
loop_
 _symmetry_equiv_pos_site_id
 _symmetry_equiv_pos_as_xyz
  1  'x, y, z'
loop_
 _atom_site_type_symbol
 _atom_site_label
 _atom_site_symmetry_multiplicity
 _atom_site_fract_x
 _atom_site_fract_y
 _atom_site_fract_z
 _atom_site_occupancy
  V  V0  1  0.43674904  0.19511210  0.80012117  1
  V  V1  1  0.51365009  0.74973608  0.75131887  1
  V  V2  1  0.37866228  0.74664784  0.12350473  1
  V  V3  1  0.75130756  0.63296382  0.37748332  1
  V  V4  1  0.12036171  -0.00175476  0.62690334  1
  V  V5  1  0.25322515  0.50580384  0.74912731  1
  V  V6  1  0.74593410  0.24444829  0.50543999  1
  V  V7  1  0.87297375  0.50018623  0.37268266  1
  V  V8  1  -0.00172658  0.50014565  0.01126781  1
  V  V9  1  0.37781261  0.51086884  0.87331188  1
  V  V10  1  0.75603182  0.86867383  0.12899731  1
  V  V11  1  0.24776694  0.24916417  0.50408345  1
  V  V12  1  0.50342700  0.74697572  0.25056641  1
  V  V13  1  0.49519608  0.12510434  0.59838849  1
  V  V14  1  -0.00136001  0.24531815  0.24000506  1
  V  V15  1  0.87342723  0.12122385  0.75070706  1
  V  V16  1  0.37376901  0.37612996  -0.00018384  1
  V  V17  1  0.13306664  0.24654894  0.87835880  1
  V  V18  1  0.86989883  0.62435467  0.75039550  1
  V  V19  1  0.24475627  0.50003069  0.24416048  1
  V  V20  1  0.12427357  0.49928532  0.62631158  1
  V  V21  1  -0.00087728  0.49816669  0.49830330  1
  V  V22  1  0.50201992  0.37472684  0.37529801  1
  V  V23  1  0.62640998  0.24231249  0.37808904  1
  V  V24  1  0.50182861  0.49824269  0.50144075  1
  V  V25  1  0.12333201  0.24918736  0.37398469  1
  V  V26  1  0.87864565  0.86798528  0.00517847  1
  V  V27  1  0.24840065  0.62632793  0.37188626  1
  V  V28  1  0.64390487  0.37630524  0.75056438  1
  V  V29  1  0.38137205  -0.00074204  0.37745549  1
  V  V30  1  0.61954358  0.00552159  0.61277753  1
  V  V31  1  0.49706015  0.24784642  0.24859193  1
  V  V32  1  0.12263625  0.37750506  0.24644054  1
  V  V33  1  0.24997762  0.87338111  0.12557828  1
  V  V34  1  0.37346290  0.74436346  0.63518802  1
  V  V35  1  0.62613425  0.87569987  0.25297159  1
  V  V36  1  -0.00075405  0.37475555  0.87256294  1
  V  V37  1  0.87115103  0.25202898  0.62847502  1
  V  V38  1  0.87736919  0.12006411  0.24382400  1
  V  V39  1  0.64033932  0.49567071  0.62831678  1
  V  V40  1  0.37505071  0.50062326  0.37475629  1
  V  V41  1  0.11514870  0.87343116  0.24883836  1
  V  V42  1  0.12146165  0.00955090  0.12539402  1
  V  V43  1  0.87033834  0.50201223  0.87309946  1
  V  V44  1  -0.00009128  0.87897772  0.38996278  1
  V  V45  1  0.37000342  0.24561539  0.12680243  1
  V  V46  1  0.11910970  0.11827653  0.50101617  1
  V  V47  1  0.25583131  0.00225951  0.24867915  1
  V  V48  1  0.73958904  0.62667217  0.87342103  1
  V  V49  1  0.13598315  0.87734434  0.75369203  1
  V  V50  1  -0.00371439  0.64264693  0.12714173  1
  V  V51  1  0.86882595  0.75803401  0.60935360  1
  V  V52  1  0.87612824  0.63833377  0.24436082  1
  V  V53  1  0.24533624  0.62829357  0.87550553  1
  V  V54  1  0.62903984  0.00286273  0.12349749  1
  V  V55  1  -0.00163696  0.75140044  0.75036842  1
  V  V56  1  0.49838745  0.62148220  0.62857829  1
  V  V57  1  0.24459951  0.37443876  0.12008813  1
  V  V58  1  -0.00246514  0.37428243  0.37264742  1
  V  V59  1  0.74643750  0.50182315  0.24558012  1
  V  V60  1  0.62453552  0.37727772  0.24472579  1
  V  V61  1  0.86803690  0.00193960  0.87276913  1
  V  V62  1  0.74056654  0.23440203  -0.00548333  1
  V  V63  1  0.49881736  -0.00002242  -0.00414932  1
  V  V64  1  0.12462847  0.62509052  0.49747189  1
  V  V65  1  0.86543048  0.37567324  0.50452034  1
  V  V66  1  0.37984591  0.87032483  0.49776761  1
  V  V67  1  0.38064114  0.62334287  0.24647308  1
  V  V68  1  0.50600427  0.12390398  0.12885797  1
  V  V69  1  0.74635691  0.75014355  -0.00365199  1
  V  V70  1  0.12426354  0.62012946  0.00769335  1
  V  V71  1  0.88000837  0.00129202  0.39146519  1
  V  V72  1  0.86985030  0.37352000  -0.00082167  1
  V  V73  1  0.50132766  0.37902022  0.86468224  1
  V  V74  1  0.50643258  0.50259537  0.01142514  1
  V  V75  1  0.74841106  0.88424589  0.61894711  1
  V  V76  1  0.74673826  0.37696100  0.11977023  1
  V  V77  1  -0.00090059  0.01160179  0.00316986  1
  V  V78  1  0.25394105  0.12455787  0.37091595  1
  V  V79  1  0.11938823  0.75041122  0.36989330  1
  V  V80  1  0.61758886  0.62543491  0.01639512  1
  V  V81  1  0.37427671  0.37335307  0.50272662  1
  V  V82  1  0.62834017  0.63100785  0.49993254  1
  V  V83  1  -0.00179734  0.62610399  0.62515631  1
  V  V84  1  -0.00025824  0.87683393  0.87505082  1
  Zn  Zn85  1  0.62517945  0.23085588  0.86954336  1
  Zn  Zn86  1  0.26341158  0.10751481  0.87603330  1
  Zn  Zn87  1  0.63732158  0.87418938  0.75737041  1
  Zn  Zn88  1  0.24639936  0.74951668  0.00378179  1
  Zn  Zn89  1  0.50523952  0.87892668  0.37878643  1
  Zn  Zn90  1  0.24915146  0.37409065  0.62681422  1
  Zn  Zn91  1  0.13315029  0.13213338  0.00267817  1
  Zn  Zn92  1  0.87452269  0.24404053  0.12004239  1
  Zn  Zn93  1  0.00112608  0.24707724  0.74927956  1
  Zn  Zn94  1  0.74932940  0.12120857  0.37679923  1
  Zn  Zn95  1  0.25112145  0.74939236  0.50010630  1
  Zn  Zn96  1  0.12297151  0.74789573  0.87813438  1
  Zn  Zn97  1  0.12290298  0.37597640  0.75051955  1
  Zn  Zn98  1  0.62848936  0.75429572  0.37996347  1
  Zn  Zn99  1  0.75391770  -0.00040283  0.25400633  1
  Zn  Zn100  1  0.50868603  0.86698141  0.88073077  1
  Zn  Zn101  1  0.25403972  0.87762660  0.62602550  1
  Zn  Zn102  1  0.70736250  0.04372769  0.79652837  1
  Zn  Zn103  1  0.37461731  0.24116732  0.62975020  1
  Zn  Zn104  1  0.37371255  0.88197930  0.00179540  1
  Zn  Zn105  1  0.28534279  0.02993136  0.73589821  1
  Zn  Zn106  1  -0.00129727  0.12318672  0.62174605  1
  Zn  Zn107  1  0.18845904  0.18870125  0.18859467  1
  Zn  Zn108  1  0.18722726  0.18635360  0.69457075  1
  Zn  Zn109  1  0.18384134  0.68712037  0.18648175  1
  Zn  Zn110  1  0.18689130  0.68821584  0.69002690  1
  Zn  Zn111  1  0.69155411  0.18858908  0.18952336  1
  Zn  Zn112  1  0.66989544  0.17628797  0.70572787  1
  Zn  Zn113  1  0.69043322  0.69079089  0.18712420  1
  Zn  Zn114  1  0.69264273  0.68393340  0.68114182  1
  Zn  Zn115  1  0.31217778  0.31317613  0.31253308  1
  Zn  Zn116  1  0.30478574  0.32466450  0.81591865  1
  Zn  Zn117  1  0.31004608  0.81297455  0.31125992  1
  Zn  Zn118  1  0.32827022  0.90041107  0.82529920  1
  Zn  Zn119  1  0.81172769  0.30967730  0.31235633  1
  Zn  Zn120  1  0.81196781  0.30756524  0.81500162  1
  Zn  Zn121  1  0.81694099  0.81723441  0.31870075  1
  Zn  Zn122  1  0.81129052  0.81280023  0.81051955  1
  Zn  Zn123  1  0.18737373  0.43706693  0.43481428  1
  Zn  Zn124  1  0.18505538  0.43976860  0.93781232  1
  Zn  Zn125  1  0.19237054  0.93531989  0.44007633  1
  Zn  Zn126  1  0.18801485  0.94461498  0.93840049  1
  Zn  Zn127  1  0.68701110  0.43836805  0.43502294  1
  Zn  Zn128  1  0.68567808  0.44183517  0.93579036  1
  Zn  Zn129  1  0.69727796  0.93417047  0.44184768  1
  Zn  Zn130  1  0.68173487  0.93169224  0.94300014  1
  Zn  Zn131  1  0.31195666  0.06621446  0.05966306  1
  Zn  Zn132  1  0.30767332  0.05716237  0.55724724  1
  Zn  Zn133  1  0.31510140  0.56099445  0.06222516  1
  Zn  Zn134  1  0.31180828  0.56432064  0.56128191  1
  Zn  Zn135  1  0.81464663  0.05733032  0.06417690  1
  Zn  Zn136  1  0.80889539  0.06746466  0.56710324  1
  Zn  Zn137  1  0.81133352  0.56393170  0.06287868  1
  Zn  Zn138  1  0.81425231  0.56646882  0.56088672  1
  Zn  Zn139  1  0.43475398  0.43560721  0.18711255  1
  Zn  Zn140  1  0.43518542  0.43912307  0.68672107  1
  Zn  Zn141  1  0.43864824  0.93515361  0.18848912  1
  Zn  Zn142  1  0.44685974  0.93169172  0.67694478  1
  Zn  Zn143  1  0.93080009  0.43665498  0.18679874  1
  Zn  Zn144  1  0.93280144  0.43850339  0.68769936  1
  Zn  Zn145  1  0.93865934  0.93860794  0.18937219  1
  Zn  Zn146  1  0.93855632  0.93776557  0.68566634  1
  Zn  Zn147  1  0.06179068  0.06141799  0.31311606  1
  Zn  Zn148  1  0.05986088  0.06288455  0.81039906  1
  Zn  Zn149  1  0.05982893  0.56320299  0.30661914  1
  Zn  Zn150  1  0.05972925  0.56116063  0.81463335  1
  Zn  Zn151  1  0.56265109  0.06329314  0.30852487  1
  Zn  Zn152  1  0.54599888  0.05016611  0.79863660  1
  Zn  Zn153  1  0.56442904  0.56314400  0.31186477  1
  Zn  Zn154  1  0.56261371  0.56210691  0.81093948  1
  Zn  Zn155  1  0.43378336  0.18845314  0.43415012  1
  Zn  Zn156  1  0.44665337  0.19062941  0.96148816  1
  Zn  Zn157  1  0.44049505  0.68935731  0.43737045  1
  Zn  Zn158  1  0.40728655  0.72126861  0.90864772  1
  Zn  Zn159  1  0.93505184  0.18831908  0.43506473  1
  Zn  Zn160  1  0.93411937  0.18916368  0.93455681  1
  Zn  Zn161  1  0.94122855  0.68712791  0.43147516  1
  Zn  Zn162  1  0.93579907  0.68803538  0.93860017  1
  Zn  Zn163  1  0.06182446  0.31455824  0.05873002  1
  Zn  Zn164  1  0.05805834  0.31215966  0.56248341  1
  Zn  Zn165  1  0.06559752  0.81410107  0.06080577  1
  Zn  Zn166  1  0.06600281  0.81095262  0.56553099  1
  Zn  Zn167  1  0.56473538  0.31339141  0.05824125  1
  Zn  Zn168  1  0.56422635  0.30991476  0.56889884  1
  Zn  Zn169  1  0.56530011  0.81107627  0.06634598  1
  Zn  Zn170  1  0.56303007  0.81407121  0.56398727  1
  O  O171  1  0.12855247  0.11333443  0.12480802  1
  O  O172  1  0.12442867  0.11870810  0.61819747  1
  O  O173  1  0.11314577  0.62517193  0.11905914  1
  O  O174  1  0.11888332  0.61683469  0.61983911  1
  O  O175  1  0.61870709  0.11548001  0.13621597  1
  O  O176  1  0.61274869  0.11408114  0.62536655  1
  O  O177  1  0.62925124  0.62358409  0.11515773  1
  O  O178  1  0.62129358  0.61268667  0.61772164  1
  O  O179  1  0.38007783  0.37954778  0.38416752  1
  O  O180  1  0.38065096  0.38553753  0.88316854  1
  O  O181  1  0.37507454  0.88092480  0.37933824  1
  O  O182  1  0.39395092  0.84037778  0.89474938  1
  O  O183  1  0.87846889  0.38108207  0.37972485  1
  O  O184  1  0.87869802  0.38312343  0.87920830  1
  O  O185  1  0.88574662  0.88906282  0.37460446  1
  O  O186  1  0.88428764  0.87939069  0.88029126  1
  O  O187  1  0.25495890  0.00635030  0.36706043  1
  O  O188  1  0.25861697  -0.01272427  0.86447892  1
  O  O189  1  0.25531501  0.50420212  0.36436631  1
  O  O190  1  0.25620101  0.50656017  0.86904353  1
  O  O191  1  0.76599067  -0.00024741  0.37529061  1
  O  O192  1  0.76302004  -0.00678832  0.88258955  1
  O  O193  1  0.75467990  0.50820763  0.36652975  1
  O  O194  1  0.76375406  0.50998047  0.88109097  1
  O  O195  1  0.25730633  0.49075260  0.13753584  1
  O  O196  1  0.24223771  0.50248092  0.63122906  1
  O  O197  1  0.24524532  0.99377433  0.13208747  1
  O  O198  1  0.24001180  0.99721645  0.63045910  1
  O  O199  1  0.75356114  0.48721956  0.13158200  1
  O  O200  1  0.73868533  0.50233623  0.62216676  1
  O  O201  1  0.74455931  0.98796026  0.12704296  1
  O  O202  1  0.74320433  0.99140888  0.62327996  1
  O  O203  1  0.00315422  0.37099894  0.25346234  1
  O  O204  1  -0.00107451  0.38065051  0.76376822  1
  O  O205  1  0.01273483  0.88016162  0.25874312  1
  O  O206  1  0.00388991  0.86774618  0.75764688  1
  O  O207  1  0.50768108  0.37179794  0.25373716  1
  O  O208  1  0.50182090  0.38292195  0.76195218  1
  O  O209  1  0.51059812  0.86798149  0.25308450  1
  O  O210  1  0.50636860  0.85504460  0.74657628  1
  O  O211  1  0.49953105  0.13615920  0.24143734  1
  O  O212  1  0.48020654  0.12733840  0.73903843  1
  O  O213  1  0.49173350  0.63082705  0.25385555  1
  O  O214  1  0.50587410  0.62787825  0.73364948  1
  O  O215  1  0.99350344  0.13517484  0.25490104  1
  O  O216  1  0.98869141  0.12705576  0.74507311  1
  O  O217  1  0.98826367  0.61893961  0.23821131  1
  O  O218  1  0.99384349  0.63254148  0.74597583  1
  O  O219  1  0.38083170  0.26809320  0.01181263  1
  O  O220  1  0.36236602  0.25739687  0.49667766  1
  O  O221  1  0.37026256  0.73830112  0.01897818  1
  O  O222  1  0.37309110  0.75299587  0.50526215  1
  O  O223  1  0.86334849  0.25594007  0.00006097  1
  O  O224  1  0.86851688  0.25808502  0.50439445  1
  O  O225  1  0.86859781  0.76213259  -0.00168365  1
  O  O226  1  0.88252661  0.74495591  0.51221793  1
  O  O227  1  0.13377414  0.24831753  0.49433703  1
  O  O228  1  0.11601905  0.24861082  0.98449452  1
  O  O229  1  0.12767123  0.74141099  0.49281718  1
  O  O230  1  0.12636875  0.73655235  0.99881920  1
  O  O231  1  0.63539621  0.26314077  0.49061037  1
  O  O232  1  0.63458004  0.24892904  0.99162294  1
  O  O233  1  0.62054008  0.73475935  0.50020747  1
  O  O234  1  0.63239520  0.73766426  1.00414326  1
  O  O235  1  0.49730356  0.24518520  0.13019334  1
  O  O236  1  0.49702129  0.23117381  0.61761374  1
  O  O237  1  0.49216149  0.75422280  0.13931311  1
  O  O238  1  0.49451773  0.73978761  0.62721161  1
  O  O239  1  0.99753082  0.25694109  0.13661134  1
  O  O240  1  0.98654459  0.25047692  0.62659156  1
  O  O241  1  0.99962614  0.74212019  0.12248087  1
  O  O242  1  0.99171994  0.74615292  0.63170843  1
  O  O243  1  0.00436079  0.25660066  0.36596955  1
  O  O244  1  0.00215173  0.26196487  0.87291288  1
  O  O245  1  0.01198447  0.75826508  0.37541557  1
  O  O246  1  -0.00146639  0.75743240  0.86787769  1
  O  O247  1  0.50446304  0.25580626  0.36756429  1
  O  O248  1  0.50052178  0.25315829  0.86790480  1
  O  O249  1  0.50426121  0.75195081  0.36272336  1
  O  O250  1  0.50679808  0.73227468  0.85184301  1
  O  O251  1  0.24140567  0.13384284  0.49256777  1
  O  O252  1  0.24548177  0.11595073  0.98761160  1
  O  O253  1  0.24214380  0.62307204  0.48858082  1
  O  O254  1  0.23894171  0.61847749  0.99640710  1
  O  O255  1  0.75285388  0.14038947  0.49549275  1
  O  O256  1  0.75151105  0.13647795  1.00678708  1
  O  O257  1  0.74153703  0.61781383  0.48895226  1
  O  O258  1  0.74303987  0.63178458  0.99568185  1
  O  O259  1  0.25977399  0.38617323  0.00944683  1
  O  O260  1  0.25666258  0.36789106  0.49913801  1
  O  O261  1  0.25011728  0.87303104  0.01469957  1
  O  O262  1  0.26217202  0.86841323  0.50342756  1
  O  O263  1  0.75024225  0.37360807  0.00600406  1
  O  O264  1  0.76150863  0.36970510  0.49295806  1
  O  O265  1  0.75690453  0.86721488  0.00783102  1
  O  O266  1  0.75242996  0.86726827  0.51854622  1
  O  O267  1  0.13476913  0.49221811  0.25396111  1
  O  O268  1  0.12821188  0.50057106  0.74085301  1
  O  O269  1  0.13275943  0.99390155  0.24424223  1
  O  O270  1  0.12194931  0.98886703  0.74490041  1
  O  O271  1  0.63763934  0.49300836  0.25428447  1
  O  O272  1  0.62351014  0.49381816  0.73579549  1
  O  O273  1  0.62968228  0.99184045  0.24383941  1
  O  O274  1  0.62345603  0.99153740  0.73307798  1
  O  O275  1  0.36108395  -0.00703405  0.25558181  1
  O  O276  1  0.37949047  -0.02678877  0.75410935  1
  O  O277  1  0.36989191  0.50528393  0.25588050  1
  O  O278  1  0.36602925  0.49873634  0.75981433  1
  O  O279  1  0.87604784  0.00789327  0.25696609  1
  O  O280  1  0.88066132  0.00436732  0.76131484  1
  O  O281  1  0.86224462  0.50388577  0.25471483  1
  O  O282  1  0.88012467  0.51516959  0.75706275  1
  O  O283  1  0.11878747  0.36872704  0.36831339  1
  O  O284  1  0.11434191  0.37066469  0.87636941  1
  O  O285  1  0.12206221  0.87004179  0.36889116  1
  O  O286  1  0.11309736  0.87203069  0.87154827  1
  O  O287  1  0.62090166  0.36920733  0.36343483  1
  O  O288  1  0.61905812  0.38204411  0.86121507  1
  O  O289  1  0.62856636  0.87502932  0.36598810  1
  O  O290  1  0.62122916  0.87456332  0.87066165  1
  O  O291  1  0.38254564  0.14068810  0.12135646  1
  O  O292  1  0.38881726  0.12206404  0.60867914  1
  O  O293  1  0.36941393  0.62887575  0.14004124  1
  O  O294  1  0.38502635  0.63446654  0.61584095  1
  O  O295  1  0.87327578  0.12484327  0.13818554  1
  O  O296  1  0.88050165  0.13325317  0.62861012  1
  O  O297  1  0.88180196  0.62297996  0.13281363  1
  O  O298  1  0.87908334  0.63271833  0.63182803  1
  O  O299  1  0.25941744  0.25986353  0.13251489  1
  O  O300  1  0.25156604  0.25228919  0.61558035  1
  O  O301  1  0.25660266  0.75780099  0.12896216  1
  O  O302  1  0.26373936  0.74442169  0.62530586  1
  O  O303  1  0.74785138  0.26020669  0.11393630  1
  O  O304  1  0.76236184  0.24928525  0.61691814  1
  O  O305  1  0.74861602  0.76114573  0.11504040  1
  O  O306  1  0.76624103  0.74947147  0.62118405  1
  O  O307  1  0.24477015  0.24285580  0.37868524  1
  O  O308  1  0.23272450  0.26067841  0.87767018  1
  O  O309  1  0.23856014  0.74307662  0.37336368  1
  O  O310  1  0.24889952  0.73190886  0.88086911  1
  O  O311  1  0.74105325  0.25023419  0.38198653  1
  O  O312  1  0.74664645  0.25073727  0.89049949  1
  O  O313  1  0.74980930  0.73684610  0.37173229  1
  O  O314  1  0.75682641  0.74223234  0.88835590  1
  O  O315  1  -0.00055146  0.11351451  -0.00225938  1
  O  O316  1  0.01651552  0.13416216  0.49795552  1
  O  O317  1  0.00201599  0.61946162  0.00815699  1
  O  O318  1  0.00478144  0.61712417  0.50337368  1
  O  O319  1  0.50651784  0.11343784  0.01697614  1
  O  O320  1  0.50431099  0.12552769  0.49976032  1
  O  O321  1  0.51572432  0.61867524  -0.00064914  1
  O  O322  1  0.50858154  0.61696396  0.50530778  1
  O  O323  1  0.49311723  0.37733884  0.49592918  1
  O  O324  1  0.49785926  0.38258052  0.98809477  1
  O  O325  1  0.48705090  0.86861948  0.49558989  1
  O  O326  1  0.50302830  0.89002011  1.00910889  1
  O  O327  1  0.99031861  0.38019597  0.49212299  1
  O  O328  1  0.99146029  0.38290427  0.99217755  1
  O  O329  1  1.00870316  0.87391929  0.48894308  1
  O  O330  1  0.99432445  0.87882686  0.99315956  1
  O  O331  1  0.49573261  0.49378439  0.38049937  1
  O  O332  1  0.49308951  0.49699122  0.88053368  1
  O  O333  1  0.48463732  1.00066480  0.36508139  1
  O  O334  1  0.50315619  1.00139597  0.89395319  1
  O  O335  1  0.99316173  0.49509553  0.37824079  1
  O  O336  1  0.98802055  0.49714631  0.88446165  1
  O  O337  1  0.99039342  0.99375536  0.37526839  1
  O  O338  1  0.99407367  0.99214032  0.88363827  1
  O  O339  1  0.01041480  -0.00691181  0.11617270  1
  O  O340  1  0.01492508  0.00030627  0.62503774  1
  O  O341  1  -0.00696999  0.50163431  0.11336769  1
  O  O342  1  0.00497149  0.50657988  0.61956267  1
  O  O343  1  0.50841355  0.00783765  0.12846932  1
  O  O344  1  0.51048097  0.00902669  0.61844266  1
  O  O345  1  0.49601874  0.49326717  0.11047549  1
  O  O346  1  0.50356891  0.50561490  0.61847652  1
  O  O347  1  0.24435775  0.38168383  0.24460208  1
  O  O348  1  0.24362454  0.39172759  0.74596360  1
  O  O349  1  0.24114408  0.88191542  0.24188782  1
  O  O350  1  0.23651347  0.85980816  0.75193469  1
  O  O351  1  0.74384193  0.37981602  0.24294614  1
  O  O352  1  0.74249411  0.38138692  0.75613341  1
  O  O353  1  0.74570774  0.87358914  0.24435848  1
  O  O354  1  0.75166629  0.86291992  0.72834392  1
  O  O355  1  0.24525390  0.11614528  0.25943880  1
  O  O356  1  0.25732480  0.13303437  0.76334846  1
  O  O357  1  0.25413940  0.61670758  0.25315916  1
  O  O358  1  0.24181002  0.61407305  0.75972037  1
  O  O359  1  0.76162339  0.12440135  0.25582407  1
  O  O360  1  0.76893787  0.12288249  0.73685969  1
  O  O361  1  0.75461617  0.61788464  0.25356771  1
  O  O362  1  0.75937503  0.63216750  0.75931002  1
  O  O363  1  0.36135070  0.11689172  0.37987416  1
  O  O364  1  0.38617897  0.14382250  0.87247212  1
  O  O365  1  0.36964840  0.62121939  0.36549550  1
  O  O366  1  0.36479319  0.61591093  0.88202016  1
  O  O367  1  0.87709942  0.11382006  0.36786404  1
  O  O368  1  0.87852984  0.11349262  0.86676655  1
  O  O369  1  0.87003909  0.61852799  0.36830613  1
  O  O370  1  0.86867259  0.62043647  0.86902851  1
  O  O371  1  0.13726076  0.37088555  0.12765831  1
  O  O372  1  0.12378174  0.38915873  0.62256391  1
  O  O373  1  0.13129761  0.88111870  0.13216282  1
  O  O374  1  0.12852164  0.87948447  0.63475618  1
  O  O375  1  0.63004583  0.37097463  0.13683704  1
  O  O376  1  0.62205282  0.38759353  0.63586958  1
  O  O377  1  0.63390591  0.87978929  0.13659167  1
  O  O378  1  0.63458421  0.88293287  0.62374122  1
  O  O379  1  0.11713692  0.25558508  0.25469493  1
  O  O380  1  0.11967418  0.25738158  0.76109946  1
  O  O381  1  0.12905624  0.76043525  0.25786569  1
  O  O382  1  0.11144833  0.75407134  0.75147401  1
  O  O383  1  0.61645934  0.25815601  0.25589326  1
  O  O384  1  0.62747517  0.27401701  0.74793042  1
  O  O385  1  0.61925175  0.75619150  0.25132058  1
  O  O386  1  0.61558315  0.74728311  0.73662015  1
  O  O387  1  0.38904980  0.26091441  0.24266381  1
  O  O388  1  0.37637384  0.26096113  0.74840803  1
  O  O389  1  0.38071018  0.74222968  0.24459986  1
  O  O390  1  0.38865240  0.74509542  0.73390463  1
  O  O391  1  0.88272104  0.24182077  0.24934361  1
  O  O392  1  0.87622232  0.24449364  0.74377813  1
  O  O393  1  0.87095633  0.73720549  0.25457052  1
  O  O394  1  0.88497203  0.74187390  0.74459302  1
  O  O395  1  0.37873674  0.49300918  0.49368100  1
  O  O396  1  0.38373746  0.49377814  0.99396702  1
  O  O397  1  0.36757153  0.98697957  0.48726041  1
  O  O398  1  0.39456131  0.99851215  1.01305269  1
  O  O399  1  0.87895030  0.49383891  0.49479350  1
  O  O400  1  0.87932158  0.49498931  0.99327185  1
  O  O401  1  0.87692566  1.00937453  0.48998787  1
  O  O402  1  0.88183301  0.98959124  0.99502322  1
  O  O403  1  0.11460515  -0.00106545  0.00936298  1
  O  O404  1  0.13402519  0.00919858  0.50863262  1
  O  O405  1  0.11193485  0.51019946  -0.00358277  1
  O  O406  1  0.12003490  0.50459123  0.50475637  1
  O  O407  1  0.61751704  -0.00215845  0.01715008  1
  O  O408  1  0.63053404  -0.00288901  0.51323416  1
  O  O409  1  0.61943427  0.51292130  -0.00163698  1
  O  O410  1  0.62089154  0.50171155  0.51015478  1
  O  O411  1  0.36626207  0.36881319  0.11984951  1
  O  O412  1  0.37365423  0.37329380  0.61163981  1
  O  O413  1  0.36712354  0.86486831  0.12671047  1
  O  O414  1  0.37602898  0.85844864  0.61619482  1
  O  O415  1  0.86405500  0.37006177  0.11763956  1
  O  O416  1  0.87766960  0.36969604  0.61457571  1
  O  O417  1  0.86836842  0.87994013  0.11752062  1
  O  O418  1  0.87015248  0.86439521  0.62557160  1
  O  O419  1  0.13397564  0.12833794  0.38107126  1
  O  O420  1  0.11965973  0.14081626  0.87349378  1
  O  O421  1  0.12616066  0.63225653  0.37506926  1
  O  O422  1  0.12875720  0.62372032  0.88470912  1
  O  O423  1  0.62578875  0.13901839  0.36874240  1
  O  O424  1  0.63016344  0.12799290  0.82075744  1
  O  O425  1  0.63399875  0.62378737  0.38315403  1
  O  O426  1  0.63800052  0.61775791  0.87979111  1
