# generated using pymatgen
data_V85Zn86O256
_symmetry_space_group_name_H-M   'P 1'
_cell_length_a   16.94438221
_cell_length_b   16.94468453
_cell_length_c   16.94403438
_cell_angle_alpha   90.03479217
_cell_angle_beta   90.01635548
_cell_angle_gamma   89.96983099
_symmetry_Int_Tables_number   1
_chemical_formula_structural   V85Zn86O256
_chemical_formula_sum   'V85 Zn86 O256'
_cell_volume   4864.92212595
_cell_formula_units_Z   1
loop_
 _symmetry_equiv_pos_site_id
 _symmetry_equiv_pos_as_xyz
  1  'x, y, z'
loop_
 _atom_site_type_symbol
 _atom_site_label
 _atom_site_symmetry_multiplicity
 _atom_site_fract_x
 _atom_site_fract_y
 _atom_site_fract_z
 _atom_site_occupancy
  V  V0  1  0.49953398  0.12415256  0.61683866  1
  V  V1  1  0.62813748  0.74525176  0.37438679  1
  V  V2  1  0.86802609  0.49908882  0.37915756  1
  V  V3  1  0.24862754  0.49691503  0.24215719  1
  V  V4  1  0.37578226  0.50137527  0.37317406  1
  V  V5  1  0.13447286  0.12736550  0.00047041  1
  V  V6  1  0.87216027  0.74486375  0.12492611  1
  V  V7  1  0.50179572  0.37661927  0.86770135  1
  V  V8  1  0.75178890  0.13219000  0.88054745  1
  V  V9  1  0.12176062  0.74922431  0.86929808  1
  V  V10  1  -0.00293425  0.62054977  0.12450020  1
  V  V11  1  0.13069005  0.00863241  0.62853844  1
  V  V12  1  0.50458254  0.62815055  0.62048047  1
  V  V13  1  -0.00012073  0.00564061  0.00531545  1
  V  V14  1  0.62282578  0.88027242  0.75276971  1
  V  V15  1  0.74932681  0.62493521  0.87231473  1
  V  V16  1  0.74952432  0.75069091  0.00091403  1
  V  V17  1  0.74925699  0.87264939  0.62496894  1
  V  V18  1  0.49725823  0.12793204  0.12575498  1
  V  V19  1  0.36418202  0.12838670  0.75357489  1
  V  V20  1  0.25918006  0.88174176  0.62252644  1
  V  V21  1  0.00141268  0.13617789  0.62845366  1
  V  V22  1  0.35838481  0.00506680  0.87317144  1
  V  V23  1  0.62735301  0.00357569  0.12709328  1
  V  V24  1  0.62064092  0.00392879  0.60979274  1
  V  V25  1  0.91581629  0.83791730  0.55115893  1
  V  V26  1  0.12508067  0.87021123  0.24789127  1
  V  V27  1  0.50802693  0.37993886  0.36804272  1
  V  V28  1  0.24599015  0.12626033  0.38130520  1
  V  V29  1  0.36647456  0.37622756  0.00480642  1
  V  V30  1  0.62768618  0.13547426  0.00204862  1
  V  V31  1  -0.00267097  0.86927685  0.37759443  1
  V  V32  1  0.74907844  0.00173091  0.75069341  1
  V  V33  1  0.24776627  0.39313459  0.63176365  1
  V  V34  1  0.49666851  0.75363309  0.24658858  1
  V  V35  1  0.37439448  0.12699842  0.25261226  1
  V  V36  1  0.37193147  0.63053381  0.24521349  1
  V  V37  1  0.37529211  0.87588504  0.00972994  1
  V  V38  1  0.00427037  0.50700880  0.51039815  1
  V  V39  1  -0.00215644  0.24346064  0.23966475  1
  V  V40  1  0.49905859  0.62910985  0.12634910  1
  V  V41  1  0.86517455  0.62198030  0.25348345  1
  V  V42  1  0.37654732  -0.00274324  0.38872680  1
  V  V43  1  0.87908171  0.13766094  0.74462548  1
  V  V44  1  0.36998066  0.50074844  0.87061054  1
  V  V45  1  0.00040455  0.36253393  0.87014393  1
  V  V46  1  0.74997905  0.87938224  0.12844849  1
  V  V47  1  0.49914847  0.75274820  0.75050895  1
  V  V48  1  0.12416150  0.62516878  -0.00323134  1
  V  V49  1  0.62687434  0.25532684  0.86894193  1
  V  V50  1  0.25044732  0.62581935  0.87108195  1
  V  V51  1  0.37176223  0.38226610  0.49828419  1
  V  V52  1  0.50809869  0.25345451  0.25055434  1
  V  V53  1  -0.00069193  0.87223403  0.87161011  1
  V  V54  1  0.11851034  0.38267696  0.74483675  1
  V  V55  1  0.49825208  0.00473375  -0.00086410  1
  V  V56  1  0.00067446  0.00391515  0.50482476  1
  V  V57  1  0.24488119  0.25440865  0.50247074  1
  V  V58  1  0.87500482  0.00149600  0.87555195  1
  V  V59  1  0.12001235  0.24045181  0.37481054  1
  V  V60  1  0.62402385  0.75310762  0.87597326  1
  V  V61  1  0.62435882  0.62629739  0.00171775  1
  V  V62  1  0.26007371  0.75331981  0.49885081  1
  V  V63  1  0.12757955  0.74155000  0.37588410  1
  V  V64  1  0.25347323  0.74994890  0.00676979  1
  V  V65  1  0.88051560  0.63605136  0.74341639  1
  V  V66  1  0.49966919  0.50191645  -0.00028478  1
  V  V67  1  0.74651866  0.48730763  0.25356536  1
  V  V68  1  -0.00055875  0.37594984  0.37394634  1
  V  V69  1  0.62542386  0.49150910  0.12846000  1
  V  V70  1  0.49569738  0.87695758  0.38868830  1
  V  V71  1  0.86552762  0.24255565  0.11880433  1
  V  V72  1  0.49793942  0.88082129  0.87676715  1
  V  V73  1  0.12695482  0.37423403  0.24129515  1
  V  V74  1  -0.00036509  0.49771607  -0.00649219  1
  V  V75  1  0.87416961  0.49816290  0.86927701  1
  V  V76  1  0.87813778  0.36600376  0.51449681  1
  V  V77  1  0.75180766  0.74796711  0.50301686  1
  V  V78  1  0.37150722  0.62680181  0.74701368  1
  V  V79  1  0.62727577  0.62162615  0.49930847  1
  V  V80  1  0.73707727  0.49581744  0.74248206  1
  V  V81  1  0.13510382  0.88253901  0.75345850  1
  V  V82  1  0.55484324  0.44993998  0.55320801  1
  V  V83  1  0.24623154  0.00102210  0.25209733  1
  V  V84  1  0.62770081  0.88251257  0.25455192  1
  Zn  Zn85  1  0.86631353  0.11208709  0.24862679  1
  Zn  Zn86  1  0.63027099  0.23782345  0.37811007  1
  Zn  Zn87  1  0.13425681  0.24025421  0.86328481  1
  Zn  Zn88  1  0.74687947  0.36884413  0.11948261  1
  Zn  Zn89  1  0.13559841  0.61713976  0.52022739  1
  Zn  Zn90  1  0.12764182  0.49576111  0.11883267  1
  Zn  Zn91  1  0.74735655  0.37051096  0.62944453  1
  Zn  Zn92  1  0.25315998  0.87084465  0.13014781  1
  Zn  Zn93  1  0.87047631  0.36757073  -0.00208329  1
  Zn  Zn94  1  0.87705516  0.87420501  0.00019766  1
  Zn  Zn95  1  0.12085817  0.00274710  0.12839290  1
  Zn  Zn96  1  0.74992467  0.23347748  0.49868544  1
  Zn  Zn97  1  0.37833835  0.25349100  0.62540209  1
  Zn  Zn98  1  0.87078459  -0.00622736  0.36841207  1
  Zn  Zn99  1  0.37989214  0.75950294  0.61909297  1
  Zn  Zn100  1  0.24889164  0.62291982  0.37678143  1
  Zn  Zn101  1  0.74501313  0.10767683  0.37530036  1
  Zn  Zn102  1  0.50162567  0.24978713  0.74736505  1
  Zn  Zn103  1  -0.00400937  0.65369125  0.62501449  1
  Zn  Zn104  1  0.24645084  0.25333421  0.00279127  1
  Zn  Zn105  1  -0.00048960  0.74315740  0.25095495  1
  Zn  Zn106  1  0.36686528  0.25767949  0.13040436  1
  Zn  Zn107  1  0.18571988  0.18738997  0.18023498  1
  Zn  Zn108  1  0.18593269  0.19638198  0.68561096  1
  Zn  Zn109  1  0.18574289  0.68286500  0.18552542  1
  Zn  Zn110  1  0.18822107  0.69340582  0.68618164  1
  Zn  Zn111  1  0.69092427  0.18342852  0.19775330  1
  Zn  Zn112  1  0.69145981  0.18246149  0.68821395  1
  Zn  Zn113  1  0.68662371  0.68527551  0.18946827  1
  Zn  Zn114  1  0.68812195  0.68510022  0.68696538  1
  Zn  Zn115  1  0.31135978  0.31333108  0.31246290  1
  Zn  Zn116  1  0.30866888  0.30887447  0.81398845  1
  Zn  Zn117  1  0.31376421  0.81349387  0.31477511  1
  Zn  Zn118  1  0.31249508  0.81450734  0.81601308  1
  Zn  Zn119  1  0.81481774  0.30612435  0.31293509  1
  Zn  Zn120  1  0.80924295  0.31439489  0.81223616  1
  Zn  Zn121  1  0.81075463  0.81151485  0.31442382  1
  Zn  Zn122  1  0.81134289  0.81453412  0.81285279  1
  Zn  Zn123  1  0.18538381  0.43785479  0.43145749  1
  Zn  Zn124  1  0.18687487  0.43532169  0.92775600  1
  Zn  Zn125  1  0.18229990  0.93671878  0.43982744  1
  Zn  Zn126  1  0.18539702  0.93668734  0.94263961  1
  Zn  Zn127  1  0.68958719  0.40411902  0.43501642  1
  Zn  Zn128  1  0.68812690  0.43663311  0.93741353  1
  Zn  Zn129  1  0.69207702  0.93494288  0.43851620  1
  Zn  Zn130  1  0.68795601  0.94288311  0.94153079  1
  Zn  Zn131  1  0.30976444  0.06252128  0.06718161  1
  Zn  Zn132  1  0.31240570  0.06876102  0.56524160  1
  Zn  Zn133  1  0.31292215  0.56303675  0.06237005  1
  Zn  Zn134  1  0.31815268  0.56786089  0.56064647  1
  Zn  Zn135  1  0.81408307  0.06469091  0.06508045  1
  Zn  Zn136  1  0.82033144  0.05234544  0.55769975  1
  Zn  Zn137  1  0.80944851  0.55235551  0.05913051  1
  Zn  Zn138  1  0.81335964  0.56109583  0.56438101  1
  Zn  Zn139  1  0.43795877  0.44158230  0.18759662  1
  Zn  Zn140  1  0.43105332  0.43794343  0.69026270  1
  Zn  Zn141  1  0.43880424  0.94274683  0.19327304  1
  Zn  Zn142  1  0.43688313  0.94675579  0.69095911  1
  Zn  Zn143  1  0.93384251  0.43235298  0.18589503  1
  Zn  Zn144  1  0.93655656  0.44188576  0.68939799  1
  Zn  Zn145  1  0.93794699  0.92767249  0.18689195  1
  Zn  Zn146  1  0.94412057  0.94538551  0.69671371  1
  Zn  Zn147  1  0.03193150  0.04444108  0.29800986  1
  Zn  Zn148  1  0.06306921  0.06284213  0.81440606  1
  Zn  Zn149  1  0.05843843  0.55913381  0.31274415  1
  Zn  Zn150  1  0.06242028  0.56052015  0.80338162  1
  Zn  Zn151  1  0.56301484  0.06179889  0.31994788  1
  Zn  Zn152  1  0.55776883  0.06765952  0.80971124  1
  Zn  Zn153  1  0.56343374  0.56191258  0.31374544  1
  Zn  Zn154  1  0.55886337  0.56511923  0.81234533  1
  Zn  Zn155  1  0.43723108  0.19362870  0.43689518  1
  Zn  Zn156  1  0.43529143  0.19146226  0.93463924  1
  Zn  Zn157  1  0.44047625  0.68646037  0.43352625  1
  Zn  Zn158  1  0.43611847  0.69068852  0.93771564  1
  Zn  Zn159  1  0.92943910  0.18370715  0.43524561  1
  Zn  Zn160  1  0.94065838  0.18409854  0.93853741  1
  Zn  Zn161  1  0.93674421  0.68319218  0.43515961  1
  Zn  Zn162  1  0.93602917  0.68629146  0.93439084  1
  Zn  Zn163  1  0.05902153  0.31121378  0.05991566  1
  Zn  Zn164  1  0.06652828  0.31833905  0.56187798  1
  Zn  Zn165  1  0.06166424  0.81119240  0.06032525  1
  Zn  Zn166  1  0.08454418  0.80828966  0.56650818  1
  Zn  Zn167  1  0.55408814  0.31316906  0.05961213  1
  Zn  Zn168  1  0.59925382  0.27779573  0.57646360  1
  Zn  Zn169  1  0.56230261  0.81531163  0.06486506  1
  Zn  Zn170  1  0.56703018  0.81207687  0.56407797  1
  O  O171  1  0.12266248  0.11883505  0.10900286  1
  O  O172  1  0.11831698  0.11653776  0.63467800  1
  O  O173  1  0.11410699  0.62032723  0.11648441  1
  O  O174  1  0.10925190  0.64486015  0.62673722  1
  O  O175  1  0.61925660  0.12368514  0.11912486  1
  O  O176  1  0.61758639  0.11041040  0.62771519  1
  O  O177  1  0.61846812  0.62041171  0.11892881  1
  O  O178  1  0.61244944  0.62650765  0.61934358  1
  O  O179  1  0.37872717  0.38292651  0.38117948  1
  O  O180  1  0.38040445  0.38597571  0.88129694  1
  O  O181  1  0.38489052  0.88404735  0.37053269  1
  O  O182  1  0.38027389  0.88544748  0.88351107  1
  O  O183  1  0.88686596  0.37955409  0.38158001  1
  O  O184  1  0.88230414  0.38238973  0.87273125  1
  O  O185  1  0.89383309  0.87098195  0.36838243  1
  O  O186  1  0.88213727  0.88090656  0.87568194  1
  O  O187  1  0.25068484  0.00678786  0.36958511  1
  O  O188  1  0.25997179  -0.00476863  0.87780600  1
  O  O189  1  0.25839968  0.50163886  0.36331392  1
  O  O190  1  0.26268441  0.50990356  0.87807542  1
  O  O191  1  0.75847120  -0.01332607  0.37099351  1
  O  O192  1  0.75500834  0.01068898  0.87200464  1
  O  O193  1  0.76165077  0.48797262  0.37049397  1
  O  O194  1  0.75688839  0.50584628  0.86601581  1
  O  O195  1  0.24641962  0.50567840  0.13734935  1
  O  O196  1  0.25280052  0.49122619  0.61991216  1
  O  O197  1  0.24684778  0.99756582  0.14203150  1
  O  O198  1  0.24014270  0.99646797  0.61800197  1
  O  O199  1  0.74035250  0.50145983  0.13512443  1
  O  O200  1  0.75164934  0.49802195  0.63958740  1
  O  O201  1  0.74595509  0.98614845  0.11949779  1
  O  O202  1  0.73877039  0.99280754  0.63024181  1
  O  O203  1  0.00517879  0.36915770  0.25785267  1
  O  O204  1  0.00984214  0.38054550  0.75386320  1
  O  O205  1  0.01089931  0.86397062  0.25741196  1
  O  O206  1  0.01250820  0.88024924  0.76509774  1
  O  O207  1  0.48460254  0.36358883  0.25697270  1
  O  O208  1  0.49415845  0.37530674  0.76374052  1
  O  O209  1  0.50728127  0.86813311  0.25392323  1
  O  O210  1  0.50360881  0.87271332  0.75669547  1
  O  O211  1  0.49054231  0.13163509  0.24730395  1
  O  O212  1  0.49035367  0.12723596  0.73963027  1
  O  O213  1  0.49343046  0.63409915  0.24640569  1
  O  O214  1  0.49326003  0.63278480  0.74293564  1
  O  O215  1  1.01049674  0.14525010  0.24803517  1
  O  O216  1  0.98722426  0.12209825  0.74524051  1
  O  O217  1  0.98933706  0.62141108  0.23942130  1
  O  O218  1  0.98445056  0.62663014  0.75137310  1
  O  O219  1  0.37814585  0.26939943  -0.00119502  1
  O  O220  1  0.36497589  0.26710762  0.49758799  1
  O  O221  1  0.36640975  0.76301454  -0.00612964  1
  O  O222  1  0.36479640  0.74699742  0.49732742  1
  O  O223  1  0.88108846  0.24672614  0.01538318  1
  O  O224  1  0.87774188  0.26460476  0.50013358  1
  O  O225  1  0.86528586  0.74953927  0.00502678  1
  O  O226  1  0.86716924  0.75739860  0.49582921  1
  O  O227  1  0.13549382  0.26021652  0.48763217  1
  O  O228  1  0.12043375  0.23522642  1.00080944  1
  O  O229  1  0.14015130  0.74588789  0.48943286  1
  O  O230  1  0.13214419  0.74484386  0.99075713  1
  O  O231  1  0.63614917  0.30292003  0.47396410  1
  O  O232  1  0.61882531  0.23961642  0.99360542  1
  O  O233  1  0.63163588  0.74206681  0.49401954  1
  O  O234  1  0.63011334  0.74647673  0.99667885  1
  O  O235  1  0.49145190  0.24581984  0.13305961  1
  O  O236  1  0.50478342  0.24069056  0.62776761  1
  O  O237  1  0.50621531  0.74616838  0.13860779  1
  O  O238  1  0.49910076  0.74540614  0.63139629  1
  O  O239  1  0.99279999  0.25411289  0.13621810  1
  O  O240  1  1.00925078  0.23455241  0.61466249  1
  O  O241  1  0.99325319  0.73565822  0.12246311  1
  O  O242  1  0.98236786  0.77361805  0.60684229  1
  O  O243  1  0.00438838  0.25691674  0.36855168  1
  O  O244  1  0.00021497  0.26092248  0.87651158  1
  O  O245  1  0.00957961  0.75265923  0.37585228  1
  O  O246  1  0.00977013  0.75838223  0.88198854  1
  O  O247  1  0.50058819  0.26210669  0.36777137  1
  O  O248  1  0.50821742  0.26038914  0.87435124  1
  O  O249  1  0.50637098  0.75690358  0.36475780  1
  O  O250  1  0.50582288  0.75895042  0.87114238  1
  O  O251  1  0.25423687  0.13754333  0.48847342  1
  O  O252  1  0.23672523  0.11936673  0.99834786  1
  O  O253  1  0.24958664  0.63364826  0.49674617  1
  O  O254  1  0.24561100  0.63110461  0.99334406  1
  O  O255  1  0.76478613  0.12050982  0.49311579  1
  O  O256  1  0.74038786  0.11986227  0.99165198  1
  O  O257  1  0.73735129  0.63121283  0.50898809  1
  O  O258  1  0.74444516  0.62944240  0.99300892  1
  O  O259  1  0.26507953  0.38791997  0.00028959  1
  O  O260  1  0.25345810  0.37406853  0.50511253  1
  O  O261  1  0.25713230  0.86826290  0.00480941  1
  O  O262  1  0.24428465  0.86777817  0.51038367  1
  O  O263  1  0.76035934  0.39350285  0.00798797  1
  O  O264  1  0.77543403  0.38821147  0.50975872  1
  O  O265  1  0.75000590  0.86771343  0.00809335  1
  O  O266  1  0.74728299  0.86593956  0.51706173  1
  O  O267  1  0.13103998  0.49248834  0.24974559  1
  O  O268  1  0.13193847  0.48388846  0.75543434  1
  O  O269  1  0.12798007  0.98965648  0.25135579  1
  O  O270  1  0.12369726  0.99313748  0.74362244  1
  O  O271  1  0.63585146  0.51178530  0.23984331  1
  O  O272  1  0.63901188  0.50747829  0.75467505  1
  O  O273  1  0.61518004  0.98696050  0.24278895  1
  O  O274  1  0.63171060  0.99473190  0.75096080  1
  O  O275  1  0.36553259  0.01044324  0.25854542  1
  O  O276  1  0.37614284  0.01480384  0.76144192  1
  O  O277  1  0.36629679  0.50712875  0.25295545  1
  O  O278  1  0.38009519  0.51385049  0.75933413  1
  O  O279  1  0.92269692  0.00864708  0.26006641  1
  O  O280  1  0.86761337  0.00725136  0.75948697  1
  O  O281  1  0.86758749  0.50274401  0.25703825  1
  O  O282  1  0.86915749  0.50859642  0.75846883  1
  O  O283  1  0.11406516  0.36872529  0.36576111  1
  O  O284  1  0.11423150  0.37527353  0.86420972  1
  O  O285  1  0.11922778  0.86366456  0.36694046  1
  O  O286  1  0.12122504  0.86994891  0.87133523  1
  O  O287  1  0.60485427  0.40090146  0.35571863  1
  O  O288  1  0.61578690  0.36702183  0.88147105  1
  O  O289  1  0.61660560  0.86584109  0.36940649  1
  O  O290  1  0.61941470  0.87343889  0.87278072  1
  O  O291  1  0.38147080  0.12256842  0.13584351  1
  O  O292  1  0.38115455  0.12798128  0.63611544  1
  O  O293  1  0.38241118  0.62140015  0.13703872  1
  O  O294  1  0.38677262  0.63009440  0.63086476  1
  O  O295  1  0.87514776  0.13703642  0.12977475  1
  O  O296  1  0.88383657  0.11667137  0.63954895  1
  O  O297  1  0.87841621  0.62550815  0.12931910  1
  O  O298  1  0.87863966  0.62425418  0.63862778  1
  O  O299  1  0.25554710  0.24678337  0.11668414  1
  O  O300  1  0.25211717  0.26077205  0.61222809  1
  O  O301  1  0.24676371  0.74825843  0.11090389  1
  O  O302  1  0.25571689  0.76218882  0.61641541  1
  O  O303  1  0.76200494  0.25037734  0.13031439  1
  O  O304  1  0.71489139  0.26026729  0.61110935  1
  O  O305  1  0.75077812  0.75663075  0.11925546  1
  O  O306  1  0.74318274  0.75777402  0.61504837  1
  O  O307  1  0.24223875  0.24473589  0.37940302  1
  O  O308  1  0.24349989  0.26329255  0.88987057  1
  O  O309  1  0.24419928  0.74911258  0.38048832  1
  O  O310  1  0.24383177  0.74517310  0.88520357  1
  O  O311  1  0.74894181  0.24843656  0.37922807  1
  O  O312  1  0.74439972  0.24045849  0.87537586  1
  O  O313  1  0.74023826  0.75738277  0.39011606  1
  O  O314  1  0.74256816  0.74677004  0.88137811  1
  O  O315  1  0.00382623  0.10871194  -0.00063674  1
  O  O316  1  -0.00956438  0.10814103  0.50989442  1
  O  O317  1  0.00417285  0.61794878  0.00323013  1
  O  O318  1  -0.00252691  0.61431133  0.50481968  1
  O  O319  1  0.50466575  0.12346384  0.00509947  1
  O  O320  1  0.48710157  0.12864963  0.51667487  1
  O  O321  1  0.50256782  0.62257523  0.00580534  1
  O  O322  1  0.51280744  0.63072408  0.50683430  1
  O  O323  1  0.49122274  0.38961785  0.49245233  1
  O  O324  1  0.49155313  0.38497990  0.98951475  1
  O  O325  1  0.50140700  0.86589016  0.48726989  1
  O  O326  1  0.49323588  0.88162181  0.99689138  1
  O  O327  1  0.99367274  0.38415733  0.49501804  1
  O  O328  1  0.99671353  0.38292189  0.98922894  1
  O  O329  1  1.00740578  0.87311837  0.49531239  1
  O  O330  1  1.00089960  0.88215725  0.98816458  1
  O  O331  1  0.48228796  0.49693727  0.36372475  1
  O  O332  1  0.49178081  0.49765213  0.87992486  1
  O  O333  1  0.48902079  0.98728821  0.37005506  1
  O  O334  1  0.49584935  0.99685688  0.88298812  1
  O  O335  1  0.98981229  0.49261289  0.38065189  1
  O  O336  1  0.99227493  0.49487768  0.87756026  1
  O  O337  1  1.00908217  0.98616547  0.39580878  1
  O  O338  1  0.99374210  0.99285761  0.88410385  1
  O  O339  1  0.00193042  -0.01466887  0.10658423  1
  O  O340  1  0.01105867  0.00536693  0.62186468  1
  O  O341  1  -0.00403584  0.50755317  0.11399326  1
  O  O342  1  0.00048318  0.49830757  0.61008819  1
  O  O343  1  0.50580038  0.00830116  0.12007383  1
  O  O344  1  0.51384458  0.00483177  0.62859202  1
  O  O345  1  0.50731702  0.50907540  0.12192701  1
  O  O346  1  0.49516319  0.50761176  0.61710570  1
  O  O347  1  0.23924963  0.38330276  0.25449168  1
  O  O348  1  0.25002533  0.37795850  0.73455618  1
  O  O349  1  0.24358458  0.88234479  0.25143877  1
  O  O350  1  0.24174636  0.87314685  0.74481981  1
  O  O351  1  0.75443843  0.38521596  0.24432115  1
  O  O352  1  0.75120075  0.38986510  0.74811036  1
  O  O353  1  0.73855099  0.86594280  0.24065409  1
  O  O354  1  0.74274078  0.87939359  0.74360652  1
  O  O355  1  0.25285231  0.11986141  0.26104023  1
  O  O356  1  0.26515737  0.13196727  0.74357769  1
  O  O357  1  0.25730585  0.61972358  0.25172035  1
  O  O358  1  0.26501987  0.63621935  0.75333112  1
  O  O359  1  0.75272120  0.11553344  0.25614287  1
  O  O360  1  0.75951863  0.11982106  0.75728080  1
  O  O361  1  0.76118761  0.61638674  0.24737770  1
  O  O362  1  0.75651754  0.61702924  0.75396748  1
  O  O363  1  0.36759465  0.12059095  0.36983769  1
  O  O364  1  0.37800280  0.11982027  0.86393750  1
  O  O365  1  0.37487074  0.61862152  0.36298243  1
  O  O366  1  0.37270803  0.62085833  0.86717571  1
  O  O367  1  0.88140509  0.11196353  0.36738185  1
  O  O368  1  0.86898527  0.12285811  0.86821386  1
  O  O369  1  0.87827439  0.61267944  0.36541360  1
  O  O370  1  0.86827285  0.61831219  0.86673849  1
  O  O371  1  0.11603868  0.37821785  0.13696689  1
  O  O372  1  0.13644223  0.37866976  0.63211064  1
  O  O373  1  0.12686751  0.87154572  0.13797024  1
  O  O374  1  0.13711004  0.88352535  0.63735095  1
  O  O375  1  0.62102268  0.38846813  0.11991131  1
  O  O376  1  0.60637823  0.39357535  0.61680254  1
  O  O377  1  0.63161905  0.88062472  0.13298526  1
  O  O378  1  0.62912703  0.88432260  0.63336954  1
  O  O379  1  0.11766789  0.25773463  0.25437416  1
  O  O380  1  0.13215067  0.27242490  0.75057164  1
  O  O381  1  0.12611650  0.75341691  0.25693845  1
  O  O382  1  0.13047168  0.76157736  0.76487856  1
  O  O383  1  0.61043099  0.25029109  0.24897529  1
  O  O384  1  0.62394247  0.24297752  0.76645304  1
  O  O385  1  0.61980876  0.75528529  0.25832742  1
  O  O386  1  0.61917683  0.75809628  0.75570353  1
  O  O387  1  0.37767472  0.23756589  0.25304129  1
  O  O388  1  0.37903646  0.24142056  0.74861581  1
  O  O389  1  0.38348998  0.74287847  0.25359417  1
  O  O390  1  0.38491851  0.74623611  0.75135214  1
  O  O391  1  0.88812603  0.24970942  0.24154591  1
  O  O392  1  0.86809694  0.23605397  0.74923042  1
  O  O393  1  0.87458865  0.73885679  0.24456384  1
  O  O394  1  0.86714128  0.73408824  0.75499849  1
  O  O395  1  0.36777412  0.49176152  0.48837169  1
  O  O396  1  0.38141783  0.49698681  0.99279290  1
  O  O397  1  0.36703257  1.00330995  0.48716111  1
  O  O398  1  0.37857671  0.99660530  0.99430039  1
  O  O399  1  0.88658347  0.49684405  0.49486441  1
  O  O400  1  0.88654810  0.50579713  0.98494461  1
  O  O401  1  0.89797507  0.97159032  0.51375832  1
  O  O402  1  0.88435449  0.99848793  0.99510249  1
  O  O403  1  0.11503300  0.00594220  0.00125155  1
  O  O404  1  0.11206424  -0.00599382  0.51446572  1
  O  O405  1  0.11391167  0.50456978  -0.00395823  1
  O  O406  1  0.10893519  0.50445461  0.48872092  1
  O  O407  1  0.61802828  0.01105910  0.00759316  1
  O  O408  1  0.62257575  -0.00914698  0.51278568  1
  O  O409  1  0.61765563  0.50895625  0.00638565  1
  O  O410  1  0.62353317  0.50265743  0.49585786  1
  O  O411  1  0.38105558  0.38049500  0.10771490  1
  O  O412  1  0.36496959  0.37624088  0.61717790  1
  O  O413  1  0.37585145  0.88267895  0.11351675  1
  O  O414  1  0.36336183  0.88006667  0.63243586  1
  O  O415  1  0.87493143  0.35887175  0.12204830  1
  O  O416  1  0.87974295  0.37249066  0.61718035  1
  O  O417  1  0.86629098  0.86424284  0.12464966  1
  O  O418  1  0.86480982  0.87812945  0.63693413  1
  O  O419  1  0.13047087  0.13730768  0.37091493  1
  O  O420  1  0.11558332  0.12651776  0.89158819  1
  O  O421  1  0.12473619  0.63537214  0.37145552  1
  O  O422  1  0.12879194  0.63181828  0.87539054  1
  O  O423  1  0.62613358  0.12535420  0.38016674  1
  O  O424  1  0.63233032  0.13078878  0.88294594  1
  O  O425  1  0.62018194  0.63702124  0.38276541  1
  O  O426  1  0.62839696  0.63273177  0.88115921  1
