# generated using pymatgen
data_V85Zn86O256
_symmetry_space_group_name_H-M   'P 1'
_cell_length_a   16.96211660
_cell_length_b   16.98935739
_cell_length_c   16.98115877
_cell_angle_alpha   89.97203064
_cell_angle_beta   90.02615349
_cell_angle_gamma   89.96426062
_symmetry_Int_Tables_number   1
_chemical_formula_structural   V85Zn86O256
_chemical_formula_sum   'V85 Zn86 O256'
_cell_volume   4893.55121134
_cell_formula_units_Z   1
loop_
 _symmetry_equiv_pos_site_id
 _symmetry_equiv_pos_as_xyz
  1  'x, y, z'
loop_
 _atom_site_type_symbol
 _atom_site_label
 _atom_site_symmetry_multiplicity
 _atom_site_fract_x
 _atom_site_fract_y
 _atom_site_fract_z
 _atom_site_occupancy
  V  V0  1  0.12215204  0.62333503  0.50143284  1
  V  V1  1  0.50110906  0.11522587  0.12460957  1
  V  V2  1  0.74307661  0.87090445  0.62447455  1
  V  V3  1  0.13234864  -0.00078359  0.62603561  1
  V  V4  1  0.26261117  0.50412624  0.75325150  1
  V  V5  1  0.38936834  0.74952042  0.13889446  1
  V  V6  1  0.48996206  0.37923289  0.88544597  1
  V  V7  1  0.37632535  0.00287940  0.37629241  1
  V  V8  1  -0.00928313  0.74980319  0.24286115  1
  V  V9  1  0.01189317  0.49575101  -0.00330422  1
  V  V10  1  0.75236500  0.01582777  0.24186584  1
  V  V11  1  0.37677321  0.88252503  -0.00457742  1
  V  V12  1  0.87167223  0.74715577  0.62616784  1
  V  V13  1  0.74540037  0.51043741  0.24881918  1
  V  V14  1  0.00167483  0.25421826  0.75771700  1
  V  V15  1  0.12440355  0.74927518  0.37608805  1
  V  V16  1  0.50134179  0.24764398  0.24489543  1
  V  V17  1  0.24633925  0.12620108  0.37523021  1
  V  V18  1  0.74939858  0.50332377  0.74788977  1
  V  V19  1  0.88250885  0.37730165  -0.00769879  1
  V  V20  1  0.87471879  -0.00105042  0.87592509  1
  V  V21  1  0.37244033  0.24870020  0.62352409  1
  V  V22  1  0.26012657  0.62708326  0.86920668  1
  V  V23  1  0.12138049  0.87663988  0.25144577  1
  V  V24  1  0.37353588  0.37846616  0.49313339  1
  V  V25  1  0.74534789  0.74375524  0.48615414  1
  V  V26  1  0.74552465  0.86405293  0.12239750  1
  V  V27  1  0.37800211  0.87426511  0.49829536  1
  V  V28  1  0.24414968  0.36348362  0.11986054  1
  V  V29  1  -0.00617963  0.48854783  0.50125096  1
  V  V30  1  0.25144577  0.74835925  0.00544779  1
  V  V31  1  0.26955739  0.24001105  -0.00040035  1
  V  V32  1  0.62465554  0.37004520  0.25125801  1
  V  V33  1  0.24612595  0.00237954  0.25131585  1
  V  V34  1  -0.00031019  -0.00268456  0.50317576  1
  V  V35  1  0.87837150  0.25083897  0.12602137  1
  V  V36  1  0.74980470  0.12516315  0.87481395  1
  V  V37  1  0.50019728  0.74771797  0.74893586  1
  V  V38  1  0.62769019  0.75099709  0.88249649  1
  V  V39  1  0.50345587  0.12085212  0.62104158  1
  V  V40  1  0.87272618  0.25293115  0.62612984  1
  V  V41  1  -0.00186310  0.87303546  0.87387420  1
  V  V42  1  0.49797881  0.24992029  0.74981675  1
  V  V43  1  0.12387581  0.49780265  0.62781101  1
  V  V44  1  0.11959353  0.25493678  0.36477435  1
  V  V45  1  0.24595571  0.25173465  0.50120350  1
  V  V46  1  0.12920104  0.62125169  0.00921528  1
  V  V47  1  0.00260557  0.37977204  0.35075630  1
  V  V48  1  0.37352576  0.12737084  0.24523837  1
  V  V49  1  0.12600265  0.74850472  0.87464764  1
  V  V50  1  0.24899964  0.87503147  0.12664106  1
  V  V51  1  0.50651125  0.36396261  0.38075263  1
  V  V52  1  0.24869227  0.37681939  0.62743205  1
  V  V53  1  0.00004153  0.12472429  0.62876359  1
  V  V54  1  -0.00169935  0.00165073  -0.00096236  1
  V  V55  1  0.87323697  0.85944233  0.00576312  1
  V  V56  1  0.13043299  0.24521699  0.88021448  1
  V  V57  1  0.74848708  0.62361231  0.88703949  1
  V  V58  1  0.00049627  0.74828586  0.74894926  1
  V  V59  1  0.62546491  0.25315987  0.87561071  1
  V  V60  1  0.25315038  0.00072647  0.76744945  1
  V  V61  1  0.75109480  0.25297470  -0.00161876  1
  V  V62  1  0.75018162  0.37598959  0.62126682  1
  V  V63  1  0.50645267  0.62013222  0.62530555  1
  V  V64  1  0.25560642  0.61950135  0.36858432  1
  V  V65  1  0.62661255  0.11613659  0.00325284  1
  V  V66  1  -0.00182221  0.62274838  0.62557604  1
  V  V67  1  0.12365911  0.12761745  0.50141891  1
  V  V68  1  0.12338596  0.37866624  0.76367242  1
  V  V69  1  -0.00632764  0.87137801  0.37565115  1
  V  V70  1  0.25208531  0.74820124  0.50104559  1
  V  V71  1  0.86992176  0.50868186  0.37297280  1
  V  V72  1  0.12190770  0.00202661  0.12574940  1
  V  V73  1  0.74936272  -0.00179195  0.75047738  1
  V  V74  1  0.62381850  0.38183231  0.74870131  1
  V  V75  1  0.37237170  0.12074938  0.76016623  1
  V  V76  1  -0.00159052  0.13024079  0.12529908  1
  V  V77  1  0.37749084  0.74364212  0.62615803  1
  V  V78  1  0.74314326  0.38207809  0.11825530  1
  V  V79  1  -0.00794609  0.62419442  0.12280550  1
  V  V80  1  0.62730490  0.62385195  0.48703262  1
  V  V81  1  0.87021162  0.87514004  0.49961205  1
  V  V82  1  0.23708962  0.48105686  0.25124068  1
  V  V83  1  0.51208042  0.87632704  0.36606440  1
  V  V84  1  0.50249664  0.49791951  0.49997681  1
  Zn  Zn85  1  0.87535606  0.12615804  0.75356772  1
  Zn  Zn86  1  0.25264832  0.87456405  0.62652756  1
  Zn  Zn87  1  0.87339995  0.01349798  0.36379448  1
  Zn  Zn88  1  0.50055128  0.00028867  -0.00737306  1
  Zn  Zn89  1  0.51158275  0.00148696  0.49577018  1
  Zn  Zn90  1  0.63138519  0.00970431  0.62110404  1
  Zn  Zn91  1  0.41092783  0.59164191  0.23104477  1
  Zn  Zn92  1  0.70117482  0.20884908  0.43810900  1
  Zn  Zn93  1  0.13290090  0.12073937  -0.00642730  1
  Zn  Zn94  1  -0.05517396  0.19590945  0.29541687  1
  Zn  Zn95  1  0.88051229  0.50025071  0.87442995  1
  Zn  Zn96  1  0.58893783  0.50949027  0.12592257  1
  Zn  Zn97  1  0.62693089  0.87858733  0.24008551  1
  Zn  Zn98  1  0.55669406  0.71600605  0.29388275  1
  Zn  Zn99  1  0.12714549  0.87401580  0.74837059  1
  Zn  Zn100  1  0.59720285  0.61180094  0.00231664  1
  Zn  Zn101  1  0.41426893  0.53529428  0.91330926  1
  Zn  Zn102  1  0.86548433  0.63238658  0.24662234  1
  Zn  Zn103  1  0.49557707  0.88286516  0.86648914  1
  Zn  Zn104  1  0.62313243  0.87465810  0.75079219  1
  Zn  Zn105  1  0.84907988  0.34473037  0.47016818  1
  Zn  Zn106  1  0.87249629  0.62315016  0.75219747  1
  Zn  Zn107  1  0.18399021  0.19011927  0.18075725  1
  Zn  Zn108  1  0.18848513  0.18535608  0.69301364  1
  Zn  Zn109  1  0.18532516  0.68732612  0.18948971  1
  Zn  Zn110  1  0.18812400  0.68663205  0.68655185  1
  Zn  Zn111  1  0.68624591  0.19190116  0.18335311  1
  Zn  Zn112  1  0.68826445  0.19094247  0.68867942  1
  Zn  Zn113  1  0.68030223  0.69175401  0.16898967  1
  Zn  Zn114  1  0.68253999  0.68492286  0.68720500  1
  Zn  Zn115  1  0.31354275  0.31007456  0.30807638  1
  Zn  Zn116  1  0.30948523  0.31202729  0.81310963  1
  Zn  Zn117  1  0.30972159  0.81540108  0.31601269  1
  Zn  Zn118  1  0.31317446  0.81252442  0.80922140  1
  Zn  Zn119  1  0.81113751  0.32178065  0.30438961  1
  Zn  Zn120  1  0.81311029  0.31569304  0.81051761  1
  Zn  Zn121  1  0.80533170  0.81697541  0.30861452  1
  Zn  Zn122  1  0.81005196  0.81005117  0.81420352  1
  Zn  Zn123  1  0.18363661  0.43692823  0.43583174  1
  Zn  Zn124  1  0.24283293  0.46849317  0.97305009  1
  Zn  Zn125  1  0.18859044  0.93598009  0.44009500  1
  Zn  Zn126  1  0.18470163  0.93196831  0.93977720  1
  Zn  Zn127  1  0.68371690  0.43956504  0.43623663  1
  Zn  Zn128  1  0.68020367  0.44519998  0.93951288  1
  Zn  Zn129  1  0.69143852  1.03978874  0.43262676  1
  Zn  Zn130  1  0.68886272  0.93326489  0.93911421  1
  Zn  Zn131  1  0.31118796  0.06591699  0.06402157  1
  Zn  Zn132  1  0.31626532  0.06474722  0.56211922  1
  Zn  Zn133  1  0.41430100  0.55901628  0.06723524  1
  Zn  Zn134  1  0.31394639  0.56246246  0.56083541  1
  Zn  Zn135  1  0.81308260  0.06139760  0.06592243  1
  Zn  Zn136  1  0.81497571  0.06035850  0.56805955  1
  Zn  Zn137  1  0.81470887  0.55952305  0.06128960  1
  Zn  Zn138  1  0.81039439  0.56001254  0.56234832  1
  Zn  Zn139  1  0.41553479  0.42377891  0.19705327  1
  Zn  Zn140  1  0.43911717  0.43709232  0.68662798  1
  Zn  Zn141  1  0.43524921  0.93799991  0.18593410  1
  Zn  Zn142  1  0.43489638  0.93508965  0.68755628  1
  Zn  Zn143  1  0.93218715  0.44637276  0.17679955  1
  Zn  Zn144  1  0.93529576  0.43621359  0.69106610  1
  Zn  Zn145  1  0.93105136  0.93926952  0.18434025  1
  Zn  Zn146  1  0.93582350  0.93521352  0.68854166  1
  Zn  Zn147  1  0.05170034  0.06384844  0.31894082  1
  Zn  Zn148  1  0.06572873  0.06291921  0.81179781  1
  Zn  Zn149  1  0.06023327  0.56503053  0.31137259  1
  Zn  Zn150  1  0.06695840  0.56414632  0.81573574  1
  Zn  Zn151  1  0.57069956  0.05802626  0.30501149  1
  Zn  Zn152  1  0.56207248  0.06060947  0.81140739  1
  Zn  Zn153  1  0.56098810  0.54436247  0.31904796  1
  Zn  Zn154  1  0.56595499  0.56543656  0.80946606  1
  Zn  Zn155  1  0.54285735  0.18165841  0.43814517  1
  Zn  Zn156  1  0.44464470  0.18523968  0.93483390  1
  Zn  Zn157  1  0.44347416  0.68172399  0.42407699  1
  Zn  Zn158  1  0.43726161  0.70470188  0.93948664  1
  Zn  Zn159  1  0.86309531  0.17257653  0.44356957  1
  Zn  Zn160  1  0.93913844  0.18769575  0.93916173  1
  Zn  Zn161  1  0.93566049  0.68523671  0.43855728  1
  Zn  Zn162  1  0.93961846  0.68041913  0.93458999  1
  Zn  Zn163  1  0.06746719  0.31572577  0.06475650  1
  Zn  Zn164  1  0.05988825  0.31155011  0.56569237  1
  Zn  Zn165  1  0.06088250  0.81242386  0.06252789  1
  Zn  Zn166  1  0.06258740  0.81264568  0.56436522  1
  Zn  Zn167  1  0.55949522  0.31155728  0.06348314  1
  Zn  Zn168  1  0.56493974  0.31234793  0.56841730  1
  Zn  Zn169  1  0.56172873  0.81107298  0.06256561  1
  Zn  Zn170  1  0.56271289  0.81163326  0.55376114  1
  O  O171  1  0.11889875  0.11717566  0.11602144  1
  O  O172  1  0.12014793  0.11771694  0.62420778  1
  O  O173  1  0.11826909  0.63432702  0.11231432  1
  O  O174  1  0.11784096  0.61860713  0.62037293  1
  O  O175  1  0.61497749  0.13445804  0.11246695  1
  O  O176  1  0.60710334  0.12986909  0.63301638  1
  O  O177  1  0.61591611  0.62157936  0.11571386  1
  O  O178  1  0.61014594  0.63056857  0.61338860  1
  O  O179  1  0.38074987  0.36342999  0.39102110  1
  O  O180  1  0.39151531  0.36926050  0.86818043  1
  O  O181  1  0.37421004  0.88728791  0.38050402  1
  O  O182  1  0.37452485  0.86508566  0.89252302  1
  O  O183  1  0.89047481  0.38940299  0.37009259  1
  O  O184  1  0.87283512  0.37528021  0.88882427  1
  O  O185  1  0.88146614  0.87321493  0.38417935  1
  O  O186  1  0.87830942  0.87946429  0.88272135  1
  O  O187  1  0.25101473  0.00583994  0.36995510  1
  O  O188  1  0.24442694  -0.00260331  0.86537497  1
  O  O189  1  0.23676248  0.51715210  0.37460769  1
  O  O190  1  0.24330320  0.51605693  0.86484969  1
  O  O191  1  0.75957871  -0.00250583  0.35130265  1
  O  O192  1  0.75385277  0.00347003  0.86829754  1
  O  O193  1  0.75888577  0.49173220  0.36270664  1
  O  O194  1  0.74918052  0.50787870  0.86534715  1
  O  O195  1  0.23910441  0.46706406  0.14172332  1
  O  O196  1  0.24336299  0.49751526  0.63229117  1
  O  O197  1  0.24104515  0.99595853  0.13093128  1
  O  O198  1  0.23919895  1.00014334  0.62426685  1
  O  O199  1  0.75760581  0.48686116  0.13153392  1
  O  O200  1  0.75614817  0.49179601  0.63959438  1
  O  O201  1  0.75994369  0.98899040  0.13281185  1
  O  O202  1  0.75419219  0.98897901  0.63431242  1
  O  O203  1  0.00320967  0.39039800  0.25331459  1
  O  O204  1  0.01071530  0.36543837  0.74501052  1
  O  O205  1  0.00206565  0.86943303  0.25716231  1
  O  O206  1  0.00162480  0.86705991  0.75666217  1
  O  O207  1  0.50300101  0.36496496  0.25894890  1
  O  O208  1  0.50827717  0.36689218  0.75000842  1
  O  O209  1  0.50360143  0.88490015  0.26063118  1
  O  O210  1  0.50301248  0.86354502  0.74659643  1
  O  O211  1  0.49588762  0.12756701  0.24269953  1
  O  O212  1  0.49176477  0.13082318  0.74219958  1
  O  O213  1  0.48779523  0.63021965  0.30289543  1
  O  O214  1  0.50403545  0.63628582  0.73943152  1
  O  O215  1  1.00686927  0.12211121  0.22934866  1
  O  O216  1  1.00081983  0.13015600  0.74258313  1
  O  O217  1  0.99994925  0.63392401  0.23948438  1
  O  O218  1  0.99939831  0.63114819  0.74386700  1
  O  O219  1  0.36740813  0.24665285  -0.00670061  1
  O  O220  1  0.36395246  0.25884904  0.51644339  1
  O  O221  1  0.36637301  0.76059315  0.01462737  1
  O  O222  1  0.37126309  0.75666844  0.50275539  1
  O  O223  1  0.87060142  0.25803939  0.00388005  1
  O  O224  1  0.89542677  0.25234252  0.52401792  1
  O  O225  1  0.88124318  0.76235466  -0.00746366  1
  O  O226  1  0.87051776  0.75143654  0.51085351  1
  O  O227  1  0.12647509  0.24568394  0.49523091  1
  O  O228  1  0.12258112  0.24839062  0.98449278  1
  O  O229  1  0.12937415  0.74552262  0.49486724  1
  O  O230  1  0.13185921  0.74857037  0.99270616  1
  O  O231  1  0.61545966  0.25116970  0.49292812  1
  O  O232  1  0.62994497  0.24696846  0.98880762  1
  O  O233  1  0.63645347  0.74136707  0.49951157  1
  O  O234  1  0.61333459  0.74438921  0.98337254  1
  O  O235  1  0.49964745  0.24355991  0.13909449  1
  O  O236  1  0.48959678  0.24194139  0.63117903  1
  O  O237  1  0.48899417  0.75689810  0.13183212  1
  O  O238  1  0.49499525  0.74474870  0.62786527  1
  O  O239  1  0.99159196  0.24182042  0.11477744  1
  O  O240  1  1.00023828  0.24151398  0.63979702  1
  O  O241  1  1.00481328  0.74311195  0.13445941  1
  O  O242  1  0.99242619  0.74465960  0.62930079  1
  O  O243  1  0.00300714  0.27160778  0.36502708  1
  O  O244  1  0.00918115  0.24551414  0.86400767  1
  O  O245  1  0.00525529  0.75695442  0.37252444  1
  O  O246  1  0.00702314  0.75151140  0.86837137  1
  O  O247  1  0.49779994  0.25796770  0.36315157  1
  O  O248  1  0.50882580  0.25843119  0.86851829  1
  O  O249  1  0.49550916  0.77272070  0.37832127  1
  O  O250  1  0.50875418  0.75592830  0.86405388  1
  O  O251  1  0.24314804  0.13119278  0.49641648  1
  O  O252  1  0.25140225  0.13495038  0.99404801  1
  O  O253  1  0.23893039  0.62955307  0.49623231  1
  O  O254  1  0.24227127  0.64114381  0.98959841  1
  O  O255  1  0.76776137  0.11924911  0.48484131  1
  O  O256  1  0.74450616  0.13255616  0.99537002  1
  O  O257  1  0.74026429  0.63335993  0.50831479  1
  O  O258  1  0.75176351  0.61916608  0.98732745  1
  O  O259  1  0.24779268  0.35854340  0.01340199  1
  O  O260  1  0.25516311  0.37315716  0.50551596  1
  O  O261  1  0.25584994  0.86625004  0.00442364  1
  O  O262  1  0.26074897  0.86696758  0.50049595  1
  O  O263  1  0.75581515  0.37221113  0.00364439  1
  O  O264  1  0.74934688  0.38595925  0.51677826  1
  O  O265  1  0.76661495  0.88128924  0.00732234  1
  O  O266  1  0.76286565  0.86108437  0.50910956  1
  O  O267  1  0.14143552  0.51634645  0.25112069  1
  O  O268  1  0.12743791  0.49256944  0.74586064  1
  O  O269  1  0.12532737  0.99506609  0.24728366  1
  O  O270  1  0.13710621  0.99894433  0.74416315  1
  O  O271  1  0.62878598  0.48735899  0.24542063  1
  O  O272  1  0.63373240  0.49081979  0.75189807  1
  O  O273  1  0.64431859  0.99473186  0.24474423  1
  O  O274  1  0.63845222  0.99711918  0.74360630  1
  O  O275  1  0.36694946  0.00628217  0.25635653  1
  O  O276  1  0.36028909  0.00488051  0.74580563  1
  O  O277  1  0.34359126  0.50118322  0.25540124  1
  O  O278  1  0.36212723  0.49804982  0.74674776  1
  O  O279  1  0.86456120  0.00034458  0.24824462  1
  O  O280  1  0.86574622  -0.00048550  0.75713794  1
  O  O281  1  0.86408969  0.50318925  0.25427820  1
  O  O282  1  0.86662911  0.50070644  0.75648084  1
  O  O283  1  0.10669303  0.36929054  0.38286865  1
  O  O284  1  0.12530835  0.36188866  0.86341261  1
  O  O285  1  0.11893809  0.86342814  0.37497518  1
  O  O286  1  0.11735035  0.86265092  0.87447659  1
  O  O287  1  0.61831870  0.37514897  0.36490116  1
  O  O288  1  0.61905164  0.36879373  0.86639973  1
  O  O289  1  0.60859415  0.88249703  0.37478267  1
  O  O290  1  0.62791163  0.86136937  0.87329667  1
  O  O291  1  0.38371307  0.12091138  0.13562914  1
  O  O292  1  0.38072925  0.13214142  0.63366902  1
  O  O293  1  0.37085343  0.64643860  0.13438745  1
  O  O294  1  0.38639672  0.63800765  0.61391404  1
  O  O295  1  0.88477185  0.13900827  0.11264193  1
  O  O296  1  0.88466449  0.13083447  0.63231636  1
  O  O297  1  0.88787299  0.62436192  0.12471443  1
  O  O298  1  0.88008675  0.63216551  0.62717544  1
  O  O299  1  0.25170156  0.24103575  0.10384959  1
  O  O300  1  0.25255971  0.25546342  0.62298468  1
  O  O301  1  0.24640001  0.75843706  0.11763696  1
  O  O302  1  0.25834263  0.74952898  0.61888429  1
  O  O303  1  0.75614132  0.26236887  0.11620082  1
  O  O304  1  0.76134659  0.25933938  0.63228921  1
  O  O305  1  0.75775223  0.76545216  0.11916589  1
  O  O306  1  0.75757396  0.75427116  0.62394355  1
  O  O307  1  0.24155521  0.24403373  0.38363715  1
  O  O308  1  0.23913689  0.25535271  0.88627980  1
  O  O309  1  0.24094031  0.74503271  0.38212198  1
  O  O310  1  0.24231262  0.74830544  0.87893867  1
  O  O311  1  0.79396945  0.26082732  0.39698067  1
  O  O312  1  0.74414168  0.24649090  0.87808357  1
  O  O313  1  0.76048748  0.74818148  0.38868124  1
  O  O314  1  0.73560462  0.73966793  0.86842135  1
  O  O315  1  0.00391040  0.11490047  0.00447427  1
  O  O316  1  0.00831054  0.11612573  0.52014337  1
  O  O317  1  0.01031276  0.62128087  0.00571317  1
  O  O318  1  0.00431382  0.61644504  0.50615185  1
  O  O319  1  0.50868992  0.12518028  0.00728814  1
  O  O320  1  0.48660427  0.12022329  0.51809893  1
  O  O321  1  0.47989214  0.61114070  -0.01613201  1
  O  O322  1  0.50539681  0.61545403  0.50074463  1
  O  O323  1  0.49326072  0.37814153  0.49980533  1
  O  O324  1  0.50040993  0.37006939  0.98429657  1
  O  O325  1  0.48844709  0.87903185  0.49272794  1
  O  O326  1  0.48448087  0.87689218  1.00236051  1
  O  O327  1  0.99623771  0.38616345  0.50269893  1
  O  O328  1  0.99674798  0.38467592  1.00630834  1
  O  O329  1  0.98911311  0.87333379  0.49552756  1
  O  O330  1  0.99144538  0.88058144  0.99411074  1
  O  O331  1  0.49713944  0.47595064  0.38773655  1
  O  O332  1  0.50085742  0.48348781  0.86155174  1
  O  O333  1  0.48980058  0.99434289  0.37581029  1
  O  O334  1  0.50382952  0.99482909  0.87819230  1
  O  O335  1  0.99742566  0.49320709  0.38160149  1
  O  O336  1  1.00148044  0.50802476  0.89147075  1
  O  O337  1  1.00658345  0.97911856  0.38478643  1
  O  O338  1  0.99741326  0.99430664  0.87993359  1
  O  O339  1  0.00321513  0.00433091  0.11527533  1
  O  O340  1  0.00981967  0.00418260  0.62583292  1
  O  O341  1  0.00232133  0.51137075  0.11084101  1
  O  O342  1  0.00151450  0.50355514  0.61936362  1
  O  O343  1  0.49797686  0.01205020  0.11950312  1
  O  O344  1  0.49829206  0.01437619  0.62966140  1
  O  O345  1  0.47312156  0.51025176  0.15398420  1
  O  O346  1  0.49551693  0.51020648  0.61774038  1
  O  O347  1  0.23149434  0.38653697  0.28678716  1
  O  O348  1  0.24251109  0.38386335  0.74708148  1
  O  O349  1  0.23975362  0.88244728  0.24760777  1
  O  O350  1  0.24970393  0.88833828  0.74714831  1
  O  O351  1  0.73984656  0.38075192  0.23902394  1
  O  O352  1  0.74263867  0.38269975  0.74647854  1
  O  O353  1  0.75565905  0.87885262  0.22990862  1
  O  O354  1  0.75072105  0.88087257  0.74171605  1
  O  O355  1  0.25547837  0.12114588  0.25220960  1
  O  O356  1  0.25676861  0.10928807  0.74731681  1
  O  O357  1  0.24768343  0.63301093  0.26713685  1
  O  O358  1  0.24279214  0.61649427  0.75797562  1
  O  O359  1  0.75123675  0.11636920  0.23690335  1
  O  O360  1  0.75146155  0.11647878  0.75610150  1
  O  O361  1  0.74755439  0.61205823  0.23896511  1
  O  O362  1  0.74790307  0.61586576  0.75421773  1
  O  O363  1  0.36349807  0.10973247  0.36801511  1
  O  O364  1  0.37948478  0.13076244  0.85883714  1
  O  O365  1  0.35233236  0.62398065  0.38783363  1
  O  O366  1  0.36190691  0.63701772  0.87091182  1
  O  O367  1  0.92727920  0.11516873  0.37292233  1
  O  O368  1  0.86832175  0.11770036  0.87535742  1
  O  O369  1  0.88253074  0.61219305  0.36826779  1
  O  O370  1  0.86347701  0.62448475  0.87104180  1
  O  O371  1  0.14630414  0.34187272  0.14212590  1
  O  O372  1  0.13139935  0.37957902  0.63305214  1
  O  O373  1  0.12813640  0.88251777  0.13033887  1
  O  O374  1  0.12784431  0.88445837  0.62657095  1
  O  O375  1  0.63056447  0.37511297  0.13122330  1
  O  O376  1  0.63461273  0.36781927  0.64099413  1
  O  O377  1  0.64196324  0.87455519  0.11351349  1
  O  O378  1  0.63836840  0.86895866  0.62494101  1
  O  O379  1  0.12838837  0.23985561  0.26723350  1
  O  O380  1  0.12235641  0.25510970  0.75921426  1
  O  O381  1  0.11517903  0.75683532  0.25984204  1
  O  O382  1  0.12043009  0.75168160  0.75717703  1
  O  O383  1  0.61862560  0.26139598  0.24710393  1
  O  O384  1  0.62146056  0.25575770  0.76188632  1
  O  O385  1  0.64011310  0.76372395  0.24713769  1
  O  O386  1  0.61655380  0.75078181  0.75811182  1
  O  O387  1  0.38348588  0.23060295  0.26277369  1
  O  O388  1  0.37420730  0.24362318  0.74050339  1
  O  O389  1  0.36995467  0.76259953  0.23689225  1
  O  O390  1  0.38327569  0.75519413  0.73667398  1
  O  O391  1  0.87439227  0.25786595  0.23117199  1
  O  O392  1  0.88565873  0.24977840  0.74613243  1
  O  O393  1  0.88777408  0.74942050  0.25770366  1
  O  O394  1  0.87964803  0.74955498  0.73910919  1
  O  O395  1  0.38468498  0.48757561  0.50783776  1
  O  O396  1  0.34837327  0.50100688  0.99700703  1
  O  O397  1  0.37397281  0.99180247  0.49217289  1
  O  O398  1  0.36933458  0.98421406  1.00459696  1
  O  O399  1  0.88095773  0.50158752  0.49009704  1
  O  O400  1  0.88741473  0.49222781  0.99711063  1
  O  O401  1  0.88386364  0.98721445  0.50162123  1
  O  O402  1  0.88663130  0.99518133  0.99416507  1
  O  O403  1  0.11343719  -0.00255480  0.00373482  1
  O  O404  1  0.11962767  0.00387772  0.50818369  1
  O  O405  1  0.12916082  0.51301996  -0.00311772  1
  O  O406  1  0.11492154  0.50371045  0.50809304  1
  O  O407  1  0.62868903  0.01405224  -0.00413751  1
  O  O408  1  0.62373499  -0.00335066  0.51043818  1
  O  O409  1  0.62047976  0.49771448  0.01460434  1
  O  O410  1  0.61146214  0.50548143  0.49959257  1
  O  O411  1  0.33606568  0.34771339  0.16888168  1
  O  O412  1  0.36773055  0.36671875  0.62206518  1
  O  O413  1  0.36643834  0.87010647  0.11811745  1
  O  O414  1  0.37462719  0.86542572  0.61404094  1
  O  O415  1  0.86839670  0.37037040  0.11155892  1
  O  O416  1  0.86434263  0.36638066  0.63205624  1
  O  O417  1  0.87577295  0.87255938  0.10871878  1
  O  O418  1  0.86882468  0.86615753  0.61909407  1
  O  O419  1  0.12451831  0.13169091  0.38437529  1
  O  O420  1  0.12520921  0.14069699  0.87307610  1
  O  O421  1  0.12456680  0.63790327  0.38211591  1
  O  O422  1  0.12947644  0.63814858  0.88327326  1
  O  O423  1  0.62459562  0.12374254  0.38099021  1
  O  O424  1  0.63038628  0.13527913  0.87994141  1
  O  O425  1  0.62608898  0.61944764  0.38674639  1
  O  O426  1  0.63028068  0.63310475  0.87864126  1
