# generated using pymatgen
data_V85Zn86O256
_symmetry_space_group_name_H-M   'P 1'
_cell_length_a   16.91173848
_cell_length_b   16.91134416
_cell_length_c   16.91809456
_cell_angle_alpha   89.98048339
_cell_angle_beta   90.01941089
_cell_angle_gamma   90.06309182
_symmetry_Int_Tables_number   1
_chemical_formula_structural   V85Zn86O256
_chemical_formula_sum   'V85 Zn86 O256'
_cell_volume   4838.57543926
_cell_formula_units_Z   1
loop_
 _symmetry_equiv_pos_site_id
 _symmetry_equiv_pos_as_xyz
  1  'x, y, z'
loop_
 _atom_site_type_symbol
 _atom_site_label
 _atom_site_symmetry_multiplicity
 _atom_site_fract_x
 _atom_site_fract_y
 _atom_site_fract_z
 _atom_site_occupancy
  V  V0  1  0.00058469  0.50051767  0.49963315  1
  V  V1  1  0.49349011  0.00279034  0.49201322  1
  V  V2  1  0.00173763  0.87409361  0.37333856  1
  V  V3  1  0.74807905  0.61872679  0.86902167  1
  V  V4  1  0.75000637  0.87501049  0.63056155  1
  V  V5  1  0.49961176  0.25429986  0.75292944  1
  V  V6  1  0.61658308  0.62475035  0.50056920  1
  V  V7  1  0.62319411  0.49671555  0.14292966  1
  V  V8  1  0.00074885  0.12416180  0.12492163  1
  V  V9  1  0.62523841  0.50418086  0.63126643  1
  V  V10  1  0.62041083  0.61075754  -0.00279880  1
  V  V11  1  0.62811658  0.25777892  0.37380548  1
  V  V12  1  0.12674318  0.12050961  0.00620655  1
  V  V13  1  0.24869711  0.74073432  0.00621902  1
  V  V14  1  0.25301577  0.50628391  0.74777096  1
  V  V15  1  0.63140874  0.13373403  0.50383244  1
  V  V16  1  0.87375156  0.50061147  0.37180502  1
  V  V17  1  0.00156690  0.62370932  0.62502948  1
  V  V18  1  0.62277199  0.75101626  0.87384935  1
  V  V19  1  0.24344385  0.86334249  0.62569297  1
  V  V20  1  0.13206854  0.37429588  0.74290247  1
  V  V21  1  -0.00386049  0.25017095  0.74716622  1
  V  V22  1  0.62230029  0.24669058  0.88304007  1
  V  V23  1  0.12411290  0.25212180  0.87623356  1
  V  V24  1  0.24561468  0.24624239  0.50469103  1
  V  V25  1  0.00464570  0.75324083  0.24910939  1
  V  V26  1  0.37256369  0.37557928  0.50342482  1
  V  V27  1  0.74664155  0.62215990  0.37222355  1
  V  V28  1  0.62901175  0.00926824  0.12097810  1
  V  V29  1  0.23217767  -0.00338541  0.74252524  1
  V  V30  1  0.87628307  0.12620462  0.24976894  1
  V  V31  1  0.75266874  0.25711474  0.00050409  1
  V  V32  1  0.00692848  0.62520439  0.11762275  1
  V  V33  1  0.62153031  0.75511587  0.37281537  1
  V  V34  1  0.01007481  0.87519272  0.87338089  1
  V  V35  1  0.00625351  0.75368608  0.74999853  1
  V  V36  1  0.37343450  0.87319985  0.01172073  1
  V  V37  1  0.12923230  0.73339572  0.87948078  1
  V  V38  1  0.50119571  0.25929466  0.24972029  1
  V  V39  1  0.38290456  0.37727332  0.00087821  1
  V  V40  1  0.87629433  0.74944033  0.62527801  1
  V  V41  1  0.87035393  0.62110205  0.24758587  1
  V  V42  1  0.38328578  0.63805940  0.73838274  1
  V  V43  1  0.01055938  0.37825773  0.37167284  1
  V  V44  1  0.49938048  0.12894569  0.62674395  1
  V  V45  1  0.50403291  0.00793504  -0.00154814  1
  V  V46  1  0.12830790  0.24165741  0.37724021  1
  V  V47  1  0.87490908  -0.00012401  0.37619052  1
  V  V48  1  0.01050758  0.12005682  0.62210399  1
  V  V49  1  0.25134592  0.25294850  0.00302836  1
  V  V50  1  0.37997753  0.11447881  0.25492280  1
  V  V51  1  0.56881660  0.82187058  0.70050877  1
  V  V52  1  0.87300879  0.49635130  0.88154246  1
  V  V53  1  0.23096445  0.88107325  0.12765960  1
  V  V54  1  0.87385971  0.74803682  0.12445258  1
  V  V55  1  0.75395164  0.13093800  0.38030901  1
  V  V56  1  0.24902915  0.62557790  0.37178671  1
  V  V57  1  0.74957956  0.38041892  0.13781593  1
  V  V58  1  0.74620313  0.12306177  0.88211862  1
  V  V59  1  0.00250763  -0.00256089  0.00646515  1
  V  V60  1  0.37250198  -0.00324839  0.87183636  1
  V  V61  1  0.62637540  0.87681020  0.24746328  1
  V  V62  1  -0.00271507  0.37475051  0.88093842  1
  V  V63  1  0.49940138  0.86881025  0.87569989  1
  V  V64  1  0.63455981  0.37754916  0.75217094  1
  V  V65  1  0.24221626  0.48903672  0.25268983  1
  V  V66  1  0.12598960  0.49497352  0.12007926  1
  V  V67  1  0.49530165  0.62901701  0.12162375  1
  V  V68  1  0.74655268  -0.00416678  0.75308602  1
  V  V69  1  0.23448924  -0.00213736  0.25276999  1
  V  V70  1  0.62161931  0.00285162  0.63096717  1
  V  V71  1  0.12726596  0.62805989  0.50220649  1
  V  V72  1  0.12944128  0.75373994  0.37307123  1
  V  V73  1  0.87502989  0.87609673  0.50117216  1
  V  V74  1  0.74834234  0.74790819  -0.00057829  1
  V  V75  1  0.36972198  0.25754856  0.62866127  1
  V  V76  1  0.87708626  0.25883501  0.12058831  1
  V  V77  1  0.87565247  -0.00287736  0.87469520  1
  V  V78  1  0.37585856  0.50974954  0.87877796  1
  V  V79  1  0.87380008  0.61642432  0.74713169  1
  V  V80  1  0.00927595  0.25492745  0.24805035  1
  V  V81  1  0.01749025  0.00061419  0.50273404  1
  V  V82  1  0.37639633  0.49713661  0.37200567  1
  V  V83  1  0.24904947  0.12177087  0.87740226  1
  V  V84  1  0.87054949  0.36925410  0.50004149  1
  Zn  Zn85  1  0.13107937  0.49423291  0.62144320  1
  Zn  Zn86  1  0.50217288  0.12921190  0.12259551  1
  Zn  Zn87  1  0.87481194  0.87190518  -0.00035148  1
  Zn  Zn88  1  0.74938140  0.37109455  0.62382223  1
  Zn  Zn89  1  0.37127607  0.12745450  0.75201644  1
  Zn  Zn90  1  0.74313995  0.75246063  0.50141145  1
  Zn  Zn91  1  0.00550529  0.50266309  -0.00388490  1
  Zn  Zn92  1  0.49652842  0.50200901  0.50472605  1
  Zn  Zn93  1  0.25327962  0.11618196  0.38255093  1
  Zn  Zn94  1  0.50275625  0.38205549  0.88006393  1
  Zn  Zn95  1  0.50660072  0.37913350  0.37488130  1
  Zn  Zn96  1  0.36728001  0.87995631  0.49553989  1
  Zn  Zn97  1  0.48807003  0.75624371  0.24147195  1
  Zn  Zn98  1  0.28143523  0.74033072  0.51200291  1
  Zn  Zn99  1  0.86688658  0.23921760  0.61592236  1
  Zn  Zn100  1  0.37074134  0.62807919  0.24147376  1
  Zn  Zn101  1  0.37678243  0.25055403  0.12745155  1
  Zn  Zn102  1  0.75180803  0.00077858  0.24815758  1
  Zn  Zn103  1  0.48759307  0.88589942  0.36591174  1
  Zn  Zn104  1  0.87358466  0.12375067  0.74727679  1
  Zn  Zn105  1  0.75070597  0.87623706  0.12318040  1
  Zn  Zn106  1  0.24853782  0.37166083  0.12978436  1
  Zn  Zn107  1  0.18981408  0.18296368  0.18886788  1
  Zn  Zn108  1  0.18828661  0.18686446  0.68924253  1
  Zn  Zn109  1  0.18917261  0.68643566  0.18626015  1
  Zn  Zn110  1  0.18916367  0.68455352  0.69337787  1
  Zn  Zn111  1  0.68903709  0.18964354  0.19072581  1
  Zn  Zn112  1  0.69169617  0.19043585  0.69270583  1
  Zn  Zn113  1  0.68361449  0.68647959  0.18649734  1
  Zn  Zn114  1  0.69154424  0.68212217  0.68410932  1
  Zn  Zn115  1  0.31597712  0.30844846  0.31448408  1
  Zn  Zn116  1  0.31192755  0.31764246  0.81739890  1
  Zn  Zn117  1  0.31877389  0.81489637  0.31251530  1
  Zn  Zn118  1  0.30630131  0.81434951  0.81412025  1
  Zn  Zn119  1  0.81841480  0.31093515  0.31412608  1
  Zn  Zn120  1  0.81323773  0.31122686  0.81220242  1
  Zn  Zn121  1  0.80950231  0.80993503  0.31156695  1
  Zn  Zn122  1  0.81574319  0.80953437  0.81274994  1
  Zn  Zn123  1  0.18994911  0.43391761  0.44067565  1
  Zn  Zn124  1  0.19089538  0.43925146  0.93464867  1
  Zn  Zn125  1  0.19471535  0.92991334  0.43644463  1
  Zn  Zn126  1  0.18726718  0.93462483  0.93845706  1
  Zn  Zn127  1  0.68873079  0.44286405  0.43882807  1
  Zn  Zn128  1  0.69104001  0.43364817  0.93843605  1
  Zn  Zn129  1  0.68492860  0.94164715  0.44019738  1
  Zn  Zn130  1  0.68395437  0.93334116  0.93759072  1
  Zn  Zn131  1  0.31647826  0.06086078  0.06782657  1
  Zn  Zn132  1  0.31171265  0.06800922  0.56816808  1
  Zn  Zn133  1  0.31022083  0.55738551  0.06153714  1
  Zn  Zn134  1  0.31290866  0.56013382  0.56618341  1
  Zn  Zn135  1  0.81376522  0.06577637  0.06028610  1
  Zn  Zn136  1  0.81516164  0.06150531  0.56442702  1
  Zn  Zn137  1  0.80981374  0.56071431  0.06106817  1
  Zn  Zn138  1  0.80569650  0.55878815  0.55942598  1
  Zn  Zn139  1  0.43638531  0.44062369  0.18551972  1
  Zn  Zn140  1  0.44142677  0.44108970  0.68988944  1
  Zn  Zn141  1  0.44043337  0.94108594  0.18614534  1
  Zn  Zn142  1  0.42578903  0.94110488  0.68196203  1
  Zn  Zn143  1  0.93974280  0.43790079  0.18655909  1
  Zn  Zn144  1  0.94041025  0.43613926  0.68730856  1
  Zn  Zn145  1  0.93599168  0.93443882  0.18722740  1
  Zn  Zn146  1  0.94134260  0.93913509  0.68801907  1
  Zn  Zn147  1  0.06182353  0.06265115  0.31440961  1
  Zn  Zn148  1  0.06047853  0.06640609  0.81567324  1
  Zn  Zn149  1  0.06327801  0.56510281  0.30692755  1
  Zn  Zn150  1  0.06263262  0.56019598  0.81008899  1
  Zn  Zn151  1  0.56861225  0.06900261  0.31010138  1
  Zn  Zn152  1  0.56045322  0.06435813  0.81382590  1
  Zn  Zn153  1  0.55821743  0.56599587  0.31089707  1
  Zn  Zn154  1  0.55613009  0.56381984  0.80860207  1
  Zn  Zn155  1  0.43850500  0.18790634  0.43652009  1
  Zn  Zn156  1  0.43426745  0.18847783  0.93720650  1
  Zn  Zn157  1  0.43630855  0.68609848  0.42366895  1
  Zn  Zn158  1  0.43358171  0.68711559  0.93864317  1
  Zn  Zn159  1  0.94449941  0.18677467  0.43836455  1
  Zn  Zn160  1  0.93517612  0.18586243  0.93698935  1
  Zn  Zn161  1  0.93739737  0.68842321  0.43683249  1
  Zn  Zn162  1  0.93630695  0.68580411  0.93556542  1
  Zn  Zn163  1  0.06571718  0.31523140  0.06219837  1
  Zn  Zn164  1  0.05914591  0.30942176  0.56156563  1
  Zn  Zn165  1  0.06272303  0.81001817  0.05907650  1
  Zn  Zn166  1  0.06931313  0.81529212  0.56336142  1
  Zn  Zn167  1  0.56523651  0.31499092  0.06574555  1
  Zn  Zn168  1  0.56069687  0.31711403  0.56338103  1
  Zn  Zn169  1  0.56521665  0.81406681  0.06024085  1
  Zn  Zn170  1  0.50904649  0.78472166  0.52900988  1
  O  O171  1  0.11796220  0.12939575  0.11300294  1
  O  O172  1  0.10974294  0.12945463  0.62740616  1
  O  O173  1  0.11632797  0.61356668  0.12999043  1
  O  O174  1  0.12112202  0.62370604  0.61742138  1
  O  O175  1  0.62534373  0.11317321  0.12858695  1
  O  O176  1  0.62131954  0.12188677  0.62150390  1
  O  O177  1  0.62172724  0.61297841  0.11678383  1
  O  O178  1  0.62956499  0.61396506  0.61701558  1
  O  O179  1  0.37427376  0.38563509  0.38192288  1
  O  O180  1  0.37856333  0.38344623  0.88383010  1
  O  O181  1  0.37495194  0.88250359  0.38121822  1
  O  O182  1  0.37868566  0.88103243  0.88204366  1
  O  O183  1  0.88542126  0.37988310  0.38248468  1
  O  O184  1  0.88283771  0.38528833  0.86726128  1
  O  O185  1  0.87975894  0.87681385  0.38211161  1
  O  O186  1  0.88622929  0.87960528  0.87766824  1
  O  O187  1  0.24374789  -0.00066942  0.35852874  1
  O  O188  1  0.25548752  -0.00030592  0.86828999  1
  O  O189  1  0.25206982  0.50530449  0.36985184  1
  O  O190  1  0.26336277  0.49381209  0.86236744  1
  O  O191  1  0.75682722  0.01196103  0.37520348  1
  O  O192  1  0.75504936  0.00385439  0.87555806  1
  O  O193  1  0.75599704  0.51414329  0.37659681  1
  O  O194  1  0.75639939  0.51023921  0.87802179  1
  O  O195  1  0.23950444  0.50037952  0.13361656  1
  O  O196  1  0.24935442  0.49675459  0.64147401  1
  O  O197  1  0.25096651  0.98800414  0.13192080  1
  O  O198  1  0.24566229  1.00689526  0.64065224  1
  O  O199  1  0.73808674  0.49300449  0.12017495  1
  O  O200  1  0.73304309  0.49156823  0.61947712  1
  O  O201  1  0.74458408  0.99836179  0.12283335  1
  O  O202  1  0.74120566  0.99504808  0.63084443  1
  O  O203  1  -0.00484174  0.36625827  0.25920569  1
  O  O204  1  0.00671811  0.36747914  0.75780459  1
  O  O205  1  -0.00480631  0.86108900  0.25554413  1
  O  O206  1  -0.00414271  0.86152755  0.75664775  1
  O  O207  1  0.49391987  0.36332119  0.25376417  1
  O  O208  1  0.50866940  0.36468389  0.75293604  1
  O  O209  1  0.51207716  0.87617307  0.24894861  1
  O  O210  1  0.49905480  0.87911094  0.75450995  1
  O  O211  1  0.49044877  0.12992719  0.24975034  1
  O  O212  1  0.49830626  0.13853988  0.74696294  1
  O  O213  1  0.50142642  0.62848084  0.23299199  1
  O  O214  1  0.48341304  0.62814781  0.75073966  1
  O  O215  1  0.99595043  0.13162180  0.24370630  1
  O  O216  1  0.99942705  0.13142427  0.74179700  1
  O  O217  1  0.99216967  0.63527230  0.24194829  1
  O  O218  1  0.99525330  0.63344652  0.74527068  1
  O  O219  1  0.36714209  0.25699912  0.00222526  1
  O  O220  1  0.37063327  0.25572281  0.50864261  1
  O  O221  1  0.35719615  0.75965019  -0.00761373  1
  O  O222  1  0.39688595  0.75798281  0.50171827  1
  O  O223  1  0.86820615  0.24662775  0.00960766  1
  O  O224  1  0.88409053  0.26574236  0.49760792  1
  O  O225  1  0.86615076  0.74633761  0.00543397  1
  O  O226  1  0.87628382  0.76155366  0.50562678  1
  O  O227  1  0.13380502  0.25693460  0.49149216  1
  O  O228  1  0.13153644  0.24414481  0.99540218  1
  O  O229  1  0.11877530  0.73607538  0.49144773  1
  O  O230  1  0.13424013  0.75170864  0.99029719  1
  O  O231  1  0.61955076  0.23897331  0.49529664  1
  O  O232  1  0.63180614  0.25389782  0.98964632  1
  O  O233  1  0.61841497  0.74485255  0.49076619  1
  O  O234  1  0.63194496  0.74079665  0.99262871  1
  O  O235  1  0.50256673  0.24772614  0.13440117  1
  O  O236  1  0.49493505  0.24758882  0.63443223  1
  O  O237  1  0.50914208  0.73375151  0.12267292  1
  O  O238  1  0.51524435  0.76435100  0.64161829  1
  O  O239  1  0.99551908  0.24912363  0.12977228  1
  O  O240  1  0.99504631  0.23955673  0.63079573  1
  O  O241  1  0.99679584  0.74400692  0.13027241  1
  O  O242  1  0.99837659  0.74573223  0.63269516  1
  O  O243  1  0.00800461  0.25658601  0.36777170  1
  O  O244  1  0.00352930  0.25431930  0.86816401  1
  O  O245  1  0.00652571  0.75235012  0.36709557  1
  O  O246  1  0.00841770  0.75418023  0.87129767  1
  O  O247  1  0.51043167  0.25110268  0.36890512  1
  O  O248  1  0.50675588  0.25066851  0.87055976  1
  O  O249  1  0.51342267  0.75292817  0.36607451  1
  O  O250  1  0.50136342  0.76217441  0.87979940  1
  O  O251  1  0.25535856  0.13988585  0.49806408  1
  O  O252  1  0.24409395  0.12810042  0.99818437  1
  O  O253  1  0.24447175  0.62693781  0.49306814  1
  O  O254  1  0.25172761  0.64196304  1.01000632  1
  O  O255  1  0.74367110  0.12152556  0.49367392  1
  O  O256  1  0.75382038  0.13580570  0.98873048  1
  O  O257  1  0.73924153  0.62977367  0.49077740  1
  O  O258  1  0.74258907  0.63147988  0.99138241  1
  O  O259  1  0.25670948  0.36568453  -0.00005373  1
  O  O260  1  0.26312179  0.36430115  0.49841230  1
  O  O261  1  0.25393156  0.87330517  0.01241426  1
  O  O262  1  0.24832294  0.86256487  0.51084278  1
  O  O263  1  0.74989754  0.36223586  0.00866768  1
  O  O264  1  0.76846443  0.37805429  0.49451480  1
  O  O265  1  0.75124776  0.85891246  -0.00295005  1
  O  O266  1  0.75742580  0.87546596  0.50806736  1
  O  O267  1  0.13149193  0.50150988  0.23940857  1
  O  O268  1  0.13678241  0.49350979  0.75122852  1
  O  O269  1  0.13546969  1.00570354  0.24544041  1
  O  O270  1  0.13430746  0.99883886  0.75844579  1
  O  O271  1  0.62841761  0.50304267  0.24133302  1
  O  O272  1  0.62162175  0.49432593  0.74090574  1
  O  O273  1  0.62787872  0.99504426  0.24104007  1
  O  O274  1  0.62816641  1.00601822  0.73877539  1
  O  O275  1  0.37099801  0.01161899  0.24691598  1
  O  O276  1  0.36933184  0.00381566  0.76290249  1
  O  O277  1  0.36581044  0.50446127  0.25678336  1
  O  O278  1  0.36744775  0.50422931  0.75627834  1
  O  O279  1  0.87670446  0.00758165  0.25748059  1
  O  O280  1  0.87107878  -0.00152532  0.76276492  1
  O  O281  1  0.88206894  0.51328040  0.25532768  1
  O  O282  1  0.88283471  0.51147527  0.75695049  1
  O  O283  1  0.11460030  0.36866258  0.37793754  1
  O  O284  1  0.11826732  0.37029267  0.86688000  1
  O  O285  1  0.11929672  0.86018255  0.37872700  1
  O  O286  1  0.11288460  0.86694719  0.87857828  1
  O  O287  1  0.62882252  0.36171282  0.38287473  1
  O  O288  1  0.62233128  0.36889174  0.87012229  1
  O  O289  1  0.62498148  0.87086363  0.36745470  1
  O  O290  1  0.61331142  0.86619598  0.87540742  1
  O  O291  1  0.37908579  0.12830597  0.13755056  1
  O  O292  1  0.38170192  0.13961261  0.63091629  1
  O  O293  1  0.39250305  0.61416712  0.12005268  1
  O  O294  1  0.37080371  0.62623853  0.63808990  1
  O  O295  1  0.88087613  0.13628529  0.12934845  1
  O  O296  1  0.88631061  0.12297564  0.62916101  1
  O  O297  1  0.87969963  0.62773790  0.13139184  1
  O  O298  1  0.87831892  0.62747098  0.62905408  1
  O  O299  1  0.24902290  0.25042876  0.11411039  1
  O  O300  1  0.25820088  0.24831199  0.62061082  1
  O  O301  1  0.24149892  0.76328927  0.11448986  1
  O  O302  1  0.24714042  0.75842461  0.62684464  1
  O  O303  1  0.75648112  0.25511903  0.11936433  1
  O  O304  1  0.75645664  0.25673077  0.63183813  1
  O  O305  1  0.75414396  0.74724148  0.11499492  1
  O  O306  1  0.75808130  0.75672216  0.62302509  1
  O  O307  1  0.24212049  0.24952738  0.38244220  1
  O  O308  1  0.24587105  0.24383926  0.88582475  1
  O  O309  1  0.24334585  0.74071144  0.37832956  1
  O  O310  1  0.23506913  0.75568259  0.88707962  1
  O  O311  1  0.74623620  0.23886725  0.37098759  1
  O  O312  1  0.74531463  0.24369967  0.88151315  1
  O  O313  1  0.73907600  0.74226429  0.37763379  1
  O  O314  1  0.74729369  0.73828741  0.87954973  1
  O  O315  1  0.00628472  0.11811501  0.00400195  1
  O  O316  1  -0.00180438  0.11558410  0.51211512  1
  O  O317  1  -0.00367055  0.62552251  0.01395235  1
  O  O318  1  0.00601359  0.61923716  0.50354972  1
  O  O319  1  0.49517925  0.11149490  -0.00150905  1
  O  O320  1  0.50855360  0.11997082  0.50639841  1
  O  O321  1  0.50860285  0.62778924  0.00800273  1
  O  O322  1  0.51280345  0.62355462  0.49249929  1
  O  O323  1  0.48635120  0.37553201  0.49538462  1
  O  O324  1  0.48704906  0.37051210  1.00045566  1
  O  O325  1  0.50450986  0.89750242  0.49837577  1
  O  O326  1  0.49178954  0.88106818  0.99337483  1
  O  O327  1  0.99498458  0.38283842  0.49202408  1
  O  O328  1  1.00409302  0.37522960  0.98468884  1
  O  O329  1  0.99458560  0.88057642  0.49576925  1
  O  O330  1  0.99818681  0.88198300  0.99325982  1
  O  O331  1  0.49023515  0.49884860  0.37553900  1
  O  O332  1  0.48177527  0.49804705  0.86962481  1
  O  O333  1  0.50996762  1.00703144  0.38963717  1
  O  O334  1  0.49400547  0.99073700  0.87913506  1
  O  O335  1  0.99696512  0.49483768  0.37737601  1
  O  O336  1  0.99398120  0.49264961  0.87537452  1
  O  O337  1  0.99475436  0.99469367  0.38148062  1
  O  O338  1  0.99373879  0.99334051  0.88070713  1
  O  O339  1  -0.00747537  0.00396988  0.11231716  1
  O  O340  1  0.00112133  0.00989152  0.61866970  1
  O  O341  1  0.01020755  0.50544836  0.12273155  1
  O  O342  1  0.00439661  0.50767882  0.61890407  1
  O  O343  1  0.50898632  0.00244317  0.11425838  1
  O  O344  1  0.50554711  0.00904510  0.62187623  1
  O  O345  1  0.51592538  0.50742802  0.12835848  1
  O  O346  1  0.51765637  0.49504251  0.62185106  1
  O  O347  1  0.25376353  0.38544235  0.25152070  1
  O  O348  1  0.23996672  0.38221927  0.75461499  1
  O  O349  1  0.25081263  0.88650365  0.23673412  1
  O  O350  1  0.25207507  0.88789612  0.74036500  1
  O  O351  1  0.75576937  0.36963340  0.23735597  1
  O  O352  1  0.73750359  0.37475424  0.75387184  1
  O  O353  1  0.74022585  0.87844925  0.24798548  1
  O  O354  1  0.75642326  0.88241979  0.74440788  1
  O  O355  1  0.25874545  0.11118404  0.24841257  1
  O  O356  1  0.24794802  0.11465004  0.75950251  1
  O  O357  1  0.24733462  0.61551580  0.26059811  1
  O  O358  1  0.25527759  0.61037145  0.75330285  1
  O  O359  1  0.76065403  0.12419995  0.25836865  1
  O  O360  1  0.75202590  0.11609798  0.76406574  1
  O  O361  1  0.75958921  0.63184100  0.25746983  1
  O  O362  1  0.76063258  0.62737946  0.75773472  1
  O  O363  1  0.37140685  0.13015220  0.35941906  1
  O  O364  1  0.36620468  0.11587672  0.87572261  1
  O  O365  1  0.36411312  0.61210082  0.37516958  1
  O  O366  1  0.37376618  0.61268066  0.87177341  1
  O  O367  1  0.87196760  0.12265258  0.37214156  1
  O  O368  1  0.86847524  0.11436995  0.87261246  1
  O  O369  1  0.86771038  0.62297025  0.36816428  1
  O  O370  1  0.86816312  0.61894328  0.86653295  1
  O  O371  1  0.12672605  0.38915012  0.12633724  1
  O  O372  1  0.11551484  0.37539469  0.63891155  1
  O  O373  1  0.13231340  0.87881011  0.12250928  1
  O  O374  1  0.14211244  0.87932266  0.62373901  1
  O  O375  1  0.63218224  0.38974098  0.12378204  1
  O  O376  1  0.62639811  0.38195318  0.63406095  1
  O  O377  1  0.62814459  0.88423207  0.13064504  1
  O  O378  1  0.62681718  0.88277389  0.63458942  1
  O  O379  1  0.11568495  0.24696934  0.25491675  1
  O  O380  1  0.11717301  0.25572464  0.75587526  1
  O  O381  1  0.11645157  0.74258148  0.25979679  1
  O  O382  1  0.11870122  0.74461548  0.76568901  1
  O  O383  1  0.61513768  0.24232225  0.26192352  1
  O  O384  1  0.61857981  0.25666608  0.76226189  1
  O  O385  1  0.62520174  0.76067449  0.25436457  1
  O  O386  1  0.62831253  0.75394975  0.75404016  1
  O  O387  1  0.38338005  0.24108965  0.24840220  1
  O  O388  1  0.38116091  0.25295394  0.74688906  1
  O  O389  1  0.37490540  0.74094989  0.25126440  1
  O  O390  1  0.36466425  0.73543285  0.75781156  1
  O  O391  1  0.88790747  0.24443063  0.24346378  1
  O  O392  1  0.88860735  0.24828311  0.75152445  1
  O  O393  1  0.88112155  0.74103800  0.24469270  1
  O  O394  1  0.88450324  0.73853479  0.74543956  1
  O  O395  1  0.37388413  0.49279955  0.49411227  1
  O  O396  1  0.36714040  0.49285309  0.98677493  1
  O  O397  1  0.39139029  1.01102781  0.50430762  1
  O  O398  1  0.37945839  0.99265247  0.99036280  1
  O  O399  1  0.88171309  0.49517140  0.49125371  1
  O  O400  1  0.87969132  0.50613215  0.98535682  1
  O  O401  1  0.88145079  0.98842355  0.49597273  1
  O  O402  1  0.88201562  0.99867696  0.98951521  1
  O  O403  1  0.11512065  0.00888671  -0.00685180  1
  O  O404  1  0.11594907  -0.00352083  0.49127072  1
  O  O405  1  0.12716796  0.49879870  0.01376312  1
  O  O406  1  0.12161268  0.51014886  0.49979742  1
  O  O407  1  0.61561266  -0.00546555  0.00700916  1
  O  O408  1  0.61971009  0.01189163  0.51284496  1
  O  O409  1  0.62678917  0.50913876  -0.00078275  1
  O  O410  1  0.62162229  0.50728162  0.50716847  1
  O  O411  1  0.36938407  0.37565859  0.11606442  1
  O  O412  1  0.38082158  0.36531602  0.62046616  1
  O  O413  1  0.37283562  0.87880632  0.11365607  1
  O  O414  1  0.35108501  0.88865169  0.61611771  1
  O  O415  1  0.87037116  0.36572865  0.12645949  1
  O  O416  1  0.87802933  0.37831137  0.60840228  1
  O  O417  1  0.87182273  0.86323992  0.12150819  1
  O  O418  1  0.87291303  0.87126763  0.61862566  1
  O  O419  1  0.12713683  0.13802561  0.37313744  1
  O  O420  1  0.12818060  0.13220359  0.88654227  1
  O  O421  1  0.13110169  0.63067575  0.38087130  1
  O  O422  1  0.12023911  0.63462307  0.87944366  1
  O  O423  1  0.63576778  0.13269573  0.38416274  1
  O  O424  1  0.63334174  0.13358279  0.87292424  1
  O  O425  1  0.63077911  0.63110088  0.37789055  1
  O  O426  1  0.62988796  0.62763623  0.87772417  1
