# generated using pymatgen
data_V85Zn86O256
_symmetry_space_group_name_H-M   'P 1'
_cell_length_a   16.92617690
_cell_length_b   16.94244659
_cell_length_c   16.92978285
_cell_angle_alpha   89.95046188
_cell_angle_beta   90.07184607
_cell_angle_gamma   90.07847115
_symmetry_Int_Tables_number   1
_chemical_formula_structural   V85Zn86O256
_chemical_formula_sum   'V85 Zn86 O256'
_cell_volume   4854.95800670
_cell_formula_units_Z   1
loop_
 _symmetry_equiv_pos_site_id
 _symmetry_equiv_pos_as_xyz
  1  'x, y, z'
loop_
 _atom_site_type_symbol
 _atom_site_label
 _atom_site_symmetry_multiplicity
 _atom_site_fract_x
 _atom_site_fract_y
 _atom_site_fract_z
 _atom_site_occupancy
  V  V0  1  -0.00039489  0.87566675  0.36801831  1
  V  V1  1  0.87439703  0.63662659  0.24678457  1
  V  V2  1  0.75027256  0.74010953  0.00538996  1
  V  V3  1  0.24914551  0.86624852  0.62237513  1
  V  V4  1  0.37331381  0.24663718  0.62151900  1
  V  V5  1  0.49977735  0.37110792  0.37322664  1
  V  V6  1  0.37797495  0.50243341  0.86321231  1
  V  V7  1  0.25139682  -0.00116884  0.75110768  1
  V  V8  1  0.24983266  0.13397489  0.39381262  1
  V  V9  1  0.37324326  0.87611469  0.00484821  1
  V  V10  1  0.87085758  0.50427712  0.38358165  1
  V  V11  1  0.24835322  0.13478679  0.87223595  1
  V  V12  1  0.37017865  0.49896808  0.37002516  1
  V  V13  1  0.01128427  0.24941228  0.75332390  1
  V  V14  1  -0.00381175  0.74821192  0.75295083  1
  V  V15  1  0.73750971  0.00471775  0.25216609  1
  V  V16  1  0.24984168  0.75340419  0.00848147  1
  V  V17  1  0.62858565  0.12549704  0.49940300  1
  V  V18  1  -0.00239825  0.87467895  0.87845516  1
  V  V19  1  0.87200527  0.87396883  0.49762970  1
  V  V20  1  0.12813677  0.74762927  0.38232027  1
  V  V21  1  0.74885780  0.00019338  0.75056677  1
  V  V22  1  0.13996750  -0.00517418  0.13085678  1
  V  V23  1  -0.00632994  0.37532507  0.36638257  1
  V  V24  1  0.37497813  0.86806009  0.50144077  1
  V  V25  1  0.12655861  0.12923709  -0.00209704  1
  V  V26  1  0.37913993  0.37633201  -0.00594326  1
  V  V27  1  0.51201258  0.25161709  0.74665887  1
  V  V28  1  0.50602327  0.12456125  0.12573602  1
  V  V29  1  0.50915971  0.62889055  0.12881152  1
  V  V30  1  0.50893922  0.50650554  -0.00164014  1
  V  V31  1  0.74491121  0.25232851  -0.00122468  1
  V  V32  1  0.86793730  0.62496327  0.75472506  1
  V  V33  1  0.74406318  0.75113209  0.49965649  1
  V  V34  1  0.50833371  0.00091183  0.00176378  1
  V  V35  1  0.74858901  0.49113900  0.75439618  1
  V  V36  1  0.87712562  0.26072417  0.62497485  1
  V  V37  1  0.36870985  0.36631871  0.49620180  1
  V  V38  1  0.62515200  0.49200113  0.62882438  1
  V  V39  1  0.74712090  0.87405292  0.62624408  1
  V  V40  1  0.49194854  0.62145250  0.62968432  1
  V  V41  1  0.87718851  0.37311690  0.00173018  1
  V  V42  1  0.00135779  0.00057720  0.00305544  1
  V  V43  1  0.87891288  0.12611643  0.26168868  1
  V  V44  1  0.50605941  0.87420812  0.87462820  1
  V  V45  1  0.12405287  0.87492086  0.75218169  1
  V  V46  1  0.50124276  0.24985768  0.24848146  1
  V  V47  1  0.75101853  0.37532067  0.13144459  1
  V  V48  1  0.36344556  0.12598924  0.25006537  1
  V  V49  1  0.00117892  0.12924678  0.13081994  1
  V  V50  1  0.62247560  0.62485179  0.50050818  1
  V  V51  1  0.87469997  0.50378225  0.87861419  1
  V  V52  1  0.61800755  0.75145918  0.36040464  1
  V  V53  1  0.38172521  0.12553928  0.74447720  1
  V  V54  1  0.12783772  0.61721761  0.00592943  1
  V  V55  1  0.74522511  0.13128721  0.87465592  1
  V  V56  1  0.24594660  0.38549871  0.12362298  1
  V  V57  1  0.00275228  0.62326617  0.62530221  1
  V  V58  1  0.87408859  -0.00025958  0.87723394  1
  V  V59  1  0.25571728  0.62630823  0.86908246  1
  V  V60  1  0.62556740  0.12739374  -0.00116667  1
  V  V61  1  0.50487512  0.87691139  0.36566758  1
  V  V62  1  0.63179756  0.24535514  0.37282611  1
  V  V63  1  0.72950562  0.88220020  0.12754736  1
  V  V64  1  0.87707605  0.12692664  0.74798490  1
  V  V65  1  0.00400105  0.49430788  0.50474565  1
  V  V66  1  0.63024705  0.73373670  0.87827478  1
  V  V67  1  0.49222452  0.74411915  0.75171810  1
  V  V68  1  0.50041147  0.49634748  0.49878428  1
  V  V69  1  0.37793836  0.74878004  0.13020804  1
  V  V70  1  0.51647763  0.37120536  0.87041784  1
  V  V71  1  0.37670888  0.00023374  0.87424197  1
  V  V72  1  0.12503055  0.00605412  0.62412855  1
  V  V73  1  0.24118549  0.37689753  0.62046625  1
  V  V74  1  0.00327695  0.62820667  0.12791144  1
  V  V75  1  0.37276159  0.25138630  0.12004844  1
  V  V76  1  0.61959792  0.00417012  0.62512749  1
  V  V77  1  0.12549150  0.75046488  0.87995067  1
  V  V78  1  0.75827938  0.25278098  0.49709525  1
  V  V79  1  0.74722056  0.62947468  0.37466473  1
  V  V80  1  0.49475097  0.00329308  0.49945313  1
  V  V81  1  0.32082406  -0.04218511  0.32107982  1
  V  V82  1  0.00989665  0.37211435  0.87790532  1
  V  V83  1  0.00056780  0.00026181  0.50187056  1
  V  V84  1  0.87303457  0.87422133  0.01437643  1
  Zn  Zn85  1  0.24367484  0.50519687  0.74284461  1
  Zn  Zn86  1  0.12652256  0.37987810  0.75059115  1
  Zn  Zn87  1  0.25308907  0.62837148  0.38065506  1
  Zn  Zn88  1  0.62930094  0.50267704  0.12461493  1
  Zn  Zn89  1  0.37599699  0.62415666  0.24949967  1
  Zn  Zn90  1  0.62534965  0.87096461  0.75028447  1
  Zn  Zn91  1  0.00196198  0.75654848  0.24526019  1
  Zn  Zn92  1  0.13188158  0.62618467  0.50777544  1
  Zn  Zn93  1  0.24682585  0.25510128  -0.00723595  1
  Zn  Zn94  1  0.62604939  0.37703469  0.24898005  1
  Zn  Zn95  1  0.86915236  0.00282672  0.37671287  1
  Zn  Zn96  1  0.11662069  0.37599587  0.24395842  1
  Zn  Zn97  1  0.36754982  0.74029191  0.62523875  1
  Zn  Zn98  1  0.24202218  0.50936913  0.24416026  1
  Zn  Zn99  1  0.74810013  0.37397628  0.62427366  1
  Zn  Zn100  1  0.00480851  0.49750661  0.00608791  1
  Zn  Zn101  1  0.74913992  0.50433810  0.24993562  1
  Zn  Zn102  1  0.00673972  0.12990736  0.62170433  1
  Zn  Zn103  1  0.87146387  0.74828796  0.62728480  1
  Zn  Zn104  1  0.14311685  0.87708494  0.25051553  1
  Zn  Zn105  1  0.87970617  0.25014278  0.12941734  1
  Zn  Zn106  1  0.12499590  0.24574655  0.37264563  1
  Zn  Zn107  1  0.18086917  0.19588424  0.18956971  1
  Zn  Zn108  1  0.19274408  0.18983185  0.68422513  1
  Zn  Zn109  1  0.18659870  0.68870121  0.19513420  1
  Zn  Zn110  1  0.18329644  0.68685186  0.69120363  1
  Zn  Zn111  1  0.69224622  0.18722853  0.18779756  1
  Zn  Zn112  1  0.69025923  0.18498283  0.68192012  1
  Zn  Zn113  1  0.68972462  0.69064005  0.18436760  1
  Zn  Zn114  1  0.68331642  0.68246705  0.68992672  1
  Zn  Zn115  1  0.30798610  0.30899332  0.30866484  1
  Zn  Zn116  1  0.31642200  0.31489166  0.80581018  1
  Zn  Zn117  1  0.31521104  0.79504365  0.31639788  1
  Zn  Zn118  1  0.31387672  0.81254667  0.81603547  1
  Zn  Zn119  1  0.82165084  0.30922607  0.31655636  1
  Zn  Zn120  1  0.81735623  0.31363089  0.81402540  1
  Zn  Zn121  1  0.80801886  0.81685557  0.30979622  1
  Zn  Zn122  1  0.81053950  0.81234721  0.81791548  1
  Zn  Zn123  1  0.18214654  0.43599839  0.43567551  1
  Zn  Zn124  1  0.19174088  0.43996846  0.93517734  1
  Zn  Zn125  1  0.18282405  0.93317396  0.44311966  1
  Zn  Zn126  1  0.18876082  0.94132121  0.94047542  1
  Zn  Zn127  1  0.68867270  0.43352852  0.43792834  1
  Zn  Zn128  1  0.69135994  0.43991005  0.93918660  1
  Zn  Zn129  1  0.68400161  0.93891325  0.43456461  1
  Zn  Zn130  1  0.68818549  0.93720217  0.93882866  1
  Zn  Zn131  1  0.31582783  0.06544403  0.05989319  1
  Zn  Zn132  1  0.31333120  0.05664279  0.56417176  1
  Zn  Zn133  1  0.32062068  0.56475235  0.05502174  1
  Zn  Zn134  1  0.31051421  0.55632078  0.55488764  1
  Zn  Zn135  1  0.81308156  0.06186849  0.06759987  1
  Zn  Zn136  1  0.81166716  0.06521749  0.56141736  1
  Zn  Zn137  1  0.81982182  0.56120636  0.06812859  1
  Zn  Zn138  1  0.81205229  0.56454397  0.56659105  1
  Zn  Zn139  1  0.43800372  0.43953135  0.18567853  1
  Zn  Zn140  1  0.43619782  0.43098059  0.68503390  1
  Zn  Zn141  1  0.44495418  0.93736163  0.18128317  1
  Zn  Zn142  1  0.43851467  0.93339823  0.68629149  1
  Zn  Zn143  1  0.93177366  0.45127021  0.18815428  1
  Zn  Zn144  1  0.94122876  0.43812101  0.69147667  1
  Zn  Zn145  1  0.93707612  0.94859806  0.18900630  1
  Zn  Zn146  1  0.93574829  0.93638262  0.68791385  1
  Zn  Zn147  1  0.06702792  0.06012856  0.31333459  1
  Zn  Zn148  1  0.06335245  0.06244107  0.81328620  1
  Zn  Zn149  1  0.06429326  0.55947367  0.30897237  1
  Zn  Zn150  1  0.06345928  0.55982227  0.81441149  1
  Zn  Zn151  1  0.55846614  0.06419995  0.31503529  1
  Zn  Zn152  1  0.56388075  0.06483224  0.81067673  1
  Zn  Zn153  1  0.56234003  0.55920130  0.30902823  1
  Zn  Zn154  1  0.56369498  0.55963241  0.81099310  1
  Zn  Zn155  1  0.43769364  0.18225927  0.43429437  1
  Zn  Zn156  1  0.43913197  0.18948840  0.93141449  1
  Zn  Zn157  1  0.43914023  0.68712207  0.43761128  1
  Zn  Zn158  1  0.43844737  0.68649646  0.94075911  1
  Zn  Zn159  1  0.96058119  0.19715178  0.44711294  1
  Zn  Zn160  1  0.93703352  0.18867658  0.93816272  1
  Zn  Zn161  1  0.93977513  0.68964682  0.43843172  1
  Zn  Zn162  1  0.93559408  0.68785321  0.94294085  1
  Zn  Zn163  1  0.06428277  0.30881196  0.06219867  1
  Zn  Zn164  1  0.06085182  0.30797502  0.55091886  1
  Zn  Zn165  1  0.06308156  0.81220000  0.06758348  1
  Zn  Zn166  1  0.05897058  0.81305442  0.56447416  1
  Zn  Zn167  1  0.56476278  0.31434634  0.06086229  1
  Zn  Zn168  1  0.56027502  0.30861064  0.56193528  1
  Zn  Zn169  1  0.56329258  0.80822810  0.05917245  1
  Zn  Zn170  1  0.55904209  0.81182302  0.56098737  1
  O  O171  1  0.12142890  0.11725219  0.11958501  1
  O  O172  1  0.12631222  0.11042479  0.63156516  1
  O  O173  1  0.11663928  0.63108061  0.11888303  1
  O  O174  1  0.10777883  0.63006187  0.62774670  1
  O  O175  1  0.61207791  0.13412242  0.11804199  1
  O  O176  1  0.62680705  0.11393451  0.61606543  1
  O  O177  1  0.61315859  0.62578326  0.12492493  1
  O  O178  1  0.61575524  0.61448026  0.61958815  1
  O  O179  1  0.37921427  0.37465274  0.37946394  1
  O  O180  1  0.38033949  0.38125465  0.88120703  1
  O  O181  1  0.37920851  0.87969333  0.38008700  1
  O  O182  1  0.38810658  0.87745835  0.88404079  1
  O  O183  1  0.87226951  0.40083162  0.37071053  1
  O  O184  1  0.88384965  0.38146951  0.88421668  1
  O  O185  1  0.88009554  0.87656849  0.38284189  1
  O  O186  1  0.87790360  0.88270503  0.88432691  1
  O  O187  1  0.25484629  0.00686826  0.38364425  1
  O  O188  1  0.25898007  0.00596904  0.86933148  1
  O  O189  1  0.26419737  0.49212819  0.37632376  1
  O  O190  1  0.26188978  0.50941337  0.87579341  1
  O  O191  1  0.75054579  -0.00823848  0.35743720  1
  O  O192  1  0.75463254  0.00666464  0.86973297  1
  O  O193  1  0.75609573  0.51029149  0.37874215  1
  O  O194  1  0.76268273  0.49672516  0.86925388  1
  O  O195  1  0.26005639  0.48783137  0.11962288  1
  O  O196  1  0.25773499  0.48085055  0.62611472  1
  O  O197  1  0.23844674  1.00308886  0.11758450  1
  O  O198  1  0.24319999  0.98970154  0.63234838  1
  O  O199  1  0.75032309  0.49008761  0.12555235  1
  O  O200  1  0.74279055  0.49750757  0.63210333  1
  O  O201  1  0.74862362  0.98900086  0.13206391  1
  O  O202  1  0.74171660  0.99326701  0.63008512  1
  O  O203  1  -0.00635095  0.38962822  0.26315727  1
  O  O204  1  0.00220184  0.36672665  0.75961271  1
  O  O205  1  -0.00480946  0.87908544  0.26156108  1
  O  O206  1  0.00206772  0.86905595  0.75807102  1
  O  O207  1  0.50009225  0.36650034  0.25475612  1
  O  O208  1  0.49738005  0.36160467  0.75613509  1
  O  O209  1  0.49717219  0.88241058  0.26649101  1
  O  O210  1  0.50347157  0.86651171  0.75849928  1
  O  O211  1  0.49222896  0.13003705  0.24193849  1
  O  O212  1  0.49162904  0.13671424  0.75610422  1
  O  O213  1  0.49668749  0.62014046  0.23243300  1
  O  O214  1  0.50439808  0.63145384  0.74204486  1
  O  O215  1  0.98927932  0.11628875  0.24407588  1
  O  O216  1  0.99298864  0.13120721  0.75058313  1
  O  O217  1  0.99513054  0.62849430  0.24151039  1
  O  O218  1  0.98957886  0.62864282  0.74720800  1
  O  O219  1  0.37666598  0.25832949  0.00326435  1
  O  O220  1  0.38513677  0.25817613  0.50627027  1
  O  O221  1  0.36982921  0.75794431  0.00602432  1
  O  O222  1  0.38177399  0.76387701  0.50403614  1
  O  O223  1  0.86770036  0.26005715  0.00204614  1
  O  O224  1  0.86774446  0.23757562  0.51310880  1
  O  O225  1  0.85814459  0.76139935  -0.00844595  1
  O  O226  1  0.86681930  0.76107630  0.50206911  1
  O  O227  1  0.07106949  0.23039710  0.47250331  1
  O  O228  1  0.12856443  0.23373295  1.00155719  1
  O  O229  1  0.11593854  0.75089195  0.48681360  1
  O  O230  1  0.13435626  0.74697136  0.99787724  1
  O  O231  1  0.62990680  0.24191901  0.49503826  1
  O  O232  1  0.63734010  0.24564910  0.99971548  1
  O  O233  1  0.62674733  0.74230537  0.49534621  1
  O  O234  1  0.63651011  0.75294430  0.98829833  1
  O  O235  1  0.49101225  0.24634953  0.12676117  1
  O  O236  1  0.48867744  0.25498649  0.63687272  1
  O  O237  1  0.49454309  0.73666953  0.11564577  1
  O  O238  1  0.50170469  0.74031271  0.63563420  1
  O  O239  1  0.99983002  0.23419069  0.12132306  1
  O  O240  1  0.99292322  0.24802692  0.63404943  1
  O  O241  1  1.00020513  0.73731894  0.12671476  1
  O  O242  1  0.99411098  0.74505986  0.63570923  1
  O  O243  1  -0.04122981  0.28080147  0.36646187  1
  O  O244  1  -0.00731509  0.25925495  0.86581982  1
  O  O245  1  0.00595785  0.76172900  0.37391984  1
  O  O246  1  0.00386370  0.75566757  0.87295407  1
  O  O247  1  0.50627687  0.25294311  0.36792605  1
  O  O248  1  0.49776848  0.25870862  0.85969904  1
  O  O249  1  0.50452430  0.76515894  0.37902083  1
  O  O250  1  0.50996373  0.75403919  0.87287971  1
  O  O251  1  0.25509967  0.12535831  0.49281714  1
  O  O252  1  0.24572793  0.12638611  0.98929363  1
  O  O253  1  0.24410707  0.61972530  0.49451204  1
  O  O254  1  0.24521010  0.63321656  0.99368908  1
  O  O255  1  0.73729691  0.13308316  0.50278676  1
  O  O256  1  0.74793829  0.13183274  0.99497740  1
  O  O257  1  0.74286360  0.63224300  0.49636069  1
  O  O258  1  0.75609244  0.64173644  1.01077040  1
  O  O259  1  0.26036992  0.37433278  0.00484779  1
  O  O260  1  0.25716435  0.37511098  0.50685152  1
  O  O261  1  0.26228635  0.86713019  -0.00746418  1
  O  O262  1  0.26043166  0.88113374  0.51161122  1
  O  O263  1  0.75713430  0.36867268  0.00674851  1
  O  O264  1  0.74680404  0.35816525  0.50396115  1
  O  O265  1  0.75435242  0.87531058  0.01223084  1
  O  O266  1  0.75253732  0.87164110  0.50633624  1
  O  O267  1  0.13157094  0.48854119  0.25719363  1
  O  O268  1  0.13000455  0.49431116  0.75545362  1
  O  O269  1  0.12652209  0.99644775  0.23536417  1
  O  O270  1  0.12923109  0.99200049  0.74538996  1
  O  O271  1  0.63166846  0.49497630  0.24637084  1
  O  O272  1  0.63665040  0.50544565  0.74216778  1
  O  O273  1  0.63806066  1.01122994  0.25007971  1
  O  O274  1  0.62998101  0.99827737  0.74172753  1
  O  O275  1  0.37930213  0.00897306  0.24874282  1
  O  O276  1  0.37440121  0.00635995  0.75334417  1
  O  O277  1  0.37191034  0.50026298  0.25783554  1
  O  O278  1  0.37333057  0.49446001  0.76081487  1
  O  O279  1  0.86509308  0.01101178  0.25302793  1
  O  O280  1  0.86938374  0.00711617  0.75521598  1
  O  O281  1  0.87000005  0.51825726  0.26316850  1
  O  O282  1  0.87064065  0.50571044  0.75850288  1
  O  O283  1  0.10101833  0.37210243  0.38049958  1
  O  O284  1  0.11324695  0.37484468  0.88099368  1
  O  O285  1  0.11627677  0.86893565  0.37386692  1
  O  O286  1  0.11909636  0.87139198  0.87307793  1
  O  O287  1  0.61854936  0.36247320  0.37445776  1
  O  O288  1  0.61550924  0.37797391  0.87615301  1
  O  O289  1  0.61219517  0.86673318  0.37956488  1
  O  O290  1  0.61498240  0.87064236  0.87546938  1
  O  O291  1  0.38428816  0.13356984  0.12683251  1
  O  O292  1  0.37073247  0.12953570  0.63588596  1
  O  O293  1  0.38475910  0.63374389  0.12252904  1
  O  O294  1  0.38792077  0.62244356  0.61903790  1
  O  O295  1  0.88646588  0.12306615  0.13191553  1
  O  O296  1  0.87304645  0.12859375  0.63987140  1
  O  O297  1  0.88516738  0.62802437  0.13496133  1
  O  O298  1  0.88322582  0.62777303  0.63571122  1
  O  O299  1  0.26364236  0.25692632  0.11830025  1
  O  O300  1  0.26464993  0.25784967  0.62526204  1
  O  O301  1  0.25871023  0.74625034  0.11430437  1
  O  O302  1  0.24992279  0.76169899  0.63394321  1
  O  O303  1  0.75430460  0.25684963  0.11473681  1
  O  O304  1  0.75866000  0.25199967  0.61917687  1
  O  O305  1  0.74375798  0.76550620  0.11289957  1
  O  O306  1  0.74686517  0.75766623  0.62132251  1
  O  O307  1  0.25045919  0.23857840  0.37939870  1
  O  O308  1  0.25652327  0.23854324  0.87219041  1
  O  O309  1  0.23316223  0.75165687  0.37981152  1
  O  O310  1  0.24817791  0.74450426  0.88534391  1
  O  O311  1  0.74374846  0.25267880  0.38301756  1
  O  O312  1  0.75765418  0.24168387  0.88347465  1
  O  O313  1  0.73898856  0.74905254  0.38064381  1
  O  O314  1  0.73703670  0.75384583  0.88641426  1
  O  O315  1  0.00715644  0.11925861  0.00373081  1
  O  O316  1  -0.01953346  0.10139522  0.50947303  1
  O  O317  1  0.00949613  0.62724003  0.00924746  1
  O  O318  1  -0.00115841  0.61810325  0.51033376  1
  O  O319  1  0.50361050  0.12020947  0.00295943  1
  O  O320  1  0.51047060  0.11360533  0.49476094  1
  O  O321  1  0.49738969  0.61589464  0.00984238  1
  O  O322  1  0.50529610  0.61678242  0.50680587  1
  O  O323  1  0.49397841  0.37715124  0.49180221  1
  O  O324  1  0.49528116  0.37905277  0.99050549  1
  O  O325  1  0.49330270  0.88226407  0.49354116  1
  O  O326  1  0.49716821  0.88263635  0.99376060  1
  O  O327  1  0.99176643  0.39184955  0.49353002  1
  O  O328  1  0.99382821  0.37441113  0.99707383  1
  O  O329  1  0.98849923  0.88077585  0.49630128  1
  O  O330  1  0.99240265  0.87887745  0.99747904  1
  O  O331  1  0.49182398  0.49020569  0.37773854  1
  O  O332  1  0.49617174  0.49367623  0.87847596  1
  O  O333  1  0.50544577  0.98849645  0.38563304  1
  O  O334  1  0.49664287  0.99288489  0.87889306  1
  O  O335  1  0.98749435  0.49986608  0.38569893  1
  O  O336  1  0.99046399  0.49085617  0.88082998  1
  O  O337  1  1.00043106  0.99147507  0.38436564  1
  O  O338  1  0.99487973  0.99478029  0.88266779  1
  O  O339  1  0.00882535  0.00993955  0.11839998  1
  O  O340  1  0.00932625  -0.00380301  0.62214404  1
  O  O341  1  -0.00434319  0.51976494  0.12083864  1
  O  O342  1  -0.00959359  0.50627372  0.61202973  1
  O  O343  1  0.49745316  0.01210055  0.11327649  1
  O  O344  1  0.51279175  -0.00868901  0.61767522  1
  O  O345  1  0.50060970  0.51059180  0.11541234  1
  O  O346  1  0.50494240  0.50332656  0.62215095  1
  O  O347  1  0.25885133  0.37573813  0.22807445  1
  O  O348  1  0.24762584  0.37253142  0.73418672  1
  O  O349  1  0.26328399  0.88869472  0.26710761  1
  O  O350  1  0.24585768  0.88045486  0.74761661  1
  O  O351  1  0.75550411  0.37190867  0.23835329  1
  O  O352  1  0.75548847  0.38708801  0.74805699  1
  O  O353  1  0.75167401  0.88544340  0.23435379  1
  O  O354  1  0.74804065  0.87992503  0.74297205  1
  O  O355  1  0.26267111  0.12889439  0.24351993  1
  O  O356  1  0.25752596  0.11868803  0.75507254  1
  O  O357  1  0.25654960  0.62526400  0.25993371  1
  O  O358  1  0.24858921  0.62723601  0.76470429  1
  O  O359  1  0.76087950  0.11090322  0.24155875  1
  O  O360  1  0.75607990  0.12231309  0.75771998  1
  O  O361  1  0.75630213  0.62904248  0.25650856  1
  O  O362  1  0.76265708  0.61558742  0.74507867  1
  O  O363  1  0.36219769  0.12479566  0.36526046  1
  O  O364  1  0.36935784  0.11957480  0.86539668  1
  O  O365  1  0.37917067  0.61306896  0.37414563  1
  O  O366  1  0.36785367  0.61619211  0.88158885  1
  O  O367  1  0.88501127  0.12378398  0.36340619  1
  O  O368  1  0.86771185  0.12024253  0.86678581  1
  O  O369  1  0.86844589  0.62212918  0.37233192  1
  O  O370  1  0.88116798  0.61425359  0.86992153  1
  O  O371  1  0.14301403  0.37239348  0.11763875  1
  O  O372  1  0.13894592  0.36337983  0.61698388  1
  O  O373  1  0.12561056  0.88986529  0.12565153  1
  O  O374  1  0.13098006  0.87992519  0.63221932  1
  O  O375  1  0.63646752  0.37578801  0.12622667  1
  O  O376  1  0.62290938  0.38866978  0.62008279  1
  O  O377  1  0.63077375  0.87872175  0.12197994  1
  O  O378  1  0.63473777  0.88056357  0.62446436  1
  O  O379  1  0.12616121  0.26286216  0.25820494  1
  O  O380  1  0.11402577  0.25042878  0.74653414  1
  O  O381  1  0.12299701  0.76079800  0.26141203  1
  O  O382  1  0.11700986  0.75629043  0.76023417  1
  O  O383  1  0.62156120  0.24979878  0.25711478  1
  O  O384  1  0.61085108  0.24381256  0.74091772  1
  O  O385  1  0.62554413  0.74813742  0.26123320  1
  O  O386  1  0.62017908  0.74959496  0.76425328  1
  O  O387  1  0.38081683  0.24373420  0.23982594  1
  O  O388  1  0.38244447  0.24184349  0.74161254  1
  O  O389  1  0.37696270  0.74981389  0.23413105  1
  O  O390  1  0.38884338  0.75237104  0.75065248  1
  O  O391  1  0.86373684  0.22914692  0.24474623  1
  O  O392  1  0.88187574  0.24278875  0.74442474  1
  O  O393  1  0.87819894  0.74047536  0.25938798  1
  O  O394  1  0.87720232  0.74212368  0.75418725  1
  O  O395  1  0.38350578  0.48413874  0.49311676  1
  O  O396  1  0.38762644  0.49189661  0.98995287  1
  O  O397  1  0.38894171  0.98998270  0.50837672  1
  O  O398  1  0.38484217  0.99419144  0.99451467  1
  O  O399  1  0.88028209  0.51084710  0.48899810  1
  O  O400  1  0.87561001  0.48925237  0.99463471  1
  O  O401  1  0.87347359  0.98663458  0.49926776  1
  O  O402  1  0.88012395  0.99407062  0.99633589  1
  O  O403  1  0.12076712  0.00832747  0.00808909  1
  O  O404  1  0.11324472  -0.00725049  0.51235519  1
  O  O405  1  0.12623673  0.51450790  -0.00361474  1
  O  O406  1  0.10663715  0.50395944  0.49538057  1
  O  O407  1  0.61436777  0.00772148  -0.00532740  1
  O  O408  1  0.61994585  0.00637417  0.50564449  1
  O  O409  1  0.61292436  0.49642552  0.00095990  1
  O  O410  1  0.61976453  0.50503946  0.50498198  1
  O  O411  1  0.37428067  0.36961784  0.11127788  1
  O  O412  1  0.36822542  0.36591517  0.61471643  1
  O  O413  1  0.38506721  0.86729224  0.11160895  1
  O  O414  1  0.36695696  0.87092762  0.61933869  1
  O  O415  1  0.87145190  0.37480073  0.11829287  1
  O  O416  1  0.87453695  0.36330070  0.63062800  1
  O  O417  1  0.87403749  0.88042110  0.11582778  1
  O  O418  1  0.86103524  0.87393139  0.61978153  1
  O  O419  1  0.14918972  0.11995881  0.36730496  1
  O  O420  1  0.13733744  0.11597839  0.88345622  1
  O  O421  1  0.11718313  0.64195321  0.37549558  1
  O  O422  1  0.13164143  0.63350004  0.88534074  1
  O  O423  1  0.62125404  0.13766519  0.38188671  1
  O  O424  1  0.63861428  0.12189132  0.87972745  1
  O  O425  1  0.62543619  0.63175637  0.38044448  1
  O  O426  1  0.62381758  0.63546051  0.87733255  1
