# generated using pymatgen
data_V85Zn86O256
_symmetry_space_group_name_H-M   'P 1'
_cell_length_a   16.92024713
_cell_length_b   16.93240708
_cell_length_c   16.92495873
_cell_angle_alpha   89.96312865
_cell_angle_beta   89.99301468
_cell_angle_gamma   90.02098316
_symmetry_Int_Tables_number   1
_chemical_formula_structural   V85Zn86O256
_chemical_formula_sum   'V85 Zn86 O256'
_cell_volume   4849.00798182
_cell_formula_units_Z   1
loop_
 _symmetry_equiv_pos_site_id
 _symmetry_equiv_pos_as_xyz
  1  'x, y, z'
loop_
 _atom_site_type_symbol
 _atom_site_label
 _atom_site_symmetry_multiplicity
 _atom_site_fract_x
 _atom_site_fract_y
 _atom_site_fract_z
 _atom_site_occupancy
  V  V0  1  0.24031308  0.36686208  0.62753894  1
  V  V1  1  0.75534260  0.24327232  0.47980230  1
  V  V2  1  0.74592884  0.74426227  0.49652862  1
  V  V3  1  0.55764389  0.20193657  0.30952287  1
  V  V4  1  0.88135573  0.25612933  0.11828916  1
  V  V5  1  0.00598156  0.87358239  0.37666889  1
  V  V6  1  0.74908255  0.49907215  0.25006298  1
  V  V7  1  -0.00194992  0.74908999  0.75035166  1
  V  V8  1  0.24618995  0.75060613  0.00915416  1
  V  V9  1  0.37790288  0.74792113  0.63361208  1
  V  V10  1  0.49327536  0.62887481  0.12544517  1
  V  V11  1  -0.00570641  0.87170610  0.88377073  1
  V  V12  1  0.74599982  0.00196413  0.74447782  1
  V  V13  1  0.62510069  0.86717102  0.24933314  1
  V  V14  1  0.62171564  0.62573858  -0.00112248  1
  V  V15  1  0.25095192  -0.00086589  0.24386161  1
  V  V16  1  0.62232278  0.49947540  0.12262160  1
  V  V17  1  0.87844373  0.75228821  0.11883123  1
  V  V18  1  0.00367584  0.74903762  0.25346722  1
  V  V19  1  0.50163357  0.13100305  0.12132474  1
  V  V20  1  0.00464501  0.37600867  0.87786900  1
  V  V21  1  0.12716812  0.12720240  0.00191429  1
  V  V22  1  0.75372795  0.12755147  0.87208488  1
  V  V23  1  0.12579200  0.61036475  0.00020118  1
  V  V24  1  0.00336403  0.61134265  0.12216372  1
  V  V25  1  0.25532867  0.25620990  -0.00009202  1
  V  V26  1  0.13165976  0.87037588  0.24899728  1
  V  V27  1  0.37517145  0.87481561  0.50428540  1
  V  V28  1  0.51021976  0.12509028  0.62815718  1
  V  V29  1  0.49895253  0.87001749  0.86958045  1
  V  V30  1  0.25070488  0.50852514  0.74905617  1
  V  V31  1  0.00096886  0.25222110  0.25862865  1
  V  V32  1  0.87365086  -0.00240631  0.87777810  1
  V  V33  1  0.87581658  0.61988366  0.75036413  1
  V  V34  1  0.62372809  0.25418869  0.87097839  1
  V  V35  1  0.12338332  0.37751097  0.24724966  1
  V  V36  1  0.13200887  0.74524476  0.87675123  1
  V  V37  1  0.75606282  0.87625421  0.12019209  1
  V  V38  1  0.87400730  0.62503609  0.25444105  1
  V  V39  1  0.62668991  -0.00055508  0.12119830  1
  V  V40  1  0.24994557  0.38502386  0.12180739  1
  V  V41  1  0.50982117  0.00063232  0.50447338  1
  V  V42  1  0.12169052  0.87614875  0.75198481  1
  V  V43  1  0.74656759  0.49732540  0.74628164  1
  V  V44  1  0.37177044  0.25032803  0.62171136  1
  V  V45  1  0.49458669  0.49001860  -0.00115245  1
  V  V46  1  0.74074417  0.87864688  0.62316674  1
  V  V47  1  0.36826159  0.49956362  0.87718908  1
  V  V48  1  0.37557671  0.12875950  0.25226928  1
  V  V49  1  0.37779434  0.25907783  0.12779489  1
  V  V50  1  0.37061319  0.87383312  0.00501004  1
  V  V51  1  0.62285438  0.49736901  0.60246739  1
  V  V52  1  0.88803323  0.13659987  0.73812195  1
  V  V53  1  0.24607414  0.75219757  0.49820823  1
  V  V54  1  0.50074694  0.38529222  0.38221531  1
  V  V55  1  0.37216483  -0.00063688  0.37922649  1
  V  V56  1  0.87018054  0.00482307  0.37583642  1
  V  V57  1  0.87792307  0.49191643  0.88920604  1
  V  V58  1  0.62098090  0.74834281  0.86439987  1
  V  V59  1  0.75070315  0.37490682  0.12197553  1
  V  V60  1  0.12315360  0.50138468  0.63222990  1
  V  V61  1  -0.00100082  0.00936322  0.50393436  1
  V  V62  1  0.74964461  0.62417166  0.87484798  1
  V  V63  1  0.87626401  0.87506171  0.50350769  1
  V  V64  1  0.11995833  0.62928964  0.50246081  1
  V  V65  1  0.25193809  0.12706609  0.87672524  1
  V  V66  1  0.37616979  0.00048825  0.87502052  1
  V  V67  1  0.11931839  0.00667186  0.62719890  1
  V  V68  1  0.37094907  0.38327490  0.50284676  1
  V  V69  1  0.12413615  0.25389592  0.86126908  1
  V  V70  1  0.75127864  0.75184863  -0.00111151  1
  V  V71  1  0.24827672  0.00408005  0.75078935  1
  V  V72  1  0.88331522  0.48307536  0.37692083  1
  V  V73  1  0.13370462  0.25047357  0.37588592  1
  V  V74  1  0.00129076  0.12631938  0.12475886  1
  V  V75  1  0.61605975  0.37498709  0.25197447  1
  V  V76  1  0.13171888  0.13166589  0.50309758  1
  V  V77  1  0.87048747  0.12633759  0.25327853  1
  V  V78  1  0.50960072  0.62850183  0.61896568  1
  V  V79  1  0.24711794  0.50064846  0.25470560  1
  V  V80  1  0.75608580  0.25655517  -0.00518780  1
  V  V81  1  0.24446618  0.62403518  0.37801936  1
  V  V82  1  0.12712592  -0.00330671  0.12545478  1
  V  V83  1  0.76349291  0.36535948  0.61542541  1
  V  V84  1  -0.00222811  -0.00213998  0.00148299  1
  Zn  Zn85  1  0.62828330  0.13057275  0.49229699  1
  Zn  Zn86  1  0.49325346  0.75013514  0.25354717  1
  Zn  Zn87  1  0.62610575  0.12492365  -0.00349402  1
  Zn  Zn88  1  0.49625936  0.37509671  0.87025549  1
  Zn  Zn89  1  0.61727200  0.73898155  0.38013212  1
  Zn  Zn90  1  0.61959977  0.87749864  0.74550991  1
  Zn  Zn91  1  0.87332830  0.74811574  0.62552765  1
  Zn  Zn92  1  0.25260097  0.12705595  0.37844243  1
  Zn  Zn93  1  0.24790090  0.87500424  0.62754890  1
  Zn  Zn94  1  0.75125308  0.00118904  0.25159505  1
  Zn  Zn95  1  0.37484784  0.12951739  0.74889244  1
  Zn  Zn96  1  0.38074705  0.62897625  0.75429592  1
  Zn  Zn97  1  0.62357130  0.37654483  0.74466976  1
  Zn  Zn98  1  0.49717100  0.25454265  0.74890375  1
  Zn  Zn99  1  0.74525134  0.61353163  0.38501200  1
  Zn  Zn100  1  0.37316971  0.50343777  0.38016502  1
  Zn  Zn101  1  0.50084521  0.86873866  0.37760275  1
  Zn  Zn102  1  0.37033114  0.62849852  0.25162093  1
  Zn  Zn103  1  0.50041337  -0.00039464  -0.00130465  1
  Zn  Zn104  1  0.37057948  0.75507801  0.12905822  1
  Zn  Zn105  1  -0.00608028  0.49244348  0.50297999  1
  Zn  Zn106  1  -0.00250617  0.62207230  0.62511874  1
  Zn  Zn107  1  0.19104047  0.18850046  0.18767308  1
  Zn  Zn108  1  0.05934920  0.19697181  0.68446318  1
  Zn  Zn109  1  0.18445403  0.68450212  0.18560091  1
  Zn  Zn110  1  0.18907878  0.68726270  0.68659244  1
  Zn  Zn111  1  0.69446905  0.18581588  0.18117608  1
  Zn  Zn112  1  0.69150011  0.18928727  0.68693745  1
  Zn  Zn113  1  0.68732968  0.68517312  0.18764205  1
  Zn  Zn114  1  0.68851196  0.68555861  0.68222166  1
  Zn  Zn115  1  0.31399757  0.31496330  0.31277645  1
  Zn  Zn116  1  0.31257617  0.31925297  0.80645078  1
  Zn  Zn117  1  0.31237353  0.80973959  0.31703050  1
  Zn  Zn118  1  0.30947103  0.81488510  0.81503295  1
  Zn  Zn119  1  0.81155166  0.31264523  0.30786028  1
  Zn  Zn120  1  0.81708612  0.31744924  0.80667241  1
  Zn  Zn121  1  0.81451945  0.81424186  0.31226030  1
  Zn  Zn122  1  0.81123779  0.81294680  0.81108678  1
  Zn  Zn123  1  0.16191377  0.42483876  0.45286428  1
  Zn  Zn124  1  0.19127509  0.43349051  0.93273214  1
  Zn  Zn125  1  0.18746792  0.93922375  0.43805223  1
  Zn  Zn126  1  0.18647474  0.93462101  0.93818344  1
  Zn  Zn127  1  0.69361974  0.42684075  0.43275793  1
  Zn  Zn128  1  0.68703189  0.43762470  0.93550292  1
  Zn  Zn129  1  0.68836199  0.93404601  0.43541322  1
  Zn  Zn130  1  0.68774318  0.93565253  0.93662813  1
  Zn  Zn131  1  0.31552620  0.06415123  0.06353462  1
  Zn  Zn132  1  0.31199360  0.06384840  0.56738799  1
  Zn  Zn133  1  0.31064639  0.56503363  0.05783411  1
  Zn  Zn134  1  0.31234990  0.56465435  0.56517278  1
  Zn  Zn135  1  0.81376471  0.06686320  0.06025816  1
  Zn  Zn136  1  0.80987900  0.06910003  0.56177628  1
  Zn  Zn137  1  0.81144796  0.56719445  0.06657889  1
  Zn  Zn138  1  0.81569139  0.55697916  0.56321968  1
  Zn  Zn139  1  0.43531108  0.44161863  0.19214616  1
  Zn  Zn140  1  0.43957266  0.43977207  0.68756346  1
  Zn  Zn141  1  0.43990847  0.93844852  0.18720816  1
  Zn  Zn142  1  0.43782665  0.93972412  0.68781016  1
  Zn  Zn143  1  0.93757122  0.43530912  0.19008346  1
  Zn  Zn144  1  0.94296499  0.42694538  0.69202652  1
  Zn  Zn145  1  0.93915181  0.93661470  0.18871375  1
  Zn  Zn146  1  0.93324192  0.94122000  0.68994066  1
  Zn  Zn147  1  0.06078322  0.06398221  0.31527079  1
  Zn  Zn148  1  0.06305994  0.06354832  0.81846992  1
  Zn  Zn149  1  0.06640843  0.56287595  0.31269396  1
  Zn  Zn150  1  0.06140420  0.56009288  0.81577713  1
  Zn  Zn151  1  0.55959446  0.03740717  0.30994625  1
  Zn  Zn152  1  0.56343668  0.06417232  0.81132565  1
  Zn  Zn153  1  0.56236970  0.56452481  0.31353238  1
  Zn  Zn154  1  0.55666515  0.56303352  0.80787348  1
  Zn  Zn155  1  0.43059577  0.18818488  0.44835112  1
  Zn  Zn156  1  0.43805133  0.18913940  0.93967092  1
  Zn  Zn157  1  0.43553432  0.68521489  0.44051169  1
  Zn  Zn158  1  0.43473519  0.68468549  0.93761429  1
  Zn  Zn159  1  0.93831745  0.19147371  0.44266196  1
  Zn  Zn160  1  0.94045237  0.18912767  0.93381352  1
  Zn  Zn161  1  0.93575368  0.68679603  0.43659645  1
  Zn  Zn162  1  0.94057431  0.68170105  0.93766133  1
  Zn  Zn163  1  0.06555573  0.31807853  0.05847503  1
  Zn  Zn164  1  0.04002249  0.31989913  0.55217526  1
  Zn  Zn165  1  0.06320186  0.81000312  0.06572028  1
  Zn  Zn166  1  0.06230381  0.81528077  0.56681942  1
  Zn  Zn167  1  0.56609661  0.31046104  0.05909277  1
  Zn  Zn168  1  0.56673024  0.31019244  0.55726757  1
  Zn  Zn169  1  0.56104743  0.81241307  0.05747778  1
  Zn  Zn170  1  0.56164083  0.81004972  0.56313974  1
  O  O171  1  0.12155267  0.11832971  0.12127505  1
  O  O172  1  0.12119342  0.11399295  0.61851959  1
  O  O173  1  0.11625823  0.62630555  0.11175068  1
  O  O174  1  0.11873376  0.62128221  0.62247482  1
  O  O175  1  0.61997257  0.11829221  0.12380419  1
  O  O176  1  0.61248920  0.12713067  0.62661596  1
  O  O177  1  0.61776432  0.61815469  0.11898830  1
  O  O178  1  0.61926092  0.61457320  0.62267091  1
  O  O179  1  0.38064929  0.37527811  0.38450397  1
  O  O180  1  0.37740625  0.39203338  0.87209388  1
  O  O181  1  0.37401729  0.88109244  0.38937417  1
  O  O182  1  0.38020332  0.88051772  0.88207364  1
  O  O183  1  0.88112399  0.38439046  0.36570382  1
  O  O184  1  0.87494894  0.38768595  0.87913193  1
  O  O185  1  0.88498643  0.88127345  0.38385479  1
  O  O186  1  0.88213157  0.88399642  0.87176504  1
  O  O187  1  0.25995080  0.00014509  0.36692044  1
  O  O188  1  0.25563369  0.00381082  0.87192487  1
  O  O189  1  0.24656053  0.50741400  0.36910785  1
  O  O190  1  0.25985163  0.49812698  0.86733544  1
  O  O191  1  0.76586449  -0.00646436  0.37237124  1
  O  O192  1  0.75735680  0.00700084  0.87223557  1
  O  O193  1  0.76302453  0.49582585  0.36694466  1
  O  O194  1  0.75872567  0.50441878  0.86848824  1
  O  O195  1  0.25620788  0.48919423  0.12949741  1
  O  O196  1  0.24403893  0.49749777  0.63292853  1
  O  O197  1  0.24871174  1.00133089  0.13728998  1
  O  O198  1  0.24165670  0.99844147  0.63553898  1
  O  O199  1  0.74477409  0.49361066  0.12870686  1
  O  O200  1  0.74001978  0.49584488  0.62801246  1
  O  O201  1  0.74602982  0.99373948  0.12384715  1
  O  O202  1  0.75640054  0.99236212  0.63307946  1
  O  O203  1  0.01092845  0.36412945  0.24270966  1
  O  O204  1  -0.01219291  0.36723905  0.77498760  1
  O  O205  1  0.00791695  0.86940400  0.25756081  1
  O  O206  1  0.00150750  0.86919717  0.76060184  1
  O  O207  1  0.50974390  0.37499633  0.25482503  1
  O  O208  1  0.50627775  0.37248465  0.75063540  1
  O  O209  1  0.51044721  0.87520313  0.25146414  1
  O  O210  1  0.50132467  0.88038812  0.76363641  1
  O  O211  1  0.50119149  0.13177472  0.24865486  1
  O  O212  1  0.49647479  0.12577960  0.73928085  1
  O  O213  1  0.49578646  0.62299915  0.23570664  1
  O  O214  1  0.49683827  0.61882913  0.72882942  1
  O  O215  1  0.99384556  0.13170651  0.24260900  1
  O  O216  1  0.99302074  0.12440670  0.75309518  1
  O  O217  1  0.99707460  0.63298411  0.24435526  1
  O  O218  1  0.99188645  0.63248629  0.75296625  1
  O  O219  1  0.36325505  0.24436931  0.01013583  1
  O  O220  1  0.37105119  0.26019476  0.51397141  1
  O  O221  1  0.36380477  0.75649655  -0.00155278  1
  O  O222  1  0.36786386  0.75904721  0.50996371  1
  O  O223  1  0.86904083  0.24464578  0.00705013  1
  O  O224  1  0.85751566  0.24623730  0.49611024  1
  O  O225  1  0.87170914  0.74192689  0.01231093  1
  O  O226  1  0.86992314  0.76027226  0.50255400  1
  O  O227  1  0.12063904  0.23972710  0.48742363  1
  O  O228  1  0.13935549  0.24409360  0.99735038  1
  O  O229  1  0.13143043  0.74093662  0.51019707  1
  O  O230  1  0.13003571  0.74849475  0.99359790  1
  O  O231  1  0.64406881  0.24638354  0.50385991  1
  O  O232  1  0.63502559  0.24720914  0.98806757  1
  O  O233  1  0.64184121  0.75638129  0.49859590  1
  O  O234  1  0.63118631  0.74401307  0.99085103  1
  O  O235  1  0.49408851  0.24012634  0.11875100  1
  O  O236  1  0.49347814  0.23879240  0.62369850  1
  O  O237  1  0.49762264  0.74070982  0.12314313  1
  O  O238  1  0.49482016  0.73956942  0.62352585  1
  O  O239  1  0.99588572  0.24625905  0.12951470  1
  O  O240  1  0.99467557  0.25658185  0.62183362  1
  O  O241  1  0.99316967  0.74575990  0.13496662  1
  O  O242  1  0.99658268  0.75193619  0.64093559  1
  O  O243  1  0.00927953  0.24417735  0.36267178  1
  O  O244  1  0.01934687  0.25132300  0.87796475  1
  O  O245  1  -0.00664074  0.75800933  0.36202350  1
  O  O246  1  0.00375048  0.75569687  0.86823094  1
  O  O247  1  0.49637544  0.25470240  0.37211222  1
  O  O248  1  0.50938532  0.25099276  0.87468578  1
  O  O249  1  0.50045161  0.75111773  0.37360998  1
  O  O250  1  0.50875939  0.75658694  0.87983127  1
  O  O251  1  0.23557915  0.11600838  0.49814216  1
  O  O252  1  0.24665018  0.13128115  0.99623022  1
  O  O253  1  0.24429314  0.63416015  0.49684256  1
  O  O254  1  0.23403784  0.63341751  1.00212502  1
  O  O255  1  0.74546599  0.13520009  0.49707227  1
  O  O256  1  0.75045798  0.13648009  0.98995057  1
  O  O257  1  0.76042204  0.64148427  0.50191726  1
  O  O258  1  0.74258520  0.63069705  0.99440394  1
  O  O259  1  0.24755360  0.36772108  0.00886317  1
  O  O260  1  0.25458103  0.38057487  0.51701690  1
  O  O261  1  0.25816319  0.86483142  -0.00593422  1
  O  O262  1  0.25536062  0.87013558  0.50310762  1
  O  O263  1  0.74667053  0.36377073  0.00471642  1
  O  O264  1  0.75029001  0.36198330  0.50814111  1
  O  O265  1  0.74736971  0.86877701  0.01206245  1
  O  O266  1  0.75810167  0.87127168  0.50609026  1
  O  O267  1  0.13475419  0.49150671  0.25060461  1
  O  O268  1  0.13166039  0.50727449  0.74122163  1
  O  O269  1  0.13281394  0.99538799  0.24687831  1
  O  O270  1  0.12838032  0.99869835  0.74602712  1
  O  O271  1  0.62822263  0.49094417  0.24155058  1
  O  O272  1  0.63995498  0.50170564  0.75064940  1
  O  O273  1  0.63124909  0.98896963  0.23716582  1
  O  O274  1  0.64219541  0.99769884  0.75763317  1
  O  O275  1  0.36994720  0.00375894  0.25757927  1
  O  O276  1  0.36646840  -0.00204308  0.76149560  1
  O  O277  1  0.35946915  0.50366461  0.25423965  1
  O  O278  1  0.36886477  0.50317644  0.75837029  1
  O  O279  1  0.87806579  0.00816599  0.25744498  1
  O  O280  1  0.86910252  0.00829868  0.76214556  1
  O  O281  1  0.87062415  0.50632067  0.25625207  1
  O  O282  1  0.86550119  0.50514816  0.75667212  1
  O  O283  1  0.13743272  0.36307244  0.35423232  1
  O  O284  1  0.12080734  0.36321579  0.87435030  1
  O  O285  1  0.11201577  0.88114976  0.36933238  1
  O  O286  1  0.11493613  0.86691634  0.87064917  1
  O  O287  1  0.61482070  0.37604163  0.36536768  1
  O  O288  1  0.62422074  0.36644884  0.87121646  1
  O  O289  1  0.62388212  0.87311569  0.36252908  1
  O  O290  1  0.61739798  0.86628164  0.87458285  1
  O  O291  1  0.38547958  0.13071152  0.13190900  1
  O  O292  1  0.38094658  0.13447468  0.62550496  1
  O  O293  1  0.38094384  0.62859655  0.12426827  1
  O  O294  1  0.38207362  0.63441117  0.62760485  1
  O  O295  1  0.88145653  0.13538615  0.13038257  1
  O  O296  1  0.87704069  0.11831879  0.64052944  1
  O  O297  1  0.88264053  0.63187734  0.13465667  1
  O  O298  1  0.87690805  0.62418044  0.63820342  1
  O  O299  1  0.25886002  0.25767187  0.11883638  1
  O  O300  1  0.25483965  0.26664926  0.63109872  1
  O  O301  1  0.24788647  0.75050259  0.11320422  1
  O  O302  1  0.25736139  0.75295560  0.61624268  1
  O  O303  1  0.75926857  0.25403299  0.11441089  1
  O  O304  1  0.75363275  0.26426210  0.62743856  1
  O  O305  1  0.75808889  0.75593849  0.11979215  1
  O  O306  1  0.75317499  0.75876530  0.61508367  1
  O  O307  1  0.23870817  0.24478378  0.36739911  1
  O  O308  1  0.24549335  0.25010265  0.88127720  1
  O  O309  1  0.24984714  0.74474761  0.39126638  1
  O  O310  1  0.23590074  0.75196374  0.88067046  1
  O  O311  1  0.74895652  0.25178740  0.37976430  1
  O  O312  1  0.74851677  0.24609754  0.87813253  1
  O  O313  1  0.75331386  0.75431826  0.39063096  1
  O  O314  1  0.74537524  0.74435705  0.88042164  1
  O  O315  1  0.00735446  0.12018665  0.00505454  1
  O  O316  1  0.00971469  0.11286745  0.49361779  1
  O  O317  1  0.01279626  0.62951713  0.01028796  1
  O  O318  1  0.00649249  0.62388965  0.50249646  1
  O  O319  1  0.50384858  0.12079487  0.00835976  1
  O  O320  1  0.50297280  0.11937202  0.51008598  1
  O  O321  1  0.50370685  0.61708136  0.00922552  1
  O  O322  1  0.49150175  0.62162472  0.51897643  1
  O  O323  1  0.48991194  0.36879557  0.49079246  1
  O  O324  1  0.50295053  0.38747232  0.99990157  1
  O  O325  1  0.49246552  0.88327986  0.50326345  1
  O  O326  1  0.49219243  0.87825430  0.98773099  1
  O  O327  1  1.04961679  0.39699369  0.47786854  1
  O  O328  1  0.99735458  0.36512608  0.98194239  1
  O  O329  1  0.99470845  0.88040105  0.49436411  1
  O  O330  1  1.00251489  0.87703861  0.98979849  1
  O  O331  1  0.49367502  0.48865356  0.36947813  1
  O  O332  1  0.49358637  0.49884017  0.88360034  1
  O  O333  1  0.48585404  0.99387917  0.38445715  1
  O  O334  1  0.49163823  0.99567937  0.87628436  1
  O  O335  1  0.98334603  0.50796347  0.36911016  1
  O  O336  1  0.98695294  0.49291387  0.87564909  1
  O  O337  1  0.99238446  0.99203508  0.38232616  1
  O  O338  1  0.99430351  0.99142607  0.88076902  1
  O  O339  1  0.00380793  0.00529445  0.11916484  1
  O  O340  1  0.00653133  -0.00715842  0.61565265  1
  O  O341  1  -0.00558323  0.51237205  0.12809087  1
  O  O342  1  0.00825029  0.49800136  0.62534217  1
  O  O343  1  0.50877227  0.01242704  0.12530776  1
  O  O344  1  0.49308824  0.01391970  0.61750332  1
  O  O345  1  0.50160928  0.50520129  0.11736721  1
  O  O346  1  0.51861543  0.50408995  0.62325998  1
  O  O347  1  0.24631616  0.38231442  0.24146030  1
  O  O348  1  0.25473400  0.39023130  0.73507117  1
  O  O349  1  0.23768495  0.88110315  0.25899953  1
  O  O350  1  0.23988896  0.88675063  0.75370563  1
  O  O351  1  0.73798348  0.37820363  0.24244613  1
  O  O352  1  0.74862325  0.38264738  0.73786331  1
  O  O353  1  0.74516080  0.87524557  0.23727245  1
  O  O354  1  0.75312978  0.88332673  0.73945174  1
  O  O355  1  0.25652153  0.11449013  0.25192890  1
  O  O356  1  0.25307920  0.11000275  0.76057922  1
  O  O357  1  0.24395660  0.61875366  0.25901423  1
  O  O358  1  0.25523366  0.61368882  0.74608144  1
  O  O359  1  0.76593759  0.12259573  0.24504222  1
  O  O360  1  0.75884015  0.11906814  0.75500125  1
  O  O361  1  0.76090182  0.61553208  0.24287572  1
  O  O362  1  0.75721395  0.61993226  0.75496150  1
  O  O363  1  0.37491715  0.11734252  0.37250487  1
  O  O364  1  0.37030925  0.11710305  0.87484133  1
  O  O365  1  0.35845515  0.62337967  0.37689249  1
  O  O366  1  0.38147264  0.60874283  0.87118944  1
  O  O367  1  0.88573274  0.11607396  0.36510197  1
  O  O368  1  0.86787339  0.12008934  0.86859518  1
  O  O369  1  0.86882903  0.62541880  0.36159763  1
  O  O370  1  0.87184499  0.61601402  0.86750440  1
  O  O371  1  0.13762449  0.36762262  0.13549460  1
  O  O372  1  0.13708767  0.38538363  0.62593797  1
  O  O373  1  0.11822843  0.88383217  0.13745933  1
  O  O374  1  0.12544924  0.88683628  0.63418098  1
  O  O375  1  0.62902436  0.37892992  0.13029978  1
  O  O376  1  0.63313512  0.38766870  0.62224525  1
  O  O377  1  0.63099034  0.88162590  0.12713368  1
  O  O378  1  0.63607707  0.87462984  0.62632656  1
  O  O379  1  0.11844370  0.25191976  0.25407308  1
  O  O380  1  0.13388667  0.24155993  0.76414491  1
  O  O381  1  0.11639971  0.75869239  0.24541596  1
  O  O382  1  0.11814069  0.75254782  0.75807298  1
  O  O383  1  0.62393433  0.25356875  0.24761728  1
  O  O384  1  0.62621170  0.24989046  0.76176416  1
  O  O385  1  0.62362525  0.76082826  0.24521693  1
  O  O386  1  0.63367636  0.75271112  0.76153423  1
  O  O387  1  0.36983764  0.24188809  0.23959331  1
  O  O388  1  0.37560467  0.24989871  0.73752147  1
  O  O389  1  0.37403083  0.74823622  0.24590165  1
  O  O390  1  0.36789403  0.75336650  0.73741674  1
  O  O391  1  0.88333056  0.24443153  0.24313379  1
  O  O392  1  0.87280001  0.23392656  0.75337299  1
  O  O393  1  0.88053281  0.74394755  0.24168703  1
  O  O394  1  0.88153302  0.74047695  0.75187535  1
  O  O395  1  0.37124039  0.48765779  0.50106343  1
  O  O396  1  0.38035078  0.50366981  0.98825766  1
  O  O397  1  0.37816431  0.99443052  0.49578007  1
  O  O398  1  0.37298019  0.99328230  0.98955265  1
  O  O399  1  0.87662461  0.50136245  0.48254975  1
  O  O400  1  0.86917438  0.50734619  0.98671185  1
  O  O401  1  0.88151649  0.99658687  0.49493041  1
  O  O402  1  0.88138024  1.00682435  0.98681618  1
  O  O403  1  0.11991612  0.00457791  0.00549775  1
  O  O404  1  0.11788669  0.00336751  0.50830230  1
  O  O405  1  0.12963881  0.51190188  -0.00634988  1
  O  O406  1  0.13414613  0.52082621  0.51774938  1
  O  O407  1  0.62519723  0.00140058  0.01048827  1
  O  O408  1  0.61233086  0.00457469  0.48980953  1
  O  O409  1  0.61732684  0.50578298  0.00342352  1
  O  O410  1  0.63250419  0.49846976  0.50460080  1
  O  O411  1  0.37018400  0.36452623  0.13095093  1
  O  O412  1  0.37049487  0.37102304  0.61917080  1
  O  O413  1  0.38139262  0.87707272  0.10885748  1
  O  O414  1  0.37382366  0.87092652  0.61736521  1
  O  O415  1  0.86914007  0.36225889  0.13076496  1
  O  O416  1  0.86050412  0.38701050  0.62203374  1
  O  O417  1  0.86857735  0.86563592  0.12943870  1
  O  O418  1  0.86989867  0.87585997  0.61376528  1
  O  O419  1  0.12758873  0.13066989  0.38232499  1
  O  O420  1  0.13229703  0.13432682  0.88244792  1
  O  O421  1  0.13419030  0.62377208  0.38645054  1
  O  O422  1  0.11436820  0.63401819  0.88950455  1
  O  O423  1  0.60875092  0.13246016  0.36373622  1
  O  O424  1  0.63927817  0.13027098  0.87403374  1
  O  O425  1  0.63637947  0.62846545  0.36356243  1
  O  O426  1  0.62781847  0.63072739  0.87825741  1
