# generated using pymatgen
data_V85Zn86O256
_symmetry_space_group_name_H-M   'P 1'
_cell_length_a   16.91721964
_cell_length_b   16.92353225
_cell_length_c   16.91614404
_cell_angle_alpha   90.04534607
_cell_angle_beta   90.04671416
_cell_angle_gamma   89.99489485
_symmetry_Int_Tables_number   1
_chemical_formula_structural   V85Zn86O256
_chemical_formula_sum   'V85 Zn86 O256'
_cell_volume   4843.07387305
_cell_formula_units_Z   1
loop_
 _symmetry_equiv_pos_site_id
 _symmetry_equiv_pos_as_xyz
  1  'x, y, z'
loop_
 _atom_site_type_symbol
 _atom_site_label
 _atom_site_symmetry_multiplicity
 _atom_site_fract_x
 _atom_site_fract_y
 _atom_site_fract_z
 _atom_site_occupancy
  V  V0  1  0.73609965  0.62942019  0.38086907  1
  V  V1  1  0.50030096  -0.00247688  0.00514058  1
  V  V2  1  0.49904212  0.23933220  0.24750699  1
  V  V3  1  0.37462221  0.50323858  0.87767944  1
  V  V4  1  0.74836997  0.11579724  0.36894541  1
  V  V5  1  0.13052486  0.13232256  -0.00216241  1
  V  V6  1  0.00106501  0.88539971  0.37816829  1
  V  V7  1  0.24578714  -0.01383963  0.74875184  1
  V  V8  1  0.38282708  0.25902388  0.62724132  1
  V  V9  1  0.87536256  0.87514237  -0.00120980  1
  V  V10  1  0.01582009  0.87068088  0.87489451  1
  V  V11  1  0.12327404  0.74973761  0.37360845  1
  V  V12  1  0.73822388  0.75682316  0.49959153  1
  V  V13  1  0.24780252  0.75414077  0.50919411  1
  V  V14  1  0.12992349  0.24207309  0.37824431  1
  V  V15  1  0.62120044  0.37524260  0.74762524  1
  V  V16  1  0.37691847  0.24300828  0.12080965  1
  V  V17  1  0.37281759  0.75315172  0.12935280  1
  V  V18  1  0.62795457  0.61743211  -0.00293022  1
  V  V19  1  0.62276377  0.24963632  0.37189383  1
  V  V20  1  0.87385212  0.11598170  0.74742853  1
  V  V21  1  0.50496924  0.74834541  0.25756832  1
  V  V22  1  0.74995762  0.24882956  0.49820772  1
  V  V23  1  0.00672507  0.24845136  0.75005919  1
  V  V24  1  0.25105528  0.13416528  0.86950794  1
  V  V25  1  0.24409399  0.50157428  0.74200190  1
  V  V26  1  0.87413902  0.50208539  0.37446588  1
  V  V27  1  -0.00056680  0.50261296  -0.00187573  1
  V  V28  1  0.00130958  0.62101937  0.62806558  1
  V  V29  1  0.50546818  0.62302322  0.60912436  1
  V  V30  1  0.01324810  0.75171382  0.75452433  1
  V  V31  1  0.50684007  0.61699142  0.12859498  1
  V  V32  1  0.00090400  0.50004791  0.50264505  1
  V  V33  1  0.35937334  0.12051382  0.25241141  1
  V  V34  1  0.87096557  0.11292175  0.24648428  1
  V  V35  1  0.24602672  0.75372633  0.00096478  1
  V  V36  1  0.37119027  0.87905949  0.50614583  1
  V  V37  1  0.87282992  0.37444078  -0.00270555  1
  V  V38  1  -0.00021270  0.12258477  0.12151984  1
  V  V39  1  0.36294053  0.00403416  0.37640914  1
  V  V40  1  0.37492433  0.49583472  0.39005329  1
  V  V41  1  0.24909690  0.62265624  0.37447975  1
  V  V42  1  0.87330307  0.75766750  0.62213344  1
  V  V43  1  0.37983549  0.75448015  0.63221014  1
  V  V44  1  0.49691405  0.37256029  0.86992088  1
  V  V45  1  0.36957172  0.36983230  -0.00203506  1
  V  V46  1  0.24941612  0.36838342  0.12042098  1
  V  V47  1  0.00637014  0.12060732  0.61428565  1
  V  V48  1  0.74602940  0.74880456  -0.00839540  1
  V  V49  1  0.12676046  -0.01569128  0.62303454  1
  V  V50  1  0.64530129  0.87240886  0.74889901  1
  V  V51  1  0.86617804  0.50620725  0.87379719  1
  V  V52  1  0.87498846  0.62682913  0.25215056  1
  V  V53  1  0.62010756  0.12366614  0.00403752  1
  V  V54  1  0.38829538  0.62883244  0.75302032  1
  V  V55  1  0.62262698  0.12406569  0.50210014  1
  V  V56  1  0.49917589  -0.00068757  0.50403326  1
  V  V57  1  0.74741608  0.24903900  -0.00280263  1
  V  V58  1  0.12275461  0.37354474  0.24733740  1
  V  V59  1  0.87670443  0.24823643  0.62609627  1
  V  V60  1  0.74874387  0.11449996  0.86956055  1
  V  V61  1  0.61812925  0.38356727  0.24515289  1
  V  V62  1  0.14235599  -0.00258889  0.12520979  1
  V  V63  1  0.24271222  0.63022089  0.87605723  1
  V  V64  1  0.87396542  0.74961323  0.12449424  1
  V  V65  1  0.87517778  0.37473839  0.49959713  1
  V  V66  1  -0.00217017  0.37418851  0.37388915  1
  V  V67  1  0.86447273  0.62888252  0.75110039  1
  V  V68  1  0.00101835  -0.00006124  -0.00256030  1
  V  V69  1  0.12566817  0.61830896  0.50461624  1
  V  V70  1  0.49588444  0.37777796  0.38425240  1
  V  V71  1  0.75008727  0.88009044  0.13043232  1
  V  V72  1  0.74169151  0.37858952  0.12256084  1
  V  V73  1  0.49873332  0.86909387  0.86381906  1
  V  V74  1  0.63764469  -0.00116834  0.63321642  1
  V  V75  1  0.62466571  0.00249609  0.13328901  1
  V  V76  1  -0.00492201  0.24834902  0.24803249  1
  V  V77  1  0.74575668  0.50099207  0.24675419  1
  V  V78  1  0.13965192  0.87829029  0.24748497  1
  V  V79  1  0.61867568  0.24553307  0.86845753  1
  V  V80  1  0.37462758  0.87522265  0.00504294  1
  V  V81  1  0.62687168  0.87343231  0.25737557  1
  V  V82  1  0.12646045  0.50193106  0.12269017  1
  V  V83  1  0.74941748  0.37908713  0.62645513  1
  V  V84  1  0.37795141  0.61996997  0.25072760  1
  Zn  Zn85  1  0.61825686  0.49908825  0.61135255  1
  Zn  Zn86  1  0.12716035  0.25776934  0.87775268  1
  Zn  Zn87  1  0.12113984  0.38333970  0.74531396  1
  Zn  Zn88  1  0.50224543  0.49582675  0.00639387  1
  Zn  Zn89  1  0.37443272  0.00079118  0.87261658  1
  Zn  Zn90  1  0.87320217  -0.00605932  0.86950469  1
  Zn  Zn91  1  0.24715059  0.37480287  0.61049374  1
  Zn  Zn92  1  0.00075591  0.62670942  0.12509292  1
  Zn  Zn93  1  0.00183495  0.75221929  0.24813384  1
  Zn  Zn94  1  0.50278227  0.87331913  0.37913512  1
  Zn  Zn95  1  0.74458131  0.50581026  0.75080653  1
  Zn  Zn96  1  0.26261719  0.24790233  0.49799785  1
  Zn  Zn97  1  0.38102081  0.12821002  0.75045437  1
  Zn  Zn98  1  0.87661641  0.00009371  0.37919145  1
  Zn  Zn99  1  0.87233263  0.24778978  0.12204206  1
  Zn  Zn100  1  0.50308930  0.13147301  0.64231151  1
  Zn  Zn101  1  0.62275839  0.74240312  0.86674414  1
  Zn  Zn102  1  0.13390283  0.11605932  0.49587077  1
  Zn  Zn103  1  0.87699926  0.88189537  0.50574272  1
  Zn  Zn104  1  0.12329789  0.63177511  -0.00012141  1
  Zn  Zn105  1  0.00056932  0.37558301  0.87127900  1
  Zn  Zn106  1  0.25048894  0.49792957  0.24950254  1
  Zn  Zn107  1  0.18600870  0.18827076  0.18529966  1
  Zn  Zn108  1  0.19257451  0.18827065  0.68217229  1
  Zn  Zn109  1  0.19055193  0.68838725  0.18698952  1
  Zn  Zn110  1  0.19110727  0.68320558  0.68762510  1
  Zn  Zn111  1  0.68697954  0.19056723  0.18562808  1
  Zn  Zn112  1  0.68717119  0.18894438  0.68795570  1
  Zn  Zn113  1  0.68740126  0.68914696  0.18549221  1
  Zn  Zn114  1  0.68547361  0.69320110  0.68135921  1
  Zn  Zn115  1  0.31210588  0.31389903  0.31027611  1
  Zn  Zn116  1  0.31309860  0.31286101  0.80364121  1
  Zn  Zn117  1  0.31512261  0.81215611  0.32002519  1
  Zn  Zn118  1  0.31347734  0.81277792  0.81616535  1
  Zn  Zn119  1  0.81008342  0.30888830  0.31009847  1
  Zn  Zn120  1  0.81156925  0.30855862  0.81097435  1
  Zn  Zn121  1  0.81219655  0.81195107  0.31471396  1
  Zn  Zn122  1  0.82038411  0.81041109  0.81498891  1
  Zn  Zn123  1  0.18869673  0.43292570  0.43699846  1
  Zn  Zn124  1  0.18735838  0.43743925  0.93240137  1
  Zn  Zn125  1  0.18692041  0.93634188  0.44140129  1
  Zn  Zn126  1  0.19226023  0.94277964  0.93874353  1
  Zn  Zn127  1  0.68801922  0.43462866  0.43336703  1
  Zn  Zn128  1  0.68524897  0.43835308  0.93485899  1
  Zn  Zn129  1  0.68914020  0.93836503  0.44074850  1
  Zn  Zn130  1  0.68413949  0.93398230  0.93872892  1
  Zn  Zn131  1  0.31546682  0.06756434  0.05809116  1
  Zn  Zn132  1  0.30839266  0.07625197  0.56655180  1
  Zn  Zn133  1  0.31291876  0.56286044  0.06252437  1
  Zn  Zn134  1  0.31559115  0.56863108  0.56517642  1
  Zn  Zn135  1  0.81029653  0.06065537  0.05943951  1
  Zn  Zn136  1  0.81588190  0.06010971  0.55840536  1
  Zn  Zn137  1  0.80929817  0.56241694  0.06288087  1
  Zn  Zn138  1  0.81025037  0.56596853  0.56195050  1
  Zn  Zn139  1  0.43693388  0.43605288  0.19115828  1
  Zn  Zn140  1  0.43427955  0.44115732  0.68605830  1
  Zn  Zn141  1  0.43794303  0.93870634  0.18941164  1
  Zn  Zn142  1  0.43564885  0.94706119  0.68681001  1
  Zn  Zn143  1  0.93410243  0.43814440  0.18288952  1
  Zn  Zn144  1  0.93618519  0.43872180  0.68878934  1
  Zn  Zn145  1  0.94650476  0.93441049  0.18899196  1
  Zn  Zn146  1  0.94529261  0.93642730  0.68864675  1
  Zn  Zn147  1  0.06615245  0.06155771  0.30507926  1
  Zn  Zn148  1  0.06570210  0.06230526  0.80917854  1
  Zn  Zn149  1  0.06106071  0.56280507  0.31087239  1
  Zn  Zn150  1  0.05933007  0.56582410  0.81549856  1
  Zn  Zn151  1  0.55636918  0.05974616  0.31598485  1
  Zn  Zn152  1  0.56206509  0.05367591  0.81544588  1
  Zn  Zn153  1  0.56072392  0.55850902  0.43265908  1
  Zn  Zn154  1  0.56301703  0.55819080  0.81460974  1
  Zn  Zn155  1  0.43516898  0.18754713  0.43917644  1
  Zn  Zn156  1  0.43795025  0.18549522  0.93481250  1
  Zn  Zn157  1  0.43085596  0.69307533  0.43602927  1
  Zn  Zn158  1  0.43992669  0.68907540  0.94185718  1
  Zn  Zn159  1  0.93782318  0.18464137  0.43563584  1
  Zn  Zn160  1  0.93693061  0.18668089  0.93259803  1
  Zn  Zn161  1  0.93707034  0.69140683  0.43869590  1
  Zn  Zn162  1  0.93702525  0.68754728  0.93538626  1
  Zn  Zn163  1  0.05836249  0.31320911  0.06084903  1
  Zn  Zn164  1  0.06926949  0.31533486  0.56613537  1
  Zn  Zn165  1  0.06331861  0.81637217  0.06571588  1
  Zn  Zn166  1  0.05961520  0.80881914  0.56232806  1
  Zn  Zn167  1  0.55739699  0.31051272  0.06031520  1
  Zn  Zn168  1  0.55967499  0.31053285  0.56368653  1
  Zn  Zn169  1  0.56114160  0.80929761  0.06625064  1
  Zn  Zn170  1  0.56007463  0.81527585  0.57073045  1
  O  O171  1  0.12046039  0.11837355  0.11808336  1
  O  O172  1  0.11726549  0.12028522  0.62299163  1
  O  O173  1  0.12392582  0.61529394  0.12287833  1
  O  O174  1  0.11632096  0.62863612  0.61513710  1
  O  O175  1  0.63219223  0.11597662  0.11580150  1
  O  O176  1  0.62426023  0.11750517  0.61940854  1
  O  O177  1  0.61660375  0.62977772  0.11477081  1
  O  O178  1  0.60719433  0.62530252  0.62979027  1
  O  O179  1  0.38362015  0.38475298  0.36526462  1
  O  O180  1  0.37857988  0.37901270  0.87959046  1
  O  O181  1  0.37880865  0.88162025  0.38866792  1
  O  O182  1  0.38710673  0.87696836  0.88230165  1
  O  O183  1  0.87759605  0.38003230  0.37837750  1
  O  O184  1  0.87286185  0.38088530  0.88507965  1
  O  O185  1  0.89260719  0.87551080  0.36756444  1
  O  O186  1  0.88589142  0.87606110  0.88349070  1
  O  O187  1  0.26366012  -0.00442980  0.37914164  1
  O  O188  1  0.24956520  0.00857618  0.86373956  1
  O  O189  1  0.25516098  0.50596583  0.37029541  1
  O  O190  1  0.26077255  0.51008347  0.87186675  1
  O  O191  1  0.74836656  0.01311730  0.37336793  1
  O  O192  1  0.74984193  0.01137569  0.88113912  1
  O  O193  1  0.75625002  0.51153026  0.36766071  1
  O  O194  1  0.76171174  0.49786668  0.87314076  1
  O  O195  1  0.24233147  0.48965368  0.12393482  1
  O  O196  1  0.25641589  0.50519582  0.64010797  1
  O  O197  1  0.24120191  1.00216858  0.11726642  1
  O  O198  1  0.23880031  1.00320292  0.63835896  1
  O  O199  1  0.75264112  0.48679306  0.13005822  1
  O  O200  1  0.75063127  0.48799602  0.62566953  1
  O  O201  1  0.74175950  0.98779494  0.12009179  1
  O  O202  1  0.73599745  1.00401272  0.62182160  1
  O  O203  1  0.00099504  0.36712701  0.25018315  1
  O  O204  1  -0.00326350  0.36365164  0.74957127  1
  O  O205  1  0.01278877  0.87109547  0.26058240  1
  O  O206  1  -0.00108954  0.85981889  0.75924549  1
  O  O207  1  0.50493812  0.36551688  0.25382742  1
  O  O208  1  0.50512459  0.38121923  0.76208602  1
  O  O209  1  0.50787206  0.86631279  0.25028923  1
  O  O210  1  0.50014300  0.88158887  0.76282361  1
  O  O211  1  0.49682212  0.13659331  0.25132388  1
  O  O212  1  0.49644481  0.11795041  0.75625821  1
  O  O213  1  0.49194645  0.63355027  0.24255243  1
  O  O214  1  0.49038547  0.62451072  0.75108214  1
  O  O215  1  0.99200314  0.13069991  0.24232517  1
  O  O216  1  0.99212260  0.13113124  0.74442517  1
  O  O217  1  0.98694848  0.62712316  0.24734649  1
  O  O218  1  0.99286202  0.63303129  0.74534991  1
  O  O219  1  0.37990997  0.25601744  0.00888859  1
  O  O220  1  0.38081481  0.24655016  0.51713281  1
  O  O221  1  0.37097219  0.75657106  0.00990034  1
  O  O222  1  0.36683711  0.75838371  0.50770494  1
  O  O223  1  0.86789312  0.25799886  -0.00261942  1
  O  O224  1  0.87023381  0.25382950  0.50530634  1
  O  O225  1  0.86788447  0.75294575  0.00628214  1
  O  O226  1  0.87028797  0.75347415  0.50835407  1
  O  O227  1  0.11489940  0.24912577  0.48121560  1
  O  O228  1  0.11878386  0.23628428  0.99987223  1
  O  O229  1  0.13070550  0.74140604  0.49518283  1
  O  O230  1  0.14181306  0.75135667  1.01143890  1
  O  O231  1  0.62936677  0.24153041  0.49529272  1
  O  O232  1  0.62622124  0.24071911  0.99363091  1
  O  O233  1  0.63878328  0.75708590  0.50526194  1
  O  O234  1  0.63176062  0.74243602  0.99990179  1
  O  O235  1  0.48559644  0.25513807  0.13317223  1
  O  O236  1  0.49094952  0.25016353  0.62823356  1
  O  O237  1  0.49000040  0.74121047  0.13319982  1
  O  O238  1  0.49015701  0.73785944  0.62134159  1
  O  O239  1  0.99631300  0.24258281  0.13078921  1
  O  O240  1  0.99460889  0.24088985  0.63018405  1
  O  O241  1  0.98638070  0.74931427  0.12412697  1
  O  O242  1  0.99457232  0.74085929  0.63415546  1
  O  O243  1  0.00203243  0.25544732  0.36491920  1
  O  O244  1  0.00139334  0.25217795  0.86461396  1
  O  O245  1  0.01350274  0.75272076  0.37307276  1
  O  O246  1  -0.00049605  0.75394493  0.86354869  1
  O  O247  1  0.50362587  0.25532089  0.36633818  1
  O  O248  1  0.51131491  0.25687972  0.87922961  1
  O  O249  1  0.49566900  0.75225426  0.36196989  1
  O  O250  1  0.50320056  0.76550356  0.88069669  1
  O  O251  1  0.24600208  0.13418146  0.49479567  1
  O  O252  1  0.24144613  0.11951972  0.98454699  1
  O  O253  1  0.24214897  0.63052271  0.49611719  1
  O  O254  1  0.25187668  0.63408025  0.99303311  1
  O  O255  1  0.73998867  0.12967614  0.49231548  1
  O  O256  1  0.74044247  0.12950991  0.99232943  1
  O  O257  1  0.75353422  0.63438167  0.48668950  1
  O  O258  1  0.73569733  0.63210343  1.00718956  1
  O  O259  1  0.26111080  0.37743847  0.00386474  1
  O  O260  1  0.24727075  0.36224976  0.49551649  1
  O  O261  1  0.26606750  0.86954737  -0.00683839  1
  O  O262  1  0.25740526  0.86467113  0.50019173  1
  O  O263  1  0.75209867  0.37113861  0.00405225  1
  O  O264  1  0.75646716  0.36810326  0.50453179  1
  O  O265  1  0.75384850  0.86788495  0.00759578  1
  O  O266  1  0.75652482  0.85988173  0.48986892  1
  O  O267  1  0.12274179  0.49419117  0.23706885  1
  O  O268  1  0.14100799  0.50939133  0.75440803  1
  O  O269  1  0.12543842  0.99254899  0.23730242  1
  O  O270  1  0.13652947  1.00125682  0.74127978  1
  O  O271  1  0.63157233  0.48461368  0.25058593  1
  O  O272  1  0.62726515  0.48747271  0.74911888  1
  O  O273  1  0.61671396  0.99504116  0.23831528  1
  O  O274  1  0.62656563  0.98910437  0.74131535  1
  O  O275  1  0.38154409  0.01333769  0.25795209  1
  O  O276  1  0.35919250  0.00263459  0.75134676  1
  O  O277  1  0.37303006  0.51141505  0.25310675  1
  O  O278  1  0.36884618  0.51036747  0.75941259  1
  O  O279  1  0.88059717  0.01046173  0.25157474  1
  O  O280  1  0.87979914  0.01163272  0.75012962  1
  O  O281  1  0.86769619  0.50721842  0.25265508  1
  O  O282  1  0.87282106  0.50980307  0.75728861  1
  O  O283  1  0.11452755  0.36752992  0.36403626  1
  O  O284  1  0.12038722  0.37448764  0.86638187  1
  O  O285  1  0.11937700  0.86883030  0.37067598  1
  O  O286  1  0.11485458  0.87544405  0.88519393  1
  O  O287  1  0.61938550  0.36730420  0.36334274  1
  O  O288  1  0.61691699  0.36793787  0.86999873  1
  O  O289  1  0.62443808  0.88366230  0.36085706  1
  O  O290  1  0.61725331  0.87507746  0.86275046  1
  O  O291  1  0.37179912  0.13205491  0.13613805  1
  O  O292  1  0.38269158  0.13429428  0.63032666  1
  O  O293  1  0.38107213  0.62992623  0.13279725  1
  O  O294  1  0.38582199  0.63356963  0.63257939  1
  O  O295  1  0.87830792  0.12547177  0.12943976  1
  O  O296  1  0.88038666  0.12909079  0.63056759  1
  O  O297  1  0.87244355  0.63288790  0.13268354  1
  O  O298  1  0.88221622  0.63356367  0.63094637  1
  O  O299  1  0.25833046  0.26056639  0.12762691  1
  O  O300  1  0.26412277  0.25271780  0.62405166  1
  O  O301  1  0.26560051  0.74457282  0.11875059  1
  O  O302  1  0.26011127  0.74169632  0.61535176  1
  O  O303  1  0.75112376  0.26106126  0.11632235  1
  O  O304  1  0.75435155  0.26007008  0.61897597  1
  O  O305  1  0.75909903  0.75851471  0.11784551  1
  O  O306  1  0.75901470  0.74341516  0.60820992  1
  O  O307  1  0.23086487  0.25320132  0.36532580  1
  O  O308  1  0.24732533  0.23849191  0.86902527  1
  O  O309  1  0.24070190  0.74416488  0.38625933  1
  O  O310  1  0.25882896  0.74111619  0.88702104  1
  O  O311  1  0.74228913  0.24279453  0.37945524  1
  O  O312  1  0.73749925  0.24375992  0.87966038  1
  O  O313  1  0.75397190  0.73800417  0.38481483  1
  O  O314  1  0.74823421  0.75375657  0.88848278  1
  O  O315  1  0.00479001  0.11726677  0.00117585  1
  O  O316  1  0.00160813  0.12586352  0.51189733  1
  O  O317  1  0.00125614  0.61502064  0.00133304  1
  O  O318  1  0.00603865  0.62224410  0.50776078  1
  O  O319  1  0.51236223  0.11478289  -0.00639656  1
  O  O320  1  0.51383491  0.11907829  0.49843075  1
  O  O321  1  0.51021076  0.62436854  0.01001027  1
  O  O322  1  0.49822735  0.62849521  0.50491163  1
  O  O323  1  0.50741991  0.37225056  0.48309960  1
  O  O324  1  0.49002975  0.37640156  0.98974799  1
  O  O325  1  0.49375114  0.88215339  0.50053783  1
  O  O326  1  0.49328459  0.87812311  0.99604541  1
  O  O327  1  0.99352414  0.38055808  0.49582493  1
  O  O328  1  0.98983770  0.38532309  0.99879693  1
  O  O329  1  1.00068430  0.86677452  0.48142154  1
  O  O330  1  0.99577211  0.88087682  0.99555203  1
  O  O331  1  0.48810990  0.49141118  0.37246266  1
  O  O332  1  0.48869805  0.49235718  0.87897796  1
  O  O333  1  0.49235912  0.99815508  0.38981943  1
  O  O334  1  0.50194825  0.98480000  0.88941866  1
  O  O335  1  0.99341314  0.49398199  0.37912400  1
  O  O336  1  0.98889246  0.49907238  0.88212252  1
  O  O337  1  1.00519022  0.98776045  0.37208603  1
  O  O338  1  1.00185309  0.99385958  0.88399468  1
  O  O339  1  0.00533987  0.00419091  0.11281874  1
  O  O340  1  0.01666849  0.00789145  0.63442217  1
  O  O341  1  0.00605882  0.50105119  0.11547280  1
  O  O342  1  -0.00634693  0.51366330  0.62054116  1
  O  O343  1  0.50932444  -0.00533197  0.11350845  1
  O  O344  1  0.50916376  0.00309557  0.61452120  1
  O  O345  1  0.49453814  0.51268467  0.12563218  1
  O  O346  1  0.49671583  0.51855153  0.62601596  1
  O  O347  1  0.24148340  0.37662157  0.23863051  1
  O  O348  1  0.25124067  0.39693839  0.75432779  1
  O  O349  1  0.23908579  0.86950516  0.25675070  1
  O  O350  1  0.24946674  0.88693642  0.75623693  1
  O  O351  1  0.74251586  0.37619671  0.24067323  1
  O  O352  1  0.74319282  0.37543323  0.74135350  1
  O  O353  1  0.74261559  0.86850460  0.24094529  1
  O  O354  1  0.74371523  0.87669046  0.75688426  1
  O  O355  1  0.26069328  0.12599555  0.24921331  1
  O  O356  1  0.24862620  0.11873148  0.76246298  1
  O  O357  1  0.25946365  0.62413710  0.25644435  1
  O  O358  1  0.26048210  0.61934939  0.75831503  1
  O  O359  1  0.75917969  0.13354913  0.25658073  1
  O  O360  1  0.75902375  0.13130083  0.75859976  1
  O  O361  1  0.75741250  0.62468063  0.25762816  1
  O  O362  1  0.76012177  0.62602804  0.74229576  1
  O  O363  1  0.37884863  0.11949888  0.36141205  1
  O  O364  1  0.36177672  0.12203793  0.87702432  1
  O  O365  1  0.37013086  0.61820634  0.36857774  1
  O  O366  1  0.37285854  0.61980264  0.87174271  1
  O  O367  1  0.86638306  0.12525485  0.36510917  1
  O  O368  1  0.86546828  0.12255936  0.86628677  1
  O  O369  1  0.87126276  0.62157717  0.36742006  1
  O  O370  1  0.87685094  0.61861233  0.86462614  1
  O  O371  1  0.13096809  0.37912777  0.12596269  1
  O  O372  1  0.13259011  0.37561428  0.63258738  1
  O  O373  1  0.12388458  0.88521066  0.13440107  1
  O  O374  1  0.11947102  0.88494162  0.62483932  1
  O  O375  1  0.63052073  0.36924511  0.12977542  1
  O  O376  1  0.63023450  0.37619701  0.63182353  1
  O  O377  1  0.63209112  0.88118200  0.13223974  1
  O  O378  1  0.62409720  0.88449260  0.64016376  1
  O  O379  1  0.11182344  0.25162841  0.25373586  1
  O  O380  1  0.11206182  0.24488007  0.74948128  1
  O  O381  1  0.12538415  0.75455100  0.25751798  1
  O  O382  1  0.11172912  0.74293675  0.74685527  1
  O  O383  1  0.61603525  0.25583258  0.25178031  1
  O  O384  1  0.62825104  0.26247405  0.75750457  1
  O  O385  1  0.61592492  0.75970318  0.24321540  1
  O  O386  1  0.62946797  0.76656561  0.75026302  1
  O  O387  1  0.37897526  0.23889540  0.24502121  1
  O  O388  1  0.37390490  0.24673762  0.73702569  1
  O  O389  1  0.37917527  0.74225990  0.24695511  1
  O  O390  1  0.36897756  0.74396720  0.74028878  1
  O  O391  1  0.88460566  0.24386085  0.24708748  1
  O  O392  1  0.88225488  0.24086765  0.74402666  1
  O  O393  1  0.87532729  0.74294081  0.24227069  1
  O  O394  1  0.88158075  0.74304474  0.74344654  1
  O  O395  1  0.37095318  0.50405008  0.48938033  1
  O  O396  1  0.37645358  0.49170450  0.99311101  1
  O  O397  1  0.38016148  0.99607846  0.49939560  1
  O  O398  1  0.38370419  0.99309145  0.99968289  1
  O  O399  1  0.88001317  0.49583629  0.49420691  1
  O  O400  1  0.87917076  0.49615634  0.99446338  1
  O  O401  1  0.87430276  0.99428633  0.49313412  1
  O  O402  1  0.88442582  0.99432050  0.99745818  1
  O  O403  1  0.11878234  0.00870886  0.00581710  1
  O  O404  1  0.12928851  -0.00106812  0.51715538  1
  O  O405  1  0.11704018  0.49929387  0.00785586  1
  O  O406  1  0.11766641  0.51229688  0.48996926  1
  O  O407  1  0.62011292  0.00391519  0.00916601  1
  O  O408  1  0.62023123  0.00415839  0.50903734  1
  O  O409  1  0.62332997  0.51267113  -0.00113092  1
  O  O410  1  0.63107043  0.50281390  0.49893739  1
  O  O411  1  0.36773672  0.36895243  0.11839207  1
  O  O412  1  0.37125125  0.36557502  0.63023259  1
  O  O413  1  0.38101667  0.86614522  0.11856992  1
  O  O414  1  0.38218577  0.86848326  0.61570448  1
  O  O415  1  0.86636139  0.37371500  0.11097360  1
  O  O416  1  0.86734020  0.36983488  0.62039149  1
  O  O417  1  0.86938202  0.87020733  0.12200856  1
  O  O418  1  0.88304008  0.86161889  0.62681678  1
  O  O419  1  0.11556745  0.13869849  0.37332533  1
  O  O420  1  0.13416919  0.12720147  0.88125494  1
  O  O421  1  0.12810579  0.63199344  0.37941531  1
  O  O422  1  0.13862620  0.62264452  0.87999438  1
  O  O423  1  0.62990921  0.12888553  0.37992343  1
  O  O424  1  0.63088260  0.12962486  0.87987732  1
  O  O425  1  0.63830294  0.62440213  0.36985561  1
  O  O426  1  0.61835792  0.62703788  0.89088047  1
