# generated using pymatgen
data_V85Zn86O256
_symmetry_space_group_name_H-M   'P 1'
_cell_length_a   16.94497247
_cell_length_b   16.94408767
_cell_length_c   16.94081312
_cell_angle_alpha   89.92098715
_cell_angle_beta   90.05641695
_cell_angle_gamma   90.00276858
_symmetry_Int_Tables_number   1
_chemical_formula_structural   V85Zn86O256
_chemical_formula_sum   'V85 Zn86 O256'
_cell_volume   4863.99013194
_cell_formula_units_Z   1
loop_
 _symmetry_equiv_pos_site_id
 _symmetry_equiv_pos_as_xyz
  1  'x, y, z'
loop_
 _atom_site_type_symbol
 _atom_site_label
 _atom_site_symmetry_multiplicity
 _atom_site_fract_x
 _atom_site_fract_y
 _atom_site_fract_z
 _atom_site_occupancy
  V  V0  1  0.36512645  0.36994457  0.50186817  1
  V  V1  1  0.87716945  0.25497821  0.61863947  1
  V  V2  1  0.75013644  0.62631981  0.37359583  1
  V  V3  1  0.88367033  0.48205010  0.88248191  1
  V  V4  1  0.37431291  0.25087314  0.12603149  1
  V  V5  1  0.50127759  0.37652370  0.87608045  1
  V  V6  1  0.11639744  0.37215136  0.76009237  1
  V  V7  1  0.25620083  0.00647572  0.75157885  1
  V  V8  1  0.37630066  0.23906941  0.62551487  1
  V  V9  1  0.12144525  0.62564338  0.50386589  1
  V  V10  1  0.00438426  -0.00243376  0.49315851  1
  V  V11  1  0.24369280  0.61532975  0.37051515  1
  V  V12  1  0.00186437  0.75316083  0.75363257  1
  V  V13  1  0.25048802  0.75063640  0.49853967  1
  V  V14  1  -0.00087059  0.62600250  0.12232346  1
  V  V15  1  0.12757369  0.37755082  0.25462838  1
  V  V16  1  0.62019469  0.62285353  0.50175199  1
  V  V17  1  0.74959824  0.74889070  -0.00317118  1
  V  V18  1  0.50516681  0.25041607  0.25456253  1
  V  V19  1  0.12603283  0.61687593  -0.00718453  1
  V  V20  1  0.11437348  0.75581938  0.37721862  1
  V  V21  1  0.74201155  0.87985758  0.12001178  1
  V  V22  1  0.49899787  -0.00481472  0.00637011  1
  V  V23  1  0.74727361  0.75413478  0.50132186  1
  V  V24  1  0.49912399  0.49947974  0.50326071  1
  V  V25  1  0.75149100  0.12238332  0.86625492  1
  V  V26  1  0.49992489  0.62125441  0.62188645  1
  V  V27  1  0.87563962  0.12874652  0.24297200  1
  V  V28  1  0.49466435  0.62757999  0.13658018  1
  V  V29  1  0.87759333  -0.00728147  0.37080959  1
  V  V30  1  0.25118524  0.12754305  0.38449330  1
  V  V31  1  0.62298185  0.61701282  0.00411496  1
  V  V32  1  0.91570442  0.30580728  0.07936680  1
  V  V33  1  0.75439528  0.38147261  0.61573635  1
  V  V34  1  0.24834070  0.87568318  0.62639146  1
  V  V35  1  0.87725598  0.48892341  0.37790152  1
  V  V36  1  0.37235872  0.62528414  0.75439364  1
  V  V37  1  0.12446772  0.24421943  0.38623910  1
  V  V38  1  0.87343837  0.75193035  0.62471363  1
  V  V39  1  0.13666225  0.74903397  0.87555090  1
  V  V40  1  0.11332496  0.87751833  0.25231270  1
  V  V41  1  0.74811171  0.25311543  0.00533452  1
  V  V42  1  0.74879235  0.13011486  0.37118741  1
  V  V43  1  0.12257517  0.49693465  0.62802445  1
  V  V44  1  0.62141374  0.75501857  0.36549473  1
  V  V45  1  0.87952647  0.87583105  -0.00115946  1
  V  V46  1  0.00336794  0.12221471  0.12004510  1
  V  V47  1  0.25397860  0.38145058  0.12978951  1
  V  V48  1  0.73972244  0.37802658  0.12262821  1
  V  V49  1  0.87595009  -0.00105960  0.86578506  1
  V  V50  1  0.11655914  0.24185407  0.88159780  1
  V  V51  1  0.36147508  0.49654697  0.36986094  1
  V  V52  1  0.74512471  0.89126611  0.62790168  1
  V  V53  1  0.62276281  0.12267117  0.49259507  1
  V  V54  1  0.24870682  0.36569985  0.62886697  1
  V  V55  1  0.49625116  0.25070112  0.74441712  1
  V  V56  1  -0.00047870  0.25544898  0.25558635  1
  V  V57  1  0.74722468  0.50164825  0.74619960  1
  V  V58  1  0.37472321  0.86764481  0.00537388  1
  V  V59  1  0.12292585  0.50030523  0.12456358  1
  V  V60  1  0.74874194  0.25399372  0.49310193  1
  V  V61  1  0.00195757  0.12619659  0.62046072  1
  V  V62  1  0.24854232  0.50062105  0.75610700  1
  V  V63  1  0.50109362  0.37244898  0.37878083  1
  V  V64  1  0.62137083  0.37989193  0.25307610  1
  V  V65  1  0.50427865  0.75062040  0.74977728  1
  V  V66  1  -0.00157280  0.62522813  0.62515101  1
  V  V67  1  0.55970332  0.06888584  0.67327922  1
  V  V68  1  0.25906965  0.12743047  0.88102475  1
  V  V69  1  0.87433378  0.62478630  0.75656494  1
  V  V70  1  0.37696112  0.88406437  0.49616920  1
  V  V71  1  0.63037210  0.11665134  0.00653485  1
  V  V72  1  0.74557286  0.50308894  0.24543677  1
  V  V73  1  0.25087843  -0.00098148  0.25489804  1
  V  V74  1  0.12623830  0.00689521  0.62213078  1
  V  V75  1  0.50540621  0.12231516  0.12705966  1
  V  V76  1  0.62329381  0.38122974  0.73826828  1
  V  V77  1  0.25383880  0.74184325  0.01160422  1
  V  V78  1  0.74256588  0.00196180  0.24246264  1
  V  V79  1  0.37556049  0.74627037  0.62012981  1
  V  V80  1  0.49513353  0.88170978  0.36601860  1
  V  V81  1  0.37367030  0.49968962  0.87818684  1
  V  V82  1  0.37502710  0.11886227  0.25380762  1
  V  V83  1  0.62672535  0.25335530  0.87539695  1
  V  V84  1  0.12879263  0.00085578  0.11732528  1
  Zn  Zn85  1  0.37578308  0.37368914  0.00108737  1
  Zn  Zn86  1  0.50181721  0.87387871  0.87530900  1
  Zn  Zn87  1  0.87623892  0.75092313  0.12611606  1
  Zn  Zn88  1  0.25357205  0.86972804  0.13034838  1
  Zn  Zn89  1  0.50079979  0.00558173  0.49928897  1
  Zn  Zn90  1  0.00629802  0.00384763  -0.00609650  1
  Zn  Zn91  1  0.74798414  0.62250575  0.87626653  1
  Zn  Zn92  1  0.87733833  0.87413141  0.49548388  1
  Zn  Zn93  1  0.24737181  0.24574956  0.00503722  1
  Zn  Zn94  1  0.50588462  0.49537853  0.00939833  1
  Zn  Zn95  1  0.62488440  0.75213845  0.87372433  1
  Zn  Zn96  1  -0.01489872  0.48436104  0.50360444  1
  Zn  Zn97  1  -0.00519440  0.25012282  0.75315114  1
  Zn  Zn98  1  0.36335948  0.63163959  0.24018670  1
  Zn  Zn99  1  0.12753500  0.87780162  0.75263396  1
  Zn  Zn100  1  0.37594508  -0.00017921  0.87489826  1
  Zn  Zn101  1  0.87559537  0.62757827  0.24781260  1
  Zn  Zn102  1  0.87241359  0.12196830  0.74326691  1
  Zn  Zn103  1  -0.00579736  0.75218241  0.25182146  1
  Zn  Zn104  1  0.62002496  0.87677914  0.24192175  1
  Zn  Zn105  1  0.00430312  0.87706251  0.87643050  1
  Zn  Zn106  1  0.62500761  0.88522409  0.74649714  1
  Zn  Zn107  1  0.18700355  0.18669859  0.19037078  1
  Zn  Zn108  1  0.18682872  0.18583441  0.69400144  1
  Zn  Zn109  1  0.18040063  0.68680089  0.19023032  1
  Zn  Zn110  1  0.18876986  0.68669857  0.68949293  1
  Zn  Zn111  1  0.68671654  0.19348301  0.18811166  1
  Zn  Zn112  1  0.69063827  0.19849105  0.68590232  1
  Zn  Zn113  1  0.68545090  0.68901328  0.18064211  1
  Zn  Zn114  1  0.68640165  0.68640630  0.68335230  1
  Zn  Zn115  1  0.31062159  0.30842840  0.31165805  1
  Zn  Zn116  1  0.31177665  0.31028704  0.81265472  1
  Zn  Zn117  1  0.30751048  0.81078234  0.31073073  1
  Zn  Zn118  1  0.31666390  0.81482805  0.81562404  1
  Zn  Zn119  1  0.81318539  0.31313825  0.30729135  1
  Zn  Zn120  1  0.81170853  0.31090355  0.80678051  1
  Zn  Zn121  1  0.81006776  0.81311972  0.30750496  1
  Zn  Zn122  1  0.81022056  0.81554028  0.81126440  1
  Zn  Zn123  1  0.16400036  0.42617272  0.44999827  1
  Zn  Zn124  1  0.18867625  0.43226786  0.94114903  1
  Zn  Zn125  1  0.18623866  0.93971742  0.43634143  1
  Zn  Zn126  1  0.19259023  0.93301131  0.93723166  1
  Zn  Zn127  1  0.68464484  0.43991643  0.43453074  1
  Zn  Zn128  1  0.69399994  0.43850990  0.93224587  1
  Zn  Zn129  1  0.68807242  0.94062284  0.43506291  1
  Zn  Zn130  1  0.68784525  0.93635707  0.93138629  1
  Zn  Zn131  1  0.31408189  0.06115353  0.06424534  1
  Zn  Zn132  1  0.31217849  0.06187836  0.56327398  1
  Zn  Zn133  1  0.31164616  0.56171390  0.06311996  1
  Zn  Zn134  1  0.30885894  0.55802602  0.56168941  1
  Zn  Zn135  1  0.81716543  0.06015044  0.05843809  1
  Zn  Zn136  1  0.81691439  0.06650899  0.55555152  1
  Zn  Zn137  1  0.81359884  0.56088834  0.06087133  1
  Zn  Zn138  1  0.81171880  0.56517039  0.56144954  1
  Zn  Zn139  1  0.43890131  0.44652883  0.18816412  1
  Zn  Zn140  1  0.43452147  0.43591160  0.68609872  1
  Zn  Zn141  1  0.43509580  0.93679880  0.18483265  1
  Zn  Zn142  1  0.43117013  0.93156348  0.68783188  1
  Zn  Zn143  1  0.94122445  0.44662567  0.19661418  1
  Zn  Zn144  1  0.93519229  0.43790962  0.69054287  1
  Zn  Zn145  1  0.93392245  0.93989427  0.18290606  1
  Zn  Zn146  1  0.93627873  0.93623812  0.68355344  1
  Zn  Zn147  1  0.06383589  0.06459801  0.30931951  1
  Zn  Zn148  1  0.06410415  0.06492936  0.80766953  1
  Zn  Zn149  1  0.06033110  0.56200466  0.31123154  1
  Zn  Zn150  1  0.05910321  0.56221368  0.81588943  1
  Zn  Zn151  1  0.56492673  0.06187673  0.31612037  1
  Zn  Zn152  1  0.56237477  0.06424881  0.83337501  1
  Zn  Zn153  1  0.55918472  0.56065463  0.31730752  1
  Zn  Zn154  1  0.56340723  0.56473010  0.81554023  1
  Zn  Zn155  1  0.43381495  0.18832528  0.43918209  1
  Zn  Zn156  1  0.43833088  0.18811553  0.93982194  1
  Zn  Zn157  1  0.42009270  0.70266939  0.40097462  1
  Zn  Zn158  1  0.44019083  0.68550623  0.93812446  1
  Zn  Zn159  1  0.93596368  0.18393849  0.43698576  1
  Zn  Zn160  1  0.93638673  0.18311000  0.93588389  1
  Zn  Zn161  1  0.93461160  0.68333846  0.43867156  1
  Zn  Zn162  1  0.94104132  0.68698236  0.93865489  1
  Zn  Zn163  1  0.07666467  0.31213744  0.06400766  1
  Zn  Zn164  1  0.06287078  0.31295675  0.56168232  1
  Zn  Zn165  1  0.06574542  0.81118549  0.06336891  1
  Zn  Zn166  1  0.06107316  0.81803426  0.56457498  1
  Zn  Zn167  1  0.56331046  0.31170916  0.06410774  1
  Zn  Zn168  1  0.56424299  0.30751487  0.55950816  1
  Zn  Zn169  1  0.56255275  0.80505549  0.06305054  1
  Zn  Zn170  1  0.56276711  0.81440438  0.55949767  1
  O  O171  1  0.11655402  0.11482868  0.13248863  1
  O  O172  1  0.11972874  0.11546854  0.62766653  1
  O  O173  1  0.12125237  0.61646757  0.11841423  1
  O  O174  1  0.11687420  0.62245936  0.62325501  1
  O  O175  1  0.61639031  0.13166776  0.11906631  1
  O  O176  1  0.62594427  0.12633656  0.61813158  1
  O  O177  1  0.61874125  0.62527810  0.11077518  1
  O  O178  1  0.61788885  0.62847923  0.60911516  1
  O  O179  1  0.37484847  0.37793959  0.38299298  1
  O  O180  1  0.38383781  0.38008772  0.87540548  1
  O  O181  1  0.38826426  0.87339533  0.38058734  1
  O  O182  1  0.37908597  0.87865005  0.88900119  1
  O  O183  1  0.87052708  0.39004185  0.37157677  1
  O  O184  1  0.87287246  0.38237486  0.87004915  1
  O  O185  1  0.86919423  0.88927906  0.37330871  1
  O  O186  1  0.87650337  0.88196842  0.88088090  1
  O  O187  1  0.24284569  0.01239622  0.36280434  1
  O  O188  1  0.24937268  0.01100250  0.87047602  1
  O  O189  1  0.24913804  0.50371887  0.38641695  1
  O  O190  1  0.25794477  0.49205074  0.86430651  1
  O  O191  1  0.75845404  0.00954252  0.36585942  1
  O  O192  1  0.75907819  0.01225590  0.87969536  1
  O  O193  1  0.75370886  0.50776514  0.36657363  1
  O  O194  1  0.75934228  0.50092917  0.85917894  1
  O  O195  1  0.23908055  0.49297640  0.12542395  1
  O  O196  1  0.24534050  0.49040539  0.63886186  1
  O  O197  1  0.24437478  1.00098205  0.13724456  1
  O  O198  1  0.24387296  0.99864143  0.63140380  1
  O  O199  1  0.75288924  0.49410870  0.13791521  1
  O  O200  1  0.75602198  0.49417090  0.63459191  1
  O  O201  1  0.75474903  0.99348291  0.13027527  1
  O  O202  1  0.75616925  0.98938147  0.61924047  1
  O  O203  1  0.00777739  0.36272791  0.24567943  1
  O  O204  1  0.01341597  0.37240112  0.74583966  1
  O  O205  1  0.01006819  0.87679783  0.24623724  1
  O  O206  1  0.00189385  0.86191759  0.74825116  1
  O  O207  1  0.50320834  0.37122657  0.25655810  1
  O  O208  1  0.50648509  0.37041596  0.75416958  1
  O  O209  1  0.50132987  0.88006309  0.26106785  1
  O  O210  1  0.50186938  0.86441869  0.74752866  1
  O  O211  1  0.49658055  0.13064360  0.24785479  1
  O  O212  1  0.51139745  0.13026980  0.74287782  1
  O  O213  1  0.50214856  0.62136049  0.23969476  1
  O  O214  1  0.49293713  0.62759494  0.74147666  1
  O  O215  1  0.99461684  0.13413564  0.24029883  1
  O  O216  1  0.99746519  0.12831451  0.73443804  1
  O  O217  1  1.00176956  0.62762215  0.23658713  1
  O  O218  1  0.99342339  0.63456047  0.74564385  1
  O  O219  1  0.37743913  0.25109570  0.01569292  1
  O  O220  1  0.37820249  0.26276184  0.50874895  1
  O  O221  1  0.36381728  0.75286548  -0.00733771  1
  O  O222  1  0.36458527  0.75771006  0.49822327  1
  O  O223  1  0.86648579  0.24635073  0.00793453  1
  O  O224  1  0.86438850  0.24695512  0.50789798  1
  O  O225  1  0.86861232  0.75820937  -0.00066847  1
  O  O226  1  0.86556302  0.75129611  0.50393861  1
  O  O227  1  0.12340198  0.24408265  0.48441717  1
  O  O228  1  0.12868766  0.25066669  0.98666233  1
  O  O229  1  0.12777292  0.74447162  0.49881608  1
  O  O230  1  0.13454338  0.74299008  0.99307656  1
  O  O231  1  0.64015982  0.23947380  0.50374044  1
  O  O232  1  0.63256369  0.24209562  0.99715978  1
  O  O233  1  0.63197819  0.74442602  0.49179014  1
  O  O234  1  0.63341257  0.74003628  0.99647867  1
  O  O235  1  0.49470324  0.24261237  0.13306696  1
  O  O236  1  0.49163474  0.25546370  0.63280846  1
  O  O237  1  0.50295032  0.72821745  0.12150009  1
  O  O238  1  0.49283782  0.74336025  0.62755937  1
  O  O239  1  0.99249276  0.24680208  0.13008477  1
  O  O240  1  0.99395261  0.24452877  0.62036548  1
  O  O241  1  1.00012570  0.74098653  0.12742529  1
  O  O242  1  0.99418785  0.74588720  0.63164009  1
  O  O243  1  0.01329562  0.24016777  0.36816359  1
  O  O244  1  0.01204822  0.24372419  0.87410673  1
  O  O245  1  0.01072642  0.74373482  0.37618124  1
  O  O246  1  0.01005576  0.75103556  0.86732085  1
  O  O247  1  0.49008332  0.26205144  0.36624674  1
  O  O248  1  0.50440667  0.25859730  0.86890238  1
  O  O249  1  0.51351484  0.76867186  0.38488074  1
  O  O250  1  0.49998336  0.75083913  0.86284059  1
  O  O251  1  0.25312496  0.11937600  0.48271108  1
  O  O252  1  0.25259101  0.12470789  0.98670258  1
  O  O253  1  0.24154730  0.63575736  0.50003613  1
  O  O254  1  0.24006896  0.63054284  1.00201550  1
  O  O255  1  0.74769541  0.13383381  0.48857862  1
  O  O256  1  0.74523053  0.13249409  0.99726689  1
  O  O257  1  0.74091530  0.63158460  0.49325396  1
  O  O258  1  0.74127618  0.63185622  1.00106891  1
  O  O259  1  0.25454883  0.36949595  0.01542970  1
  O  O260  1  0.25404588  0.37768239  0.51589746  1
  O  O261  1  0.25781774  0.86303630  0.00359018  1
  O  O262  1  0.25529592  0.86941902  0.50312666  1
  O  O263  1  0.74323841  0.36766854  0.01012579  1
  O  O264  1  0.74064359  0.37100364  0.50874616  1
  O  O265  1  0.75704273  0.87041747  0.00263257  1
  O  O266  1  0.75074986  0.86876323  0.50673654  1
  O  O267  1  0.11996053  0.48459545  0.24666991  1
  O  O268  1  0.13090190  0.49423761  0.74959878  1
  O  O269  1  0.13160357  0.99385115  0.24381489  1
  O  O270  1  0.13586904  0.99850890  0.74204013  1
  O  O271  1  0.63055497  0.48843714  0.25852646  1
  O  O272  1  0.63315000  0.49280357  0.75287694  1
  O  O273  1  0.63950192  1.00121827  0.25120324  1
  O  O274  1  0.61120005  1.00971525  0.73938131  1
  O  O275  1  0.36830459  0.01103468  0.24639283  1
  O  O276  1  0.36125243  -0.00390281  0.75235142  1
  O  O277  1  0.37406686  0.50525612  0.26779656  1
  O  O278  1  0.36884201  0.50402412  0.75755538  1
  O  O279  1  0.86779862  0.00790462  0.25395231  1
  O  O280  1  0.87833740  0.00013844  0.76116280  1
  O  O281  1  0.86424222  0.50601230  0.26103766  1
  O  O282  1  0.86808485  0.50792768  0.75561394  1
  O  O283  1  0.13960165  0.35351541  0.36267360  1
  O  O284  1  0.13273498  0.35889692  0.87009167  1
  O  O285  1  0.12758893  0.86681920  0.36759852  1
  O  O286  1  0.12385381  0.86467761  0.87299038  1
  O  O287  1  0.61027662  0.37692312  0.36971333  1
  O  O288  1  0.61987669  0.37151200  0.86517116  1
  O  O289  1  0.61764717  0.87084533  0.37208290  1
  O  O290  1  0.62170907  0.87301710  0.86479173  1
  O  O291  1  0.38343248  0.13176930  0.13339787  1
  O  O292  1  0.37186946  0.13956647  0.61965147  1
  O  O293  1  0.38646819  0.62047863  0.12755477  1
  O  O294  1  0.37861216  0.62743455  0.63119011  1
  O  O295  1  0.88263275  0.11829998  0.13665970  1
  O  O296  1  0.88133283  0.13371332  0.62446280  1
  O  O297  1  0.88555277  0.62420071  0.12404629  1
  O  O298  1  0.87891611  0.63074020  0.63515488  1
  O  O299  1  0.25913042  0.25371883  0.12618331  1
  O  O300  1  0.25790767  0.25865256  0.63706391  1
  O  O301  1  0.24512115  0.74825991  0.11582546  1
  O  O302  1  0.25334506  0.75333790  0.61494050  1
  O  O303  1  0.74876662  0.26074212  0.11611967  1
  O  O304  1  0.75799844  0.26066080  0.61612043  1
  O  O305  1  0.75268084  0.75790728  0.11219009  1
  O  O306  1  0.75406128  0.75092720  0.61293738  1
  O  O307  1  0.24125916  0.23550794  0.37024695  1
  O  O308  1  0.24595738  0.23876982  0.87739119  1
  O  O309  1  0.23411738  0.74208064  0.38777436  1
  O  O310  1  0.23982246  0.75038470  0.87816040  1
  O  O311  1  0.75696602  0.24429796  0.38142199  1
  O  O312  1  0.74643178  0.24649486  0.88448969  1
  O  O313  1  0.74401922  0.74612452  0.38386284  1
  O  O314  1  0.75062195  0.74836606  0.88588597  1
  O  O315  1  -0.00476429  0.12468403  0.01570998  1
  O  O316  1  -0.00529399  0.11385978  0.51156468  1
  O  O317  1  0.01237647  0.62945843  0.01106657  1
  O  O318  1  0.00639839  0.62146709  0.50835883  1
  O  O319  1  0.50802105  0.12007869  0.00873093  1
  O  O320  1  0.51291578  0.12489960  0.48906088  1
  O  O321  1  0.51163888  0.61990387  0.00254098  1
  O  O322  1  0.50383972  0.61637386  0.50054809  1
  O  O323  1  0.49438902  0.37862583  0.49436767  1
  O  O324  1  0.50058794  0.37663933  0.99097531  1
  O  O325  1  0.49241820  0.88054383  0.49393835  1
  O  O326  1  0.49624379  0.88079907  1.00360271  1
  O  O327  1  1.05479754  0.39853655  0.49297958  1
  O  O328  1  0.97704270  0.36227316  1.02723175  1
  O  O329  1  0.99518222  0.89158610  0.50505069  1
  O  O330  1  0.98950036  0.87521162  0.99994379  1
  O  O331  1  0.48721348  0.49110646  0.38541420  1
  O  O332  1  0.49327338  0.48786683  0.87286568  1
  O  O333  1  0.50495496  0.98593553  0.37863211  1
  O  O334  1  0.49520184  0.99888845  0.89276226  1
  O  O335  1  0.97936963  0.50873293  0.37485125  1
  O  O336  1  0.98308577  0.49911077  0.87017656  1
  O  O337  1  0.99235872  1.00986034  0.38126789  1
  O  O338  1  0.99509571  0.99949187  0.87580808  1
  O  O339  1  0.00952661  0.00739500  0.12392891  1
  O  O340  1  0.00730643  0.00635147  0.61985531  1
  O  O341  1  0.01407004  0.50617842  0.12891842  1
  O  O342  1  0.00462863  0.50631382  0.62471305  1
  O  O343  1  0.49871714  0.01131497  0.11850907  1
  O  O344  1  0.49517246  0.00731833  0.62228160  1
  O  O345  1  0.50068925  0.51395155  0.12227456  1
  O  O346  1  0.49319530  0.50258620  0.61117337  1
  O  O347  1  0.24272608  0.36814102  0.23850861  1
  O  O348  1  0.24376760  0.38098248  0.74662253  1
  O  O349  1  0.24389314  0.88352754  0.25147489  1
  O  O350  1  0.25041747  0.88041873  0.74243271  1
  O  O351  1  0.73903855  0.38060145  0.24628613  1
  O  O352  1  0.74247437  0.38127148  0.73810372  1
  O  O353  1  0.74891291  0.88559145  0.23804938  1
  O  O354  1  0.74687039  0.87215185  0.73249864  1
  O  O355  1  0.25921413  0.11893879  0.25478074  1
  O  O356  1  0.24801118  0.11781996  0.76545333  1
  O  O357  1  0.24279019  0.62457482  0.26689974  1
  O  O358  1  0.26081849  0.61468953  0.74527979  1
  O  O359  1  0.75631652  0.12364666  0.25132275  1
  O  O360  1  0.74835698  0.13373403  0.76300493  1
  O  O361  1  0.74494051  0.61819472  0.25582678  1
  O  O362  1  0.75648661  0.61869571  0.74860809  1
  O  O363  1  0.36254123  0.13136505  0.36599325  1
  O  O364  1  0.36396943  0.12431660  0.87694803  1
  O  O365  1  0.35537397  0.60637652  0.39571018  1
  O  O366  1  0.38238917  0.61466564  0.86210237  1
  O  O367  1  0.86681638  0.11904600  0.36319453  1
  O  O368  1  0.86770178  0.11852447  0.87105796  1
  O  O369  1  0.85832376  0.62274791  0.37427298  1
  O  O370  1  0.87380725  0.62462709  0.86342120  1
  O  O371  1  0.13350420  0.38146042  0.13241833  1
  O  O372  1  0.13418665  0.37541337  0.63981142  1
  O  O373  1  0.12976315  0.88200934  0.13479005  1
  O  O374  1  0.13199254  0.88680491  0.62699119  1
  O  O375  1  0.63228627  0.37426083  0.13470315  1
  O  O376  1  0.63174554  0.37148168  0.63366798  1
  O  O377  1  0.63724755  0.87184339  0.12284872  1
  O  O378  1  0.63990836  0.87402325  0.62416273  1
  O  O379  1  0.11618424  0.25668324  0.25200175  1
  O  O380  1  0.12251403  0.25639852  0.76287696  1
  O  O381  1  0.12286940  0.75992006  0.26058593  1
  O  O382  1  0.11901725  0.74882941  0.75777422  1
  O  O383  1  0.61222819  0.26081209  0.24860273  1
  O  O384  1  0.61586020  0.25964915  0.75367597  1
  O  O385  1  0.63365142  0.75401702  0.26224957  1
  O  O386  1  0.61150460  0.74500654  0.74756230  1
  O  O387  1  0.38407076  0.24247579  0.24184159  1
  O  O388  1  0.38926778  0.25465386  0.74440791  1
  O  O389  1  0.37788094  0.72864244  0.29459112  1
  O  O390  1  0.38154434  0.74128893  0.74446372  1
  O  O391  1  0.88558774  0.24181852  0.25367881  1
  O  O392  1  0.87582478  0.24826350  0.73381437  1
  O  O393  1  0.87625298  0.74600333  0.24615833  1
  O  O394  1  0.88131735  0.74379901  0.74693396  1
  O  O395  1  0.37830146  0.48531581  0.49763998  1
  O  O396  1  0.37512613  0.49859051  0.98608329  1
  O  O397  1  0.37390922  0.98689675  0.50205786  1
  O  O398  1  0.38388823  0.99204404  1.00202948  1
  O  O399  1  0.87054049  0.50245906  0.48513735  1
  O  O400  1  0.86516175  0.49994358  0.98029473  1
  O  O401  1  0.88236073  1.00055025  0.48674044  1
  O  O402  1  0.87968954  0.99200182  0.98769804  1
  O  O403  1  0.12673585  -0.00750136  0.01380200  1
  O  O404  1  0.11798528  -0.00126284  0.50823496  1
  O  O405  1  0.12872723  0.50658924  0.00763685  1
  O  O406  1  0.14076992  0.52166800  0.51541168  1
  O  O407  1  0.61983600  0.01185736  -0.00347176  1
  O  O408  1  0.62860614  0.01739518  0.49762039  1
  O  O409  1  0.62885607  0.51363786  -0.00705776  1
  O  O410  1  0.61240451  0.51030148  0.49098861  1
  O  O411  1  0.37057705  0.36981511  0.12892361  1
  O  O412  1  0.36651238  0.36785298  0.62033727  1
  O  O413  1  0.37246741  0.87439465  0.11264533  1
  O  O414  1  0.36826489  0.86506985  0.61485560  1
  O  O415  1  0.86237366  0.37268732  0.13834982  1
  O  O416  1  0.86644940  0.36995939  0.62425008  1
  O  O417  1  0.86515279  0.87609517  0.11362237  1
  O  O418  1  0.86338216  0.86816514  0.62166404  1
  O  O419  1  0.13772379  0.13556516  0.36555349  1
  O  O420  1  0.13376800  0.13764026  0.87221601  1
  O  O421  1  0.12664133  0.62817600  0.38612024  1
  O  O422  1  0.12066300  0.63076888  0.88564268  1
  O  O423  1  0.64034308  0.12654713  0.37661354  1
  O  O424  1  0.63392793  0.13430446  0.88664388  1
  O  O425  1  0.63087624  0.63289485  0.38169639  1
  O  O426  1  0.62761326  0.62923880  0.88612752  1
