# generated using pymatgen
data_V85Zn86O256
_symmetry_space_group_name_H-M   'P 1'
_cell_length_a   16.96685554
_cell_length_b   16.96861775
_cell_length_c   16.95554467
_cell_angle_alpha   90.11413172
_cell_angle_beta   90.03727046
_cell_angle_gamma   89.98388558
_symmetry_Int_Tables_number   1
_chemical_formula_structural   V85Zn86O256
_chemical_formula_sum   'V85 Zn86 O256'
_cell_volume   4881.55968347
_cell_formula_units_Z   1
loop_
 _symmetry_equiv_pos_site_id
 _symmetry_equiv_pos_as_xyz
  1  'x, y, z'
loop_
 _atom_site_type_symbol
 _atom_site_label
 _atom_site_symmetry_multiplicity
 _atom_site_fract_x
 _atom_site_fract_y
 _atom_site_fract_z
 _atom_site_occupancy
  V  V0  1  0.25216789  0.00515844  0.25194728  1
  V  V1  1  -0.05309375  0.54679107  0.44170161  1
  V  V2  1  0.49857138  0.62408023  0.62574875  1
  V  V3  1  0.23785921  0.48627271  0.23423199  1
  V  V4  1  0.50182449  0.11192983  0.62175615  1
  V  V5  1  0.74640534  0.37419216  0.12299520  1
  V  V6  1  0.64465714  0.74659847  0.37962091  1
  V  V7  1  -0.00119517  0.62022621  0.62709515  1
  V  V8  1  0.75203658  0.88578301  0.13078110  1
  V  V9  1  0.87420522  0.62482427  0.75350939  1
  V  V10  1  0.86889326  0.87524338  0.00283147  1
  V  V11  1  0.12260724  -0.00237318  0.62339538  1
  V  V12  1  0.49913691  0.62831429  0.12880435  1
  V  V13  1  -0.00264936  0.87729140  0.87684931  1
  V  V14  1  0.11365335  0.63274905  0.01307775  1
  V  V15  1  0.36764798  0.25556541  0.62746379  1
  V  V16  1  0.62569848  0.50143365  0.13004945  1
  V  V17  1  0.40039529  0.33617552  0.02217742  1
  V  V18  1  -0.00180447  0.37467216  0.37212965  1
  V  V19  1  0.63071067  0.88218023  0.75404354  1
  V  V20  1  0.37972299  0.87753561  0.50298565  1
  V  V21  1  0.39037152  0.13904418  0.24215460  1
  V  V22  1  -0.00048871  0.12464979  0.62442875  1
  V  V23  1  0.50255585  0.37405520  0.87333168  1
  V  V24  1  0.74140877  0.25244006  0.49444454  1
  V  V25  1  0.12586605  0.49304528  0.62077694  1
  V  V26  1  0.87035106  0.73955003  0.12465079  1
  V  V27  1  0.86943621  0.12062206  0.24716799  1
  V  V28  1  0.12925069  0.62263804  0.49796647  1
  V  V29  1  0.12293953  0.87407418  0.74867633  1
  V  V30  1  0.49927523  0.50484717  0.00034058  1
  V  V31  1  0.12453787  0.74944703  0.87321816  1
  V  V32  1  0.87847970  0.50073175  0.88307872  1
  V  V33  1  0.87824612  0.37248920  0.49562902  1
  V  V34  1  0.63086438  0.63578631  0.00494042  1
  V  V35  1  0.62622982  0.50111003  0.62051567  1
  V  V36  1  0.62443656  0.10961615  0.50221800  1
  V  V37  1  0.50107001  0.24984364  0.74645613  1
  V  V38  1  0.24971775  0.87804978  0.12630032  1
  V  V39  1  0.37293398  0.49703910  0.88279261  1
  V  V40  1  0.87380925  0.00076954  0.37335606  1
  V  V41  1  0.38580285  0.87509095  -0.00193812  1
  V  V42  1  0.00174924  0.24980030  0.74927652  1
  V  V43  1  0.00103430  0.25398724  0.24758665  1
  V  V44  1  0.85886639  0.75506568  0.62211576  1
  V  V45  1  0.24872040  -0.00158811  0.75268992  1
  V  V46  1  0.76864635  0.51391603  0.25388149  1
  V  V47  1  -0.00221253  0.74173936  0.24237105  1
  V  V48  1  0.63703625  0.12037087  0.00927211  1
  V  V49  1  0.37441747  0.12437843  0.75116424  1
  V  V50  1  0.12836326  0.37496628  0.75081715  1
  V  V51  1  0.12498268  0.75431779  0.37319386  1
  V  V52  1  0.62653857  0.37548833  0.75112789  1
  V  V53  1  0.25038749  0.12235166  0.88509297  1
  V  V54  1  0.38366753  -0.00345508  0.87650801  1
  V  V55  1  0.62670097  0.37235691  0.26831943  1
  V  V56  1  0.49924234  0.75514673  0.76107786  1
  V  V57  1  0.75062476  0.63423947  0.88222833  1
  V  V58  1  0.03924488  0.47134335  0.01848213  1
  V  V59  1  0.86797478  0.12622322  0.75169386  1
  V  V60  1  0.74295860  0.12799096  0.37017913  1
  V  V61  1  0.37450395  0.75261064  0.13281135  1
  V  V62  1  0.12740656  0.00574792  0.11710894  1
  V  V63  1  0.12550526  0.12471184  0.49709060  1
  V  V64  1  0.86665869  0.37176579  -0.00198264  1
  V  V65  1  0.38095440  0.00150055  0.37754327  1
  V  V66  1  0.63968964  0.23935615  0.87775724  1
  V  V67  1  0.86693377  0.00442191  0.87548445  1
  V  V68  1  0.00066812  0.37341661  0.87518133  1
  V  V69  1  0.86656628  0.24828058  0.12119981  1
  V  V70  1  -0.00177745  0.74985191  0.74799669  1
  V  V71  1  0.00304987  0.12568765  0.11797895  1
  V  V72  1  0.12596847  0.25156094  0.37137779  1
  V  V73  1  0.49391637  0.49808243  0.49060284  1
  V  V74  1  0.24985636  0.49315544  0.75015965  1
  V  V75  1  0.50147658  0.86992566  0.38016910  1
  V  V76  1  0.62711874  0.88156256  0.25163854  1
  V  V77  1  0.24779914  0.25163919  0.01118025  1
  V  V78  1  0.12684493  0.24243693  0.87590937  1
  V  V79  1  0.24805195  0.87026347  0.62329499  1
  V  V80  1  0.37399909  0.62279965  0.75295915  1
  V  V81  1  0.36360422  0.37658515  0.50028489  1
  V  V82  1  0.75025872  0.50059054  0.75579734  1
  V  V83  1  0.74990241  0.37449851  0.62463480  1
  V  V84  1  0.25075935  0.75116801  0.00026565  1
  Zn  Zn85  1  0.12188971  0.87917461  0.24978850  1
  Zn  Zn86  1  0.24381058  0.25732926  0.50649997  1
  Zn  Zn87  1  0.87634859  0.25117108  0.62348027  1
  Zn  Zn88  1  0.63247646  0.63591401  0.50010723  1
  Zn  Zn89  1  0.24584215  0.61930798  0.87932208  1
  Zn  Zn90  1  0.37074255  0.61769802  0.25235371  1
  Zn  Zn91  1  0.86594724  0.87659798  0.50095449  1
  Zn  Zn92  1  0.25197425  0.74961681  0.49554011  1
  Zn  Zn93  1  0.70885518  -0.08273206  0.59457514  1
  Zn  Zn94  1  0.36661570  0.49785893  0.36928995  1
  Zn  Zn95  1  0.25429990  0.12855703  0.37691297  1
  Zn  Zn96  1  0.37493462  0.74863655  0.62529902  1
  Zn  Zn97  1  0.25209426  0.62202266  0.36816746  1
  Zn  Zn98  1  0.62044549  0.00847423  0.13678006  1
  Zn  Zn99  1  0.50260175  0.74908059  0.25532461  1
  Zn  Zn100  1  0.00203646  0.00464837  -0.00248101  1
  Zn  Zn101  1  0.50701482  0.00102259  0.00406684  1
  Zn  Zn102  1  0.62360184  0.75658307  0.88353437  1
  Zn  Zn103  1  0.74323674  0.00896287  0.74752668  1
  Zn  Zn104  1  -0.00136108  -0.00524841  0.49680861  1
  Zn  Zn105  1  0.47728533  0.33048136  0.34667800  1
  Zn  Zn106  1  -0.00180838  0.87950015  0.37169086  1
  Zn  Zn107  1  0.18829716  0.18456320  0.19202077  1
  Zn  Zn108  1  0.18753031  0.18382806  0.69057072  1
  Zn  Zn109  1  0.18867972  0.68615639  0.19151444  1
  Zn  Zn110  1  0.18800814  0.68232152  0.68844164  1
  Zn  Zn111  1  0.68418090  0.19352588  0.19089994  1
  Zn  Zn112  1  0.68481687  0.18995633  0.68161793  1
  Zn  Zn113  1  0.69094795  0.69455044  0.19306642  1
  Zn  Zn114  1  0.68151470  0.68702762  0.69521437  1
  Zn  Zn115  1  0.30456800  0.31587426  0.31097589  1
  Zn  Zn116  1  0.31499012  0.31209819  0.81907966  1
  Zn  Zn117  1  0.30951813  0.81519097  0.31479548  1
  Zn  Zn118  1  0.31284797  0.81214541  0.81314381  1
  Zn  Zn119  1  0.80963105  0.31584449  0.30993537  1
  Zn  Zn120  1  0.81578558  0.31226633  0.80879013  1
  Zn  Zn121  1  0.81447897  0.81286912  0.30620550  1
  Zn  Zn122  1  0.81078006  0.81465103  0.81116683  1
  Zn  Zn123  1  0.18505794  0.43956695  0.43035589  1
  Zn  Zn124  1  0.19356908  0.42847260  0.95410270  1
  Zn  Zn125  1  0.18993756  0.93830382  0.43756999  1
  Zn  Zn126  1  0.18947840  0.93574289  0.93925093  1
  Zn  Zn127  1  0.70264917  0.46754820  0.44435606  1
  Zn  Zn128  1  0.68582381  0.44283925  0.94077178  1
  Zn  Zn129  1  0.69436235  0.93941972  0.42567512  1
  Zn  Zn130  1  0.68908111  0.93576977  0.93509356  1
  Zn  Zn131  1  0.31946311  0.06561961  0.06559209  1
  Zn  Zn132  1  0.31183569  0.06110361  0.56365177  1
  Zn  Zn133  1  0.30898911  0.56460719  0.06695793  1
  Zn  Zn134  1  0.30947792  0.56103071  0.56436895  1
  Zn  Zn135  1  0.80794382  0.06239600  0.05847987  1
  Zn  Zn136  1  0.81296401  0.06479315  0.55973083  1
  Zn  Zn137  1  0.81281199  0.55824837  0.06547339  1
  Zn  Zn138  1  0.80737513  0.56885072  0.56556691  1
  Zn  Zn139  1  0.43860299  0.43901509  0.19201822  1
  Zn  Zn140  1  0.43566596  0.43566102  0.68505469  1
  Zn  Zn141  1  0.44187765  0.94214282  0.19113903  1
  Zn  Zn142  1  0.43661565  0.93350621  0.69162588  1
  Zn  Zn143  1  0.94156598  0.43605496  0.18425492  1
  Zn  Zn144  1  0.93734264  0.43869465  0.68738223  1
  Zn  Zn145  1  0.94173385  0.93663556  0.18896588  1
  Zn  Zn146  1  0.93331858  0.93901849  0.68736446  1
  Zn  Zn147  1  0.06024190  0.06532034  0.30707971  1
  Zn  Zn148  1  0.05921143  0.06169491  0.81238303  1
  Zn  Zn149  1  0.07491248  0.56602299  0.30116452  1
  Zn  Zn150  1  0.06176249  0.55987853  0.81941964  1
  Zn  Zn151  1  0.56023995  0.06271734  0.31805634  1
  Zn  Zn152  1  0.55992514  0.06457572  0.81560935  1
  Zn  Zn153  1  0.56675902  0.56437180  0.31119533  1
  Zn  Zn154  1  0.56332860  0.56554712  0.81364438  1
  Zn  Zn155  1  0.43437726  0.18293763  0.44171744  1
  Zn  Zn156  1  0.45209148  0.18870195  0.95271409  1
  Zn  Zn157  1  0.43491210  0.68609462  0.43941109  1
  Zn  Zn158  1  0.43425529  0.68421046  0.94105825  1
  Zn  Zn159  1  0.93481499  0.18751856  0.43635604  1
  Zn  Zn160  1  0.93249215  0.18886363  0.93752029  1
  Zn  Zn161  1  0.93933486  0.70977275  0.43831016  1
  Zn  Zn162  1  0.93611168  0.69217630  0.94216883  1
  Zn  Zn163  1  0.06306000  0.30220944  0.05733106  1
  Zn  Zn164  1  0.06160540  0.31293628  0.56004195  1
  Zn  Zn165  1  0.05888983  0.81784249  0.06534919  1
  Zn  Zn166  1  0.05472674  0.81161399  0.55755289  1
  Zn  Zn167  1  0.57261612  0.31177898  0.05674583  1
  Zn  Zn168  1  0.53919583  0.29373049  0.52697900  1
  Zn  Zn169  1  0.56210556  0.81811551  0.06865059  1
  Zn  Zn170  1  0.56147720  0.81027157  0.56383076  1
  O  O171  1  0.11455198  0.11814190  0.13024506  1
  O  O172  1  0.11632899  0.11975567  0.62033510  1
  O  O173  1  0.12148575  0.63675679  0.11125396  1
  O  O174  1  0.11661247  0.61935708  0.61794317  1
  O  O175  1  0.63058329  0.12703805  0.11430013  1
  O  O176  1  0.60935647  0.12767430  0.62130572  1
  O  O177  1  0.62066691  0.62229565  0.12241903  1
  O  O178  1  0.61782957  0.61655444  0.62588272  1
  O  O179  1  0.37559406  0.37591967  0.38488169  1
  O  O180  1  0.38988334  0.37677090  0.88584209  1
  O  O181  1  0.38073989  0.87956323  0.38335033  1
  O  O182  1  0.36386937  0.88472688  0.88640698  1
  O  O183  1  0.88645314  0.37105871  0.38117714  1
  O  O184  1  0.87857511  0.37882129  0.88094593  1
  O  O185  1  0.87109254  0.89326482  0.36749231  1
  O  O186  1  0.87859004  0.88004461  0.88139214  1
  O  O187  1  0.25950009  0.00035218  0.36732896  1
  O  O188  1  0.25269941  0.00610062  0.87167911  1
  O  O189  1  0.24615668  0.50266056  0.36186538  1
  O  O190  1  0.25839828  0.49596215  0.87442302  1
  O  O191  1  0.75969787  0.01896974  0.37243443  1
  O  O192  1  0.76407526  -0.00338078  0.86717360  1
  O  O193  1  0.76256244  0.49397782  0.35139419  1
  O  O194  1  0.75609676  0.50752592  0.87221043  1
  O  O195  1  0.25016366  0.49874911  0.13329064  1
  O  O196  1  0.23716272  0.50522195  0.63811676  1
  O  O197  1  0.24557834  0.99958165  0.13093071  1
  O  O198  1  0.24300106  0.98895893  0.63113438  1
  O  O199  1  0.74135569  0.49300500  0.12959424  1
  O  O200  1  0.74355349  0.49426142  0.63707694  1
  O  O201  1  0.74622701  0.98918867  0.12484154  1
  O  O202  1  0.75354309  1.01009043  0.63537551  1
  O  O203  1  -0.00489986  0.36231054  0.25502610  1
  O  O204  1  0.00551440  0.37019308  0.75650728  1
  O  O205  1  0.00435913  0.86621100  0.25241895  1
  O  O206  1  0.00483369  0.86997139  0.75522850  1
  O  O207  1  0.51823815  0.38333173  0.25641086  1
  O  O208  1  0.50483007  0.37071849  0.75589613  1
  O  O209  1  0.50694919  0.87074839  0.26153501  1
  O  O210  1  0.50296518  0.85902100  0.74952131  1
  O  O211  1  0.48932437  0.12466512  0.25474715  1
  O  O212  1  0.49421901  0.13089358  0.74294123  1
  O  O213  1  0.49885176  0.62754078  0.23814442  1
  O  O214  1  0.49424427  0.63218168  0.74642093  1
  O  O215  1  0.99050924  0.13699936  0.23926996  1
  O  O216  1  0.99611309  0.13092972  0.74130054  1
  O  O217  1  1.00519564  0.64293819  0.25031501  1
  O  O218  1  0.99441573  0.62834105  0.74582103  1
  O  O219  1  0.35280365  0.23861189  -0.01820501  1
  O  O220  1  0.36627814  0.25814505  0.51086796  1
  O  O221  1  0.36751919  0.75570994  0.00693299  1
  O  O222  1  0.37168449  0.76210381  0.50546031  1
  O  O223  1  0.87408719  0.26049345  0.00710385  1
  O  O224  1  0.86522011  0.25739869  0.50226038  1
  O  O225  1  0.88147819  0.76151535  0.01533559  1
  O  O226  1  0.87226655  0.74855117  0.51867298  1
  O  O227  1  0.12520504  0.24217224  0.49363615  1
  O  O228  1  0.13835946  0.24512799  0.98819812  1
  O  O229  1  0.12180768  0.74033701  0.49214965  1
  O  O230  1  0.12914833  0.74800230  0.99344646  1
  O  O231  1  0.64111103  0.24227962  0.51242064  1
  O  O232  1  0.62927163  0.23849348  0.98463456  1
  O  O233  1  0.62404937  0.75178095  0.48504848  1
  O  O234  1  0.62042928  0.73933864  1.00227708  1
  O  O235  1  0.47238600  0.26110247  0.05469914  1
  O  O236  1  0.48649025  0.24157740  0.62855081  1
  O  O237  1  0.49121962  0.74517418  0.12792273  1
  O  O238  1  0.49922571  0.73634144  0.63563694  1
  O  O239  1  0.99371574  0.24641694  0.12901501  1
  O  O240  1  1.00072717  0.24258688  0.63151952  1
  O  O241  1  0.99011971  0.75612885  0.13507091  1
  O  O242  1  0.99586376  0.73634509  0.63092694  1
  O  O243  1  0.00273587  0.25470487  0.36591747  1
  O  O244  1  0.00800450  0.25238306  0.87042245  1
  O  O245  1  0.00648591  0.75571955  0.36207436  1
  O  O246  1  0.00470972  0.75750350  0.86834520  1
  O  O247  1  0.51265786  0.25737380  0.41862483  1
  O  O248  1  0.51007658  0.25898693  0.86803437  1
  O  O249  1  0.49819327  0.76218668  0.37549245  1
  O  O250  1  0.49893960  0.74123111  0.86333180  1
  O  O251  1  0.23492290  0.12413083  0.50071011  1
  O  O252  1  0.25104907  0.12691238  0.98897757  1
  O  O253  1  0.23776280  0.62931132  0.50256554  1
  O  O254  1  0.24343282  0.64043244  0.99949609  1
  O  O255  1  0.74372312  0.13469183  0.49285551  1
  O  O256  1  0.73738012  0.12474474  0.99341898  1
  O  O257  1  0.72505785  0.57289847  0.49434265  1
  O  O258  1  0.74142900  0.61912825  0.99456352  1
  O  O259  1  0.27023904  0.35291977  -0.00259972  1
  O  O260  1  0.25839022  0.37884760  0.50069207  1
  O  O261  1  0.25500588  0.86470914  0.00624309  1
  O  O262  1  0.25467169  0.87215183  0.50963786  1
  O  O263  1  0.75179643  0.37862004  0.01229054  1
  O  O264  1  0.75962122  0.37366834  0.50555916  1
  O  O265  1  0.76290712  0.87752537  0.00653569  1
  O  O266  1  0.75248298  0.87978763  0.50027561  1
  O  O267  1  0.13562212  0.49596513  0.24169654  1
  O  O268  1  0.13156800  0.49474523  0.74832868  1
  O  O269  1  0.13482335  1.00193764  0.24166445  1
  O  O270  1  0.12849420  0.99283423  0.74422935  1
  O  O271  1  0.63067829  0.49610551  0.23927673  1
  O  O272  1  0.62866095  0.49509062  0.74340981  1
  O  O273  1  0.62215391  0.98642522  0.25569126  1
  O  O274  1  0.62269761  0.98622962  0.75728540  1
  O  O275  1  0.36949763  0.00614266  0.25918333  1
  O  O276  1  0.36714679  0.00093705  0.75853956  1
  O  O277  1  0.36507059  0.49936052  0.25062522  1
  O  O278  1  0.36807341  0.50012291  0.76120954  1
  O  O279  1  0.88042359  0.01663830  0.25144013  1
  O  O280  1  0.87773317  0.01102599  0.75799775  1
  O  O281  1  0.86717779  0.50323339  0.23371214  1
  O  O282  1  0.87269555  0.50659474  0.76117535  1
  O  O283  1  0.10746553  0.36353804  0.38580737  1
  O  O284  1  0.12226722  0.36212880  0.87107819  1
  O  O285  1  0.12525864  0.86436165  0.37553214  1
  O  O286  1  0.11950839  0.86626388  0.87163043  1
  O  O287  1  0.64024072  0.38815600  0.36531712  1
  O  O288  1  0.61704283  0.37326022  0.87205314  1
  O  O289  1  0.61889697  0.86728845  0.37118662  1
  O  O290  1  0.62630725  0.87011430  0.86300927  1
  O  O291  1  0.37555870  0.12684227  0.14293836  1
  O  O292  1  0.38200997  0.12837918  0.63088645  1
  O  O293  1  0.38394283  0.63657330  0.12310958  1
  O  O294  1  0.38101434  0.62467609  0.63418021  1
  O  O295  1  0.87663186  0.13198794  0.12839148  1
  O  O296  1  0.88909336  0.12780668  0.63018559  1
  O  O297  1  0.87225386  0.64145878  0.11604712  1
  O  O298  1  0.88068461  0.62877880  0.63153965  1
  O  O299  1  0.24264735  0.24268692  0.10981092  1
  O  O300  1  0.26276870  0.24117566  0.62756640  1
  O  O301  1  0.25649146  0.75603307  0.11919104  1
  O  O302  1  0.24922553  0.76134302  0.62809604  1
  O  O303  1  0.75956062  0.25839708  0.12786971  1
  O  O304  1  0.75541678  0.26089858  0.61954281  1
  O  O305  1  0.76642001  0.76091694  0.13147326  1
  O  O306  1  0.76087840  0.74020582  0.63117051  1
  O  O307  1  0.23656257  0.24871234  0.37928015  1
  O  O308  1  0.24117833  0.23938047  0.87349020  1
  O  O309  1  0.23920546  0.74690575  0.37516111  1
  O  O310  1  0.24118276  0.75054836  0.88280873  1
  O  O311  1  0.75605016  0.24130125  0.38287240  1
  O  O312  1  0.73601703  0.26043900  0.87060955  1
  O  O313  1  0.74347032  0.74995557  0.37324411  1
  O  O314  1  0.75009902  0.73683771  0.87344430  1
  O  O315  1  -0.00553146  0.12657329  0.01390224  1
  O  O316  1  0.00954025  0.12714083  0.50815599  1
  O  O317  1  0.01365742  0.62823470  -0.00350743  1
  O  O318  1  0.00336151  0.61731169  0.50434022  1
  O  O319  1  0.53016964  0.11513328  -0.01913698  1
  O  O320  1  0.50731034  0.12132191  0.51473768  1
  O  O321  1  0.50716168  0.62347505  0.01116865  1
  O  O322  1  0.50354540  0.61665508  0.51128823  1
  O  O323  1  0.47815009  0.39033669  0.51505754  1
  O  O324  1  0.50158145  0.38940633  0.98946616  1
  O  O325  1  0.49051840  0.87363326  0.49625750  1
  O  O326  1  0.48772327  0.87004484  0.99626692  1
  O  O327  1  0.98587978  0.37001848  0.49320981  1
  O  O328  1  0.98445657  0.37078603  0.99165604  1
  O  O329  1  0.98653620  0.87551880  0.49247427  1
  O  O330  1  0.98956106  0.87898510  0.99355940  1
  O  O331  1  0.50255411  0.50468040  0.38912416  1
  O  O332  1  0.49357670  0.49454719  0.87705425  1
  O  O333  1  0.48739272  0.98775477  0.37433649  1
  O  O334  1  0.48586318  0.99819234  0.87458108  1
  O  O335  1  1.00473385  0.49375135  0.37233956  1
  O  O336  1  1.00062371  0.48955619  0.89214839  1
  O  O337  1  0.99032098  1.00289035  0.37306132  1
  O  O338  1  0.99301784  0.99225018  0.87618317  1
  O  O339  1  0.00906984  0.00952290  0.12474084  1
  O  O340  1  0.00513438  0.00763412  0.62376566  1
  O  O341  1  -0.00105917  0.49681289  0.10570616  1
  O  O342  1  0.00885231  0.51279922  0.63348384  1
  O  O343  1  0.51009708  -0.01422013  0.11690944  1
  O  O344  1  0.49264962  0.01399724  0.63268160  1
  O  O345  1  0.50737061  0.50979274  0.12171892  1
  O  O346  1  0.50548572  0.51124152  0.62882180  1
  O  O347  1  0.24702289  0.38521381  0.24553288  1
  O  O348  1  0.24587531  0.38566280  0.75743985  1
  O  O349  1  0.25049046  0.88877706  0.24367343  1
  O  O350  1  0.24264677  0.87860371  0.74402472  1
  O  O351  1  0.74422655  0.38311288  0.23719219  1
  O  O352  1  0.74933524  0.38136058  0.74305169  1
  O  O353  1  0.74186586  0.87470428  0.24228795  1
  O  O354  1  0.73502309  0.87457579  0.74925245  1
  O  O355  1  0.25779959  0.11529968  0.25468594  1
  O  O356  1  0.25590315  0.11651882  0.75819194  1
  O  O357  1  0.25133685  0.61484454  0.24859414  1
  O  O358  1  0.25510931  0.61284255  0.75568648  1
  O  O359  1  0.75770388  0.13427204  0.25721014  1
  O  O360  1  0.76595701  0.13420076  0.74490723  1
  O  O361  1  0.74954799  0.61279307  0.24405295  1
  O  O362  1  0.75445483  0.61905115  0.76093360  1
  O  O363  1  0.37338321  0.11465935  0.37450502  1
  O  O364  1  0.36759119  0.11484098  0.86953764  1
  O  O365  1  0.37206000  0.62068764  0.37260841  1
  O  O366  1  0.37161951  0.61452875  0.87045206  1
  O  O367  1  0.86987287  0.12143587  0.36490406  1
  O  O368  1  0.88283307  0.11692060  0.86429740  1
  O  O369  1  0.89253244  0.61180663  0.39220392  1
  O  O370  1  0.86985711  0.62078028  0.87600084  1
  O  O371  1  0.11703229  0.40165719  0.04734858  1
  O  O372  1  0.11747927  0.38691794  0.63100322  1
  O  O373  1  0.13315016  0.88478386  0.12610871  1
  O  O374  1  0.12854377  0.87744638  0.62711277  1
  O  O375  1  0.63072974  0.38327369  0.12476200  1
  O  O376  1  0.63944943  0.38052477  0.63364402  1
  O  O377  1  0.63672787  0.87055529  0.13577346  1
  O  O378  1  0.61899262  0.86798506  0.64495073  1
  O  O379  1  0.11505512  0.24402295  0.26063276  1
  O  O380  1  0.12057003  0.25555893  0.75475885  1
  O  O381  1  0.11711840  0.75393493  0.25573670  1
  O  O382  1  0.11998101  0.75463799  0.75544786  1
  O  O383  1  0.63083625  0.27273258  0.25316806  1
  O  O384  1  0.62063467  0.25774593  0.75597820  1
  O  O385  1  0.62443358  0.76091215  0.26290746  1
  O  O386  1  0.61182571  0.75327272  0.75787422  1
  O  O387  1  0.37720877  0.23838146  0.26368208  1
  O  O388  1  0.38036285  0.24504043  0.74711489  1
  O  O389  1  0.37379431  0.75198490  0.23884917  1
  O  O390  1  0.38390968  0.74466650  0.75007911  1
  O  O391  1  0.88061495  0.24466912  0.23913028  1
  O  O392  1  0.88613582  0.24424560  0.74870871  1
  O  O393  1  0.88714610  0.75246264  0.23831452  1
  O  O394  1  0.87940552  0.74335974  0.74339180  1
  O  O395  1  0.37804253  0.49540323  0.49966528  1
  O  O396  1  0.38059329  0.50945710  0.98953234  1
  O  O397  1  0.36683499  0.98766619  0.49245610  1
  O  O398  1  0.37528270  0.99176722  0.99378575  1
  O  O399  1  0.88368382  0.49333118  0.50361761  1
  O  O400  1  0.87021560  0.48481749  0.99604062  1
  O  O401  1  0.87974523  1.00624259  0.48600745  1
  O  O402  1  0.87790911  0.99506325  0.99185171  1
  O  O403  1  0.12434463  -0.00239964  0.01242447  1
  O  O404  1  0.12117848  0.00678291  0.50512629  1
  O  O405  1  0.13088961  0.52980866  -0.01636725  1
  O  O406  1  0.12711708  0.50858147  0.50999791  1
  O  O407  1  0.63140123  0.01045295  -0.00021590  1
  O  O408  1  0.63183754  0.00987897  0.50117347  1
  O  O409  1  0.61951489  0.51070062  0.01232545  1
  O  O410  1  0.60678025  0.48068909  0.51895404  1
  O  O411  1  0.38400860  0.37884195  0.10992445  1
  O  O412  1  0.37111767  0.36452682  0.62291084  1
  O  O413  1  0.36916921  0.86923789  0.11750259  1
  O  O414  1  0.36569203  0.87467587  0.62027778  1
  O  O415  1  0.86726229  0.36705557  0.11704817  1
  O  O416  1  0.86620227  0.37708157  0.61882033  1
  O  O417  1  0.86967253  0.87540025  0.11926780  1
  O  O418  1  0.87533534  0.85802290  0.63027161  1
  O  O419  1  0.12307111  0.13299385  0.38243333  1
  O  O420  1  0.13266875  0.13425333  0.86633168  1
  O  O421  1  0.12331416  0.63501997  0.38398048  1
  O  O422  1  0.12513199  0.64169170  0.87376401  1
  O  O423  1  0.63305093  0.12133610  0.38570258  1
  O  O424  1  0.63347576  0.13815359  0.86472945  1
  O  O425  1  0.61997822  0.64528470  0.37351581  1
  O  O426  1  0.63367255  0.62481154  0.88698457  1
