# generated using pymatgen
data_V85Zn86O256
_symmetry_space_group_name_H-M   'P 1'
_cell_length_a   16.93345969
_cell_length_b   16.93935378
_cell_length_c   16.92554552
_cell_angle_alpha   90.03514360
_cell_angle_beta   90.00640376
_cell_angle_gamma   90.01380232
_symmetry_Int_Tables_number   1
_chemical_formula_structural   V85Zn86O256
_chemical_formula_sum   'V85 Zn86 O256'
_cell_volume   4854.95394700
_cell_formula_units_Z   1
loop_
 _symmetry_equiv_pos_site_id
 _symmetry_equiv_pos_as_xyz
  1  'x, y, z'
loop_
 _atom_site_type_symbol
 _atom_site_label
 _atom_site_symmetry_multiplicity
 _atom_site_fract_x
 _atom_site_fract_y
 _atom_site_fract_z
 _atom_site_occupancy
  V  V0  1  0.39346020  0.49708396  0.87380087  1
  V  V1  1  0.25013846  0.11922151  0.36839351  1
  V  V2  1  0.37301757  0.50076756  0.37012115  1
  V  V3  1  0.88118900  0.87476066  0.49997300  1
  V  V4  1  0.00106160  0.75049670  0.75105455  1
  V  V5  1  0.87741660  0.74909064  0.62553657  1
  V  V6  1  0.37142035  0.25543839  0.62779348  1
  V  V7  1  -0.00087520  0.37103974  0.36848924  1
  V  V8  1  0.63130593  0.74911126  0.88029255  1
  V  V9  1  0.62775629  0.51708181  0.61573017  1
  V  V10  1  0.00528083  0.87231690  0.36156675  1
  V  V11  1  0.25410159  0.49713309  0.74369579  1
  V  V12  1  0.63123926  0.61951693  0.00975179  1
  V  V13  1  0.23824482  0.12965791  0.87939209  1
  V  V14  1  0.75409263  0.87217615  0.11073452  1
  V  V15  1  0.00540451  0.24931624  0.75542769  1
  V  V16  1  0.12881030  0.37095940  0.24481650  1
  V  V17  1  0.61642318  0.25723565  0.87639502  1
  V  V18  1  0.62370139  -0.00121856  0.12694008  1
  V  V19  1  0.74959653  0.25199315  0.49977682  1
  V  V20  1  0.61631064  0.24857671  0.36996203  1
  V  V21  1  0.37305131  0.25974729  0.13386850  1
  V  V22  1  0.88884831  0.12900651  0.24642541  1
  V  V23  1  0.87483388  -0.00361392  0.88716210  1
  V  V24  1  0.12947531  -0.00765111  0.14270563  1
  V  V25  1  0.87509144  0.25037314  0.62493360  1
  V  V26  1  0.24218552  0.74682855  0.50732269  1
  V  V27  1  0.12070436  0.74695859  0.36359190  1
  V  V28  1  0.00186038  0.37367552  0.87606471  1
  V  V29  1  0.61860177  0.12628442  0.00208693  1
  V  V30  1  0.25387130  0.62474759  0.87884930  1
  V  V31  1  0.75071960  0.00199761  0.75104370  1
  V  V32  1  0.37855998  0.62989494  0.73410141  1
  V  V33  1  0.12834592  0.50461057  0.62112355  1
  V  V34  1  0.24110641  0.62216883  0.37536257  1
  V  V35  1  0.74760414  0.50032222  0.24514576  1
  V  V36  1  0.86896493  0.49490758  0.87284494  1
  V  V37  1  0.87579971  0.12485445  0.75211580  1
  V  V38  1  0.75060140  0.25496479  0.00232670  1
  V  V39  1  0.87517181  0.50031706  0.37218345  1
  V  V40  1  0.12835420  0.37363903  0.74398577  1
  V  V41  1  0.62458469  0.12605602  0.50101959  1
  V  V42  1  0.75105103  0.74587102  0.49551032  1
  V  V43  1  0.58048695  0.68936683  0.43230815  1
  V  V44  1  0.24915296  0.25383371  0.50538238  1
  V  V45  1  0.49835177  0.12755588  0.62794858  1
  V  V46  1  0.25027970  -0.00497099  0.75351814  1
  V  V47  1  0.75092714  0.37658521  0.12351676  1
  V  V48  1  0.88538691  0.25154816  0.12492299  1
  V  V49  1  -0.00101716  0.87461496  0.88629919  1
  V  V50  1  0.87623387  -0.00034149  0.37404586  1
  V  V51  1  0.12172306  0.24763017  0.36972297  1
  V  V52  1  -0.00580509  0.49444950  0.00071385  1
  V  V53  1  0.62510572  0.87701116  0.75167040  1
  V  V54  1  0.63036656  0.86821625  0.25217496  1
  V  V55  1  0.11730997  0.12543118  0.01217985  1
  V  V56  1  0.49506085  0.74882504  0.23650714  1
  V  V57  1  0.25368178  0.86280008  0.13244586  1
  V  V58  1  0.37462197  0.00413259  0.88693789  1
  V  V59  1  0.00430175  0.50689629  0.49824273  1
  V  V60  1  0.00169054  0.12366197  0.62624227  1
  V  V61  1  0.37292566  -0.00299667  0.36721814  1
  V  V62  1  0.13247585  0.49418724  0.12153031  1
  V  V63  1  0.00069007  0.62681519  0.12596583  1
  V  V64  1  0.75224762  0.87799472  0.62444935  1
  V  V65  1  0.37355087  0.12964156  0.75381869  1
  V  V66  1  0.12536971  0.74791687  0.88510159  1
  V  V67  1  0.37403348  0.37861946  0.50480843  1
  V  V68  1  0.62010286  0.37357372  0.24248507  1
  V  V69  1  0.87153506  0.61897339  0.74916920  1
  V  V70  1  0.49551803  0.87336434  0.87769606  1
  V  V71  1  0.87580315  0.37538069  0.49791672  1
  V  V72  1  0.49926412  0.37574353  0.37400468  1
  V  V73  1  0.87586150  0.63592398  0.24628704  1
  V  V74  1  0.74856770  0.62748261  0.37308578  1
  V  V75  1  0.74990066  0.12511317  0.37083059  1
  V  V76  1  0.12689313  0.12214568  0.50256301  1
  V  V77  1  0.49684128  0.00054216  0.50340393  1
  V  V78  1  0.74924715  0.12768763  0.87633044  1
  V  V79  1  0.50532478  0.87231287  0.37734210  1
  V  V80  1  0.25612786  0.87199204  0.62943948  1
  V  V81  1  0.49868479  0.74829425  0.73777220  1
  V  V82  1  0.49564388  0.26225772  0.75296157  1
  V  V83  1  0.63350431  0.38404168  0.74748625  1
  V  V84  1  0.87654369  0.75542367  0.10575278  1
  Zn  Zn85  1  0.38494143  0.13078384  0.25240105  1
  Zn  Zn86  1  0.00357668  0.62718915  0.62135542  1
  Zn  Zn87  1  0.37903613  0.37273772  -0.00185933  1
  Zn  Zn88  1  0.00260716  -0.00284441  0.50313651  1
  Zn  Zn89  1  0.75311473  -0.00269675  0.24817361  1
  Zn  Zn90  1  0.25028420  0.49779449  0.24280697  1
  Zn  Zn91  1  0.24674334  0.25772697  0.00770240  1
  Zn  Zn92  1  0.50214746  0.51513827  0.50069645  1
  Zn  Zn93  1  0.48991647  0.61741041  0.11980495  1
  Zn  Zn94  1  0.62468221  0.00378756  0.62838514  1
  Zn  Zn95  1  0.37463647  0.87003958  0.50418618  1
  Zn  Zn96  1  0.49641091  -0.00336428  0.00568049  1
  Zn  Zn97  1  0.49998133  0.13271117  0.13960134  1
  Zn  Zn98  1  0.36257108  0.63569904  0.24029337  1
  Zn  Zn99  1  0.12559842  -0.00342856  0.62782626  1
  Zn  Zn100  1  0.12781597  0.87297663  0.75367521  1
  Zn  Zn101  1  0.75312222  0.62607373  0.87686709  1
  Zn  Zn102  1  0.75277027  0.38249630  0.62573035  1
  Zn  Zn103  1  0.51184407  0.48927276  0.01372523  1
  Zn  Zn104  1  0.12805903  0.62398069  0.00173003  1
  Zn  Zn105  1  -0.00063402  0.00061769  0.01051110  1
  Zn  Zn106  1  0.37014232  0.84001170  0.01587607  1
  Zn  Zn107  1  0.19038913  0.18722587  0.18610991  1
  Zn  Zn108  1  0.18888968  0.18693784  0.69018557  1
  Zn  Zn109  1  0.18493164  0.68655253  0.18765059  1
  Zn  Zn110  1  0.18704376  0.68474664  0.69182357  1
  Zn  Zn111  1  0.68731891  0.18810585  0.18832368  1
  Zn  Zn112  1  0.68605065  0.19177464  0.68842077  1
  Zn  Zn113  1  0.69094024  0.69346790  0.18596035  1
  Zn  Zn114  1  0.69196748  0.69193088  0.69040207  1
  Zn  Zn115  1  0.30912049  0.31130805  0.31501503  1
  Zn  Zn116  1  0.29241739  0.33140320  0.84400607  1
  Zn  Zn117  1  0.30953272  0.81720414  0.31152658  1
  Zn  Zn118  1  0.32635829  0.79658126  0.84179063  1
  Zn  Zn119  1  0.81075565  0.31005679  0.30957100  1
  Zn  Zn120  1  0.81375810  0.31285002  0.81413651  1
  Zn  Zn121  1  0.81304843  0.81272211  0.31182225  1
  Zn  Zn122  1  0.81543646  0.81466726  0.81388242  1
  Zn  Zn123  1  0.18681387  0.43465294  0.43715847  1
  Zn  Zn124  1  0.18557539  0.44060813  0.93311819  1
  Zn  Zn125  1  0.18680260  0.93433133  0.43822866  1
  Zn  Zn126  1  0.18959739  0.93523938  0.94920024  1
  Zn  Zn127  1  0.68633380  0.43979698  0.43724222  1
  Zn  Zn128  1  0.68593818  0.43586281  0.93611236  1
  Zn  Zn129  1  0.68759433  0.93817668  0.43852634  1
  Zn  Zn130  1  0.68525981  0.93967252  0.93733212  1
  Zn  Zn131  1  0.30786346  0.06684450  0.07244533  1
  Zn  Zn132  1  0.31232223  0.06160666  0.56394076  1
  Zn  Zn133  1  0.31737406  0.56395295  0.05886194  1
  Zn  Zn134  1  0.30899196  0.56292634  0.55813791  1
  Zn  Zn135  1  0.80810732  0.06678384  0.06557461  1
  Zn  Zn136  1  0.81419617  0.06287737  0.56119989  1
  Zn  Zn137  1  0.81126871  0.56353003  0.05791435  1
  Zn  Zn138  1  0.81147799  0.56209800  0.56378808  1
  Zn  Zn139  1  0.43680656  0.43756776  0.18289749  1
  Zn  Zn140  1  0.44422166  0.44354661  0.68419445  1
  Zn  Zn141  1  0.43603633  0.93383866  0.18708823  1
  Zn  Zn142  1  0.43366917  0.93799336  0.69249350  1
  Zn  Zn143  1  0.93774738  0.43646357  0.18694748  1
  Zn  Zn144  1  0.93957424  0.43761076  0.68584705  1
  Zn  Zn145  1  0.93919805  0.93981937  0.18363752  1
  Zn  Zn146  1  0.93966986  0.93741695  0.69351312  1
  Zn  Zn147  1  0.06186776  0.05975889  0.31527151  1
  Zn  Zn148  1  0.06302258  0.05854580  0.81603480  1
  Zn  Zn149  1  0.06262585  0.56135261  0.30770738  1
  Zn  Zn150  1  0.06162492  0.56172825  0.81072018  1
  Zn  Zn151  1  0.56109897  0.05704565  0.31099107  1
  Zn  Zn152  1  0.56018734  0.06551267  0.81507690  1
  Zn  Zn153  1  0.55695278  0.55482904  0.29786570  1
  Zn  Zn154  1  0.56700922  0.56919242  0.80499088  1
  Zn  Zn155  1  0.43549668  0.18710092  0.43654815  1
  Zn  Zn156  1  0.43400391  0.19193297  0.94450648  1
  Zn  Zn157  1  0.41623259  0.69025695  0.43241143  1
  Zn  Zn158  1  0.44630071  0.67879476  0.93223657  1
  Zn  Zn159  1  0.93923004  0.18670529  0.43707901  1
  Zn  Zn160  1  0.93754408  0.18919893  0.93983890  1
  Zn  Zn161  1  0.93778810  0.68804831  0.43397430  1
  Zn  Zn162  1  0.94157257  0.68066933  0.93641275  1
  Zn  Zn163  1  0.06489293  0.31065243  0.05793324  1
  Zn  Zn164  1  0.06221179  0.31512462  0.56254133  1
  Zn  Zn165  1  0.06552698  0.81426860  0.06860144  1
  Zn  Zn166  1  0.06904440  0.81213650  0.56398905  1
  Zn  Zn167  1  0.55239773  0.31577591  0.06323120  1
  Zn  Zn168  1  0.56078602  0.31732109  0.56338904  1
  Zn  Zn169  1  0.56504678  0.81371480  0.05871530  1
  Zn  Zn170  1  0.56452795  0.81962743  0.56663234  1
  O  O171  1  0.12842157  0.11489490  0.11749330  1
  O  O172  1  0.11997260  0.12420037  0.61798610  1
  O  O173  1  0.11581915  0.61583516  0.12449164  1
  O  O174  1  0.12162056  0.60984711  0.62963566  1
  O  O175  1  0.62488251  0.11774734  0.11993794  1
  O  O176  1  0.61832346  0.12591714  0.61863366  1
  O  O177  1  0.62739751  0.63371469  0.11060728  1
  O  O178  1  0.62975969  0.61547806  0.63111018  1
  O  O179  1  0.38088011  0.37853380  0.38338627  1
  O  O180  1  0.38546422  0.39681302  0.85519797  1
  O  O181  1  0.38653940  0.88036681  0.37950666  1
  O  O182  1  0.38879559  0.89203342  0.86139513  1
  O  O183  1  0.88134516  0.37773932  0.37593321  1
  O  O184  1  0.88895199  0.38234954  0.86597390  1
  O  O185  1  0.88502700  0.87626217  0.38158418  1
  O  O186  1  0.88243701  0.88646093  0.87302553  1
  O  O187  1  0.26077210  0.00643672  0.38653808  1
  O  O188  1  0.25676597  0.00623228  0.87121876  1
  O  O189  1  0.25333062  0.50809963  0.37780466  1
  O  O190  1  0.25316095  0.50894365  0.85752942  1
  O  O191  1  0.75747771  0.00796105  0.37445946  1
  O  O192  1  0.75655495  0.00631726  0.87226353  1
  O  O193  1  0.75635795  0.50639868  0.36720506  1
  O  O194  1  0.76594465  0.49675030  0.87780021  1
  O  O195  1  0.23556549  0.50115902  0.11978955  1
  O  O196  1  0.24411904  0.50160713  0.63324608  1
  O  O197  1  0.23457387  0.99550590  0.12412684  1
  O  O198  1  0.25027875  0.99320325  0.63515671  1
  O  O199  1  0.75860909  0.48513471  0.12926093  1
  O  O200  1  0.73572195  0.49803318  0.62062547  1
  O  O201  1  0.74054365  0.99367382  0.12701374  1
  O  O202  1  0.75081575  0.99583788  0.63115590  1
  O  O203  1  0.00751104  0.37895580  0.26284583  1
  O  O204  1  0.00565541  0.36591997  0.75203196  1
  O  O205  1  -0.00659417  0.87362469  0.26399435  1
  O  O206  1  0.00177883  0.86641730  0.76119058  1
  O  O207  1  0.50908534  0.37850627  0.26349176  1
  O  O208  1  0.51173500  0.36521263  0.74383664  1
  O  O209  1  0.50663238  0.86475818  0.25802331  1
  O  O210  1  0.50727336  0.87201522  0.75588229  1
  O  O211  1  0.50120790  0.12937887  0.25512641  1
  O  O212  1  0.49531273  0.13569792  0.74573134  1
  O  O213  1  0.50393807  0.64270393  0.24816856  1
  O  O214  1  0.48840712  0.63351325  0.74893932  1
  O  O215  1  0.98692705  0.12785841  0.25807013  1
  O  O216  1  0.99798552  0.13141011  0.74747931  1
  O  O217  1  0.98886226  0.61517596  0.23476709  1
  O  O218  1  0.99021045  0.63348662  0.74875315  1
  O  O219  1  0.36733035  0.25160296  0.01081787  1
  O  O220  1  0.36778011  0.25747989  0.50487703  1
  O  O221  1  0.36735329  0.75472589  -0.05481337  1
  O  O222  1  0.34969353  0.75522814  0.49410988  1
  O  O223  1  0.86441632  0.24116594  0.01506621  1
  O  O224  1  0.87024078  0.25489654  0.50351020  1
  O  O225  1  0.87629629  0.74763340  0.00740773  1
  O  O226  1  0.87053555  0.75665627  0.50383137  1
  O  O227  1  0.13068585  0.24444994  0.49458153  1
  O  O228  1  0.13032477  0.23267588  1.00623641  1
  O  O229  1  0.13608704  0.75257295  0.48946789  1
  O  O230  1  0.11822199  0.74470820  0.98855181  1
  O  O231  1  0.63029991  0.24599183  0.49266708  1
  O  O232  1  0.62896855  0.24621545  0.99343598  1
  O  O233  1  0.63409470  0.75348777  0.49964548  1
  O  O234  1  0.62171277  0.74269327  0.98571601  1
  O  O235  1  0.48152367  0.24849181  0.12299510  1
  O  O236  1  0.49314926  0.24691935  0.63227849  1
  O  O237  1  0.49965707  0.75375907  0.13505070  1
  O  O238  1  0.50335381  0.75721978  0.63826665  1
  O  O239  1  0.98387756  0.25409210  0.12093260  1
  O  O240  1  0.99522735  0.24300189  0.63246962  1
  O  O241  1  0.98819687  0.74193913  0.12086145  1
  O  O242  1  0.99551662  0.74979774  0.63188975  1
  O  O243  1  0.01039664  0.25840623  0.38171952  1
  O  O244  1  -0.00588578  0.25669021  0.86330850  1
  O  O245  1  0.01043201  0.75982494  0.38052693  1
  O  O246  1  0.00401187  0.75481218  0.86942931  1
  O  O247  1  0.51039470  0.25741837  0.38226744  1
  O  O248  1  0.50995966  0.24376921  0.86750793  1
  O  O249  1  0.50805751  0.75459706  0.37842755  1
  O  O250  1  0.51427271  0.75890561  0.86302656  1
  O  O251  1  0.24190956  0.13122134  0.49664112  1
  O  O252  1  0.24048156  0.12338075  0.98883402  1
  O  O253  1  0.24954642  0.63534480  0.48822049  1
  O  O254  1  0.24698982  0.61719146  0.98202281  1
  O  O255  1  0.74732009  0.13030816  0.48929326  1
  O  O256  1  0.73808922  0.13582681  0.99816604  1
  O  O257  1  0.75664535  0.63919046  0.49433119  1
  O  O258  1  0.73802534  0.62610923  0.99470854  1
  O  O259  1  0.26277005  0.36337222  -0.04105175  1
  O  O260  1  0.26037162  0.36512390  0.49430077  1
  O  O261  1  0.25723118  0.87864307  0.01758961  1
  O  O262  1  0.24813634  0.86586507  0.51014694  1
  O  O263  1  0.74406618  0.36357060  0.00795149  1
  O  O264  1  0.75754494  0.36758327  0.49752567  1
  O  O265  1  0.74646792  0.87751980  0.01136376  1
  O  O266  1  0.76133702  0.86741483  0.50064198  1
  O  O267  1  0.12385647  0.48994285  0.23903522  1
  O  O268  1  0.13212368  0.49445460  0.74151073  1
  O  O269  1  0.12604249  1.00337416  0.24176556  1
  O  O270  1  0.13894539  0.99854868  0.75179368  1
  O  O271  1  0.63986629  0.48862650  0.25318181  1
  O  O272  1  0.62291439  0.48827783  0.74213258  1
  O  O273  1  0.62792079  0.98663445  0.24380987  1
  O  O274  1  0.63240003  0.99572166  0.75280930  1
  O  O275  1  0.38234033  0.00117032  0.26535452  1
  O  O276  1  0.36569510  0.01078991  0.75760543  1
  O  O277  1  0.36838171  0.49260634  0.26305268  1
  O  O278  1  0.37211157  0.50960930  0.74867720  1
  O  O279  1  0.87426739  0.01260183  0.25384106  1
  O  O280  1  0.86967232  0.00733145  0.75983040  1
  O  O281  1  0.86485893  0.50553870  0.25315007  1
  O  O282  1  0.88288363  0.50815931  0.75760533  1
  O  O283  1  0.11701347  0.36554862  0.37103106  1
  O  O284  1  0.11002427  0.38256860  0.85839366  1
  O  O285  1  0.11193202  0.86717234  0.37825719  1
  O  O286  1  0.11905721  0.86609203  0.87508661  1
  O  O287  1  0.61840258  0.36855059  0.36964761  1
  O  O288  1  0.62904186  0.36787316  0.86105366  1
  O  O289  1  0.61440962  0.88060555  0.36810201  1
  O  O290  1  0.61615517  0.86999125  0.87281637  1
  O  O291  1  0.37914711  0.13195405  0.13178832  1
  O  O292  1  0.37849287  0.13301744  0.63296029  1
  O  O293  1  0.37561967  0.62463546  0.12952955  1
  O  O294  1  0.37277793  0.62240524  0.63489259  1
  O  O295  1  0.87011409  0.13403361  0.13876606  1
  O  O296  1  0.88208679  0.12984573  0.63039158  1
  O  O297  1  0.87836365  0.63537408  0.12689963  1
  O  O298  1  0.87851917  0.63122912  0.63118140  1
  O  O299  1  0.26379869  0.24519296  0.12319757  1
  O  O300  1  0.25485122  0.24617021  0.61370079  1
  O  O301  1  0.24191089  0.76200237  0.12644294  1
  O  O302  1  0.24093734  0.75391935  0.61492304  1
  O  O303  1  0.75516917  0.25755111  0.12002705  1
  O  O304  1  0.75702251  0.24867362  0.61469287  1
  O  O305  1  0.76691289  0.75792416  0.12630683  1
  O  O306  1  0.75736894  0.75802992  0.61728734  1
  O  O307  1  0.24228327  0.24134703  0.38725152  1
  O  O308  1  0.24763986  0.22880495  0.86751941  1
  O  O309  1  0.23658098  0.74577312  0.37868478  1
  O  O310  1  0.23167682  0.73532708  0.85668544  1
  O  O311  1  0.74330118  0.24355091  0.38140730  1
  O  O312  1  0.74338539  0.24759087  0.88383628  1
  O  O313  1  0.75191336  0.74325363  0.38236850  1
  O  O314  1  0.73413318  0.75560466  0.86970763  1
  O  O315  1  0.01462375  0.12444523  -0.00441772  1
  O  O316  1  0.00956877  0.12431382  0.50676275  1
  O  O317  1  0.00206717  0.61448572  0.01078362  1
  O  O318  1  -0.00601760  0.61052548  0.49839939  1
  O  O319  1  0.51275360  0.12399038  0.00104559  1
  O  O320  1  0.50354860  0.11928369  0.50606869  1
  O  O321  1  0.51671179  0.62159323  -0.00022266  1
  O  O322  1  0.50604845  0.63489186  0.48350364  1
  O  O323  1  0.49332878  0.37713627  0.48840778  1
  O  O324  1  0.49545720  0.37913005  0.99309985  1
  O  O325  1  0.49960822  0.88248834  0.49513109  1
  O  O326  1  0.49223812  0.87485474  0.99133158  1
  O  O327  1  0.99444644  0.38239637  0.48954219  1
  O  O328  1  1.00386070  0.38013544  0.98792017  1
  O  O329  1  0.98999862  0.87407755  0.49835867  1
  O  O330  1  1.00243363  0.87620751  0.98931856  1
  O  O331  1  0.49139935  0.49420540  0.37642897  1
  O  O332  1  0.49340085  0.50873704  0.87067836  1
  O  O333  1  0.49522883  0.99104099  0.38498445  1
  O  O334  1  0.49352902  0.99403585  0.87817688  1
  O  O335  1  0.99554380  0.49316900  0.37936556  1
  O  O336  1  0.99377396  0.49377906  0.88122380  1
  O  O337  1  0.99595037  0.98683590  0.37903748  1
  O  O338  1  0.99093888  0.99125123  0.87602504  1
  O  O339  1  0.01821411  -0.00684800  0.12434824  1
  O  O340  1  0.00196563  0.00981716  0.62661846  1
  O  O341  1  0.00284516  0.50323104  0.11659989  1
  O  O342  1  0.00718202  0.50045563  0.61418927  1
  O  O343  1  0.51373757  -0.00248214  0.12516810  1
  O  O344  1  0.49947768  0.00653049  0.62003322  1
  O  O345  1  0.50716444  0.50360698  0.12947205  1
  O  O346  1  0.51994422  0.49779842  0.61809779  1
  O  O347  1  0.23195221  0.37853932  0.26067807  1
  O  O348  1  0.23960824  0.38318714  0.75361578  1
  O  O349  1  0.25326749  0.87712150  0.23527666  1
  O  O350  1  0.25223469  0.88172784  0.74735082  1
  O  O351  1  0.74404785  0.38100163  0.24406964  1
  O  O352  1  0.73681919  0.36739223  0.74627729  1
  O  O353  1  0.74385274  0.87556012  0.24392702  1
  O  O354  1  0.74593401  0.88223095  0.74572320  1
  O  O355  1  0.25091385  0.12698716  0.26714460  1
  O  O356  1  0.25254991  0.11665155  0.75958161  1
  O  O357  1  0.24500104  0.61992506  0.26192244  1
  O  O358  1  0.26200471  0.61847020  0.75140154  1
  O  O359  1  0.75386067  0.12369773  0.26191076  1
  O  O360  1  0.75433130  0.12240285  0.75621051  1
  O  O361  1  0.75524406  0.61776880  0.24955589  1
  O  O362  1  0.76725312  0.63264017  0.75461739  1
  O  O363  1  0.36592051  0.11664864  0.37816156  1
  O  O364  1  0.36767734  0.12035620  0.87127460  1
  O  O365  1  0.36162868  0.61567912  0.36546765  1
  O  O366  1  0.36902071  0.61229734  0.86057924  1
  O  O367  1  0.86903192  0.12356858  0.36638258  1
  O  O368  1  0.86843454  0.12097177  0.87074970  1
  O  O369  1  0.87024769  0.62076874  0.36455009  1
  O  O370  1  0.87535972  0.61502939  0.86799533  1
  O  O371  1  0.11693110  0.38021771  0.13388313  1
  O  O372  1  0.11870486  0.38568639  0.63592217  1
  O  O373  1  0.13455491  0.88496747  0.12498202  1
  O  O374  1  0.13700411  0.87759328  0.63177571  1
  O  O375  1  0.63348508  0.36408638  0.13719439  1
  O  O376  1  0.62970856  0.37520450  0.63630957  1
  O  O377  1  0.63329202  0.87919038  0.13012158  1
  O  O378  1  0.63514780  0.88176946  0.63299835  1
  O  O379  1  0.12767060  0.25303866  0.26194794  1
  O  O380  1  0.11551064  0.25816383  0.74344119  1
  O  O381  1  0.12179400  0.74961976  0.26463827  1
  O  O382  1  0.11047131  0.74755931  0.75503896  1
  O  O383  1  0.63363892  0.25963555  0.26254878  1
  O  O384  1  0.61775348  0.25755352  0.75771192  1
  O  O385  1  0.61679285  0.76202067  0.24658607  1
  O  O386  1  0.62052550  0.75775658  0.75635806  1
  O  O387  1  0.36955562  0.25141391  0.24069253  1
  O  O388  1  0.38188352  0.24828117  0.74686156  1
  O  O389  1  0.39359078  0.75148309  0.26169804  1
  O  O390  1  0.38286640  0.73712606  0.75269120  1
  O  O391  1  0.87028331  0.23811175  0.24013002  1
  O  O392  1  0.88202232  0.24371064  0.74453884  1
  O  O393  1  0.87333020  0.73770201  0.24642252  1
  O  O394  1  0.88467042  0.74598464  0.74638492  1
  O  O395  1  0.37720838  0.49522608  0.49003196  1
  O  O396  1  0.37632058  0.49869782  0.97972156  1
  O  O397  1  0.38708059  0.99953449  0.49585870  1
  O  O398  1  0.37610213  1.00912158  0.99025097  1
  O  O399  1  0.88033849  0.49367575  0.49250462  1
  O  O400  1  0.88671280  0.50238319  0.99147661  1
  O  O401  1  0.87730296  0.99138840  0.49273406  1
  O  O402  1  0.87724890  1.01106420  0.99083407  1
  O  O403  1  0.12172300  0.01317128  0.00276043  1
  O  O404  1  0.12392949  0.01111974  0.50266035  1
  O  O405  1  0.11383077  0.49859950  0.00488183  1
  O  O406  1  0.11629883  0.49197093  0.50767963  1
  O  O407  1  0.62376165  0.00921087  0.00802003  1
  O  O408  1  0.61412713  0.00707292  0.50132218  1
  O  O409  1  0.62786001  0.51559332  -0.00663302  1
  O  O410  1  0.62410777  0.50341751  0.50990335  1
  O  O411  1  0.37050590  0.36515809  0.12328037  1
  O  O412  1  0.38173096  0.37358978  0.61165686  1
  O  O413  1  0.36348637  0.87475160  0.12418887  1
  O  O414  1  0.36136620  0.87829543  0.62438162  1
  O  O415  1  0.86639964  0.35938025  0.13388702  1
  O  O416  1  0.87384199  0.36883100  0.61796024  1
  O  O417  1  0.87107603  0.86286062  0.12718721  1
  O  O418  1  0.87225110  0.87131112  0.61848533  1
  O  O419  1  0.12861882  0.12962736  0.38362980  1
  O  O420  1  0.13440834  0.12015072  0.88301076  1
  O  O421  1  0.12505165  0.63648839  0.37285766  1
  O  O422  1  0.13063343  0.62945490  0.87472648  1
  O  O423  1  0.63222006  0.13079430  0.38023161  1
  O  O424  1  0.63089209  0.13430126  0.88189921  1
  O  O425  1  0.63095872  0.62231373  0.36833593  1
  O  O426  1  0.62989014  0.63764956  0.87567070  1
