# generated using pymatgen
data_V85Zn86O256
_symmetry_space_group_name_H-M   'P 1'
_cell_length_a   16.94379910
_cell_length_b   16.94916273
_cell_length_c   16.95198655
_cell_angle_alpha   89.93536109
_cell_angle_beta   90.08738365
_cell_angle_gamma   89.95462054
_symmetry_Int_Tables_number   1
_chemical_formula_structural   V85Zn86O256
_chemical_formula_sum   'V85 Zn86 O256'
_cell_volume   4868.31559170
_cell_formula_units_Z   1
loop_
 _symmetry_equiv_pos_site_id
 _symmetry_equiv_pos_as_xyz
  1  'x, y, z'
loop_
 _atom_site_type_symbol
 _atom_site_label
 _atom_site_symmetry_multiplicity
 _atom_site_fract_x
 _atom_site_fract_y
 _atom_site_fract_z
 _atom_site_occupancy
  V  V0  1  0.25077083  0.74784633  0.49739540  1
  V  V1  1  0.49964845  0.50074390  0.49947675  1
  V  V2  1  -0.00223402  0.86562693  0.87995465  1
  V  V3  1  0.62594503  0.87232934  0.25861208  1
  V  V4  1  0.36608293  0.75086915  0.11133033  1
  V  V5  1  0.88032995  0.12276622  0.74313956  1
  V  V6  1  0.37465684  0.25151393  0.62464481  1
  V  V7  1  0.37433147  0.50589308  0.36888892  1
  V  V8  1  0.75264727  0.13427600  0.37723914  1
  V  V9  1  0.62758816  0.12725442  -0.00116710  1
  V  V10  1  0.50880793  0.37242602  0.37594813  1
  V  V11  1  0.88649698  0.37454218  -0.00345761  1
  V  V12  1  0.24671308  0.25078621  0.48535067  1
  V  V13  1  0.62530952  0.12966869  0.49594711  1
  V  V14  1  0.24450520  0.37555072  0.62509934  1
  V  V15  1  0.24981562  0.51123422  0.74482969  1
  V  V16  1  0.49971876  0.37486030  0.87067335  1
  V  V17  1  0.24884125  0.50514598  0.24758831  1
  V  V18  1  0.12466723  0.87191498  0.74651768  1
  V  V19  1  0.87978620  0.25266436  0.13240469  1
  V  V20  1  0.00373864  0.35860373  0.37494519  1
  V  V21  1  0.88048424  0.12946330  0.25521247  1
  V  V22  1  -0.00242000  0.63570408  0.62015415  1
  V  V23  1  0.62570354  0.63070615  0.49941510  1
  V  V24  1  0.37415316  0.37650481  0.49816036  1
  V  V25  1  -0.00131598  0.00106760  0.00579886  1
  V  V26  1  0.25017205  0.87962464  0.62799095  1
  V  V27  1  0.74794043  -0.00416534  0.74832970  1
  V  V28  1  0.12220565  0.36381911  0.25310880  1
  V  V29  1  0.12036679  0.62199812  0.49439930  1
  V  V30  1  0.23510283  0.62078987  0.88935485  1
  V  V31  1  0.49253123  0.62373622  0.62723299  1
  V  V32  1  0.88046355  0.25132547  0.62300081  1
  V  V33  1  0.62491736  0.00235694  0.12803519  1
  V  V34  1  0.50364714  0.25041759  0.25544349  1
  V  V35  1  0.37419027  0.50640384  0.86840381  1
  V  V36  1  0.00179421  0.12525868  0.13571159  1
  V  V37  1  0.87097825  -0.00071373  0.87711253  1
  V  V38  1  0.14288443  0.00087411  0.13033370  1
  V  V39  1  0.37167887  0.74880056  0.62429885  1
  V  V40  1  0.13638126  0.87726914  0.24950958  1
  V  V41  1  0.35418635  0.92046099  0.46694302  1
  V  V42  1  0.75290789  0.00183361  0.25451123  1
  V  V43  1  0.50414956  0.12362626  0.61976729  1
  V  V44  1  0.37834185  0.11164375  0.75187325  1
  V  V45  1  0.00743606  0.00171830  0.52053899  1
  V  V46  1  0.49870593  0.49504126  -0.00114517  1
  V  V47  1  0.88877286  0.50394072  0.37683058  1
  V  V48  1  0.62720417  0.49807608  0.62420150  1
  V  V49  1  0.87489911  0.63422676  0.74486749  1
  V  V50  1  0.75055961  0.74629144  0.00601160  1
  V  V51  1  0.88326657  0.49513742  0.87262791  1
  V  V52  1  0.50054037  0.13107169  0.12580415  1
  V  V53  1  0.75300935  0.75716195  0.51146160  1
  V  V54  1  0.24912172  0.36679437  0.12013622  1
  V  V55  1  0.75093106  0.12180194  0.87357796  1
  V  V56  1  0.87486321  0.63629486  0.24883480  1
  V  V57  1  0.12071467  0.50311763  0.12096295  1
  V  V58  1  0.49297635  0.74665702  0.75070323  1
  V  V59  1  0.75270748  0.86902202  0.12985270  1
  V  V60  1  0.62954955  0.86807899  0.73976321  1
  V  V61  1  0.75421471  0.49538422  0.74345387  1
  V  V62  1  0.75501469  0.25185956  -0.00035170  1
  V  V63  1  0.63153751  0.37253614  0.74395764  1
  V  V64  1  0.62470995  0.74677570  0.87397577  1
  V  V65  1  0.12726260  0.12791853  0.51266154  1
  V  V66  1  0.86944801  0.87437445  0.00450325  1
  V  V67  1  0.50325337  0.25017752  0.74653525  1
  V  V68  1  0.87979736  0.38130209  0.50353366  1
  V  V69  1  0.11326137  0.49934281  0.61982195  1
  V  V70  1  0.87420694  0.87443465  0.51586304  1
  V  V71  1  0.17984742  0.79671578  0.93354004  1
  V  V72  1  0.44369800  0.93171554  0.30304065  1
  V  V73  1  -0.00012967  0.25296034  0.76177450  1
  V  V74  1  0.75207834  0.62212773  0.87424112  1
  V  V75  1  0.74968443  0.25833642  0.50409632  1
  V  V76  1  0.11918854  0.37409726  0.76123973  1
  V  V77  1  0.49411845  0.62115599  0.12530859  1
  V  V78  1  0.62812463  -0.00718117  0.62019760  1
  V  V79  1  0.62790028  0.49633413  0.12488999  1
  V  V80  1  0.75284988  0.50053814  0.25392419  1
  V  V81  1  -0.00266943  0.63399970  0.11979854  1
  V  V82  1  0.49148889  0.73825345  0.25528003  1
  V  V83  1  0.12458195  0.14027171  -0.00513526  1
  V  V84  1  0.88244373  -0.00014504  0.38117257  1
  Zn  Zn85  1  0.00177340  0.74881499  0.75357321  1
  Zn  Zn86  1  0.36760077  0.12185094  0.25329296  1
  Zn  Zn87  1  0.50218705  -0.00564718  0.48836039  1
  Zn  Zn88  1  0.36564520  -0.02115155  0.89775098  1
  Zn  Zn89  1  0.49930320  0.00221985  -0.00639779  1
  Zn  Zn90  1  0.37373161  0.24986522  0.11977677  1
  Zn  Zn91  1  0.00472449  0.50333804  -0.00444310  1
  Zn  Zn92  1  0.62668623  0.62078396  -0.00048158  1
  Zn  Zn93  1  0.49514879  0.87401184  0.88205254  1
  Zn  Zn94  1  -0.00049833  0.87490483  0.37361273  1
  Zn  Zn95  1  0.25438419  0.14028093  0.88238186  1
  Zn  Zn96  1  0.75319401  0.37597722  0.12677259  1
  Zn  Zn97  1  0.12270517  0.74995222  0.37096676  1
  Zn  Zn98  1  0.25817992  0.09409561  0.37390777  1
  Zn  Zn99  1  0.62810266  0.24962714  0.87139687  1
  Zn  Zn100  1  -0.00255246  0.75623781  0.25074317  1
  Zn  Zn101  1  0.36486340  0.36542012  -0.00922498  1
  Zn  Zn102  1  0.23894332  0.00107062  0.75515052  1
  Zn  Zn103  1  0.24887212  0.62554613  0.37002579  1
  Zn  Zn104  1  0.62219358  0.75426263  0.37892362  1
  Zn  Zn105  1  0.63047259  0.37139320  0.25556573  1
  Zn  Zn106  1  0.75251695  0.62835734  0.37818173  1
  Zn  Zn107  1  0.18938806  0.18223456  0.19839211  1
  Zn  Zn108  1  0.19871937  0.19840635  0.71187067  1
  Zn  Zn109  1  0.18367704  0.68790385  0.18293821  1
  Zn  Zn110  1  0.18109022  0.69129727  0.68901446  1
  Zn  Zn111  1  0.68906346  0.19237365  0.19020237  1
  Zn  Zn112  1  0.69334862  0.18622628  0.68188540  1
  Zn  Zn113  1  0.68196114  0.68367232  0.18933188  1
  Zn  Zn114  1  0.68604231  0.68304777  0.68503872  1
  Zn  Zn115  1  0.31964579  0.31777412  0.30520609  1
  Zn  Zn116  1  0.30996640  0.31334156  0.81103274  1
  Zn  Zn117  1  0.30626255  0.80118015  0.30027574  1
  Zn  Zn118  1  0.31573317  0.80879793  0.81149196  1
  Zn  Zn119  1  0.81628292  0.31573716  0.31557875  1
  Zn  Zn120  1  0.81412587  0.31152472  0.81300338  1
  Zn  Zn121  1  0.80961149  0.81255850  0.32540269  1
  Zn  Zn122  1  0.80881735  0.81270089  0.81344654  1
  Zn  Zn123  1  0.18437180  0.43817689  0.43596199  1
  Zn  Zn124  1  0.18591202  0.44019002  0.93912548  1
  Zn  Zn125  1  0.17996979  0.93945442  0.43890549  1
  Zn  Zn126  1  0.18618345  0.96247172  0.93564723  1
  Zn  Zn127  1  0.69241296  0.44200785  0.43811653  1
  Zn  Zn128  1  0.69049937  0.43514454  0.93375313  1
  Zn  Zn129  1  0.69306693  0.93989576  0.43891857  1
  Zn  Zn130  1  0.65989893  0.92274098  0.94997314  1
  Zn  Zn131  1  0.31182874  0.08284447  0.05783855  1
  Zn  Zn132  1  0.30315480  0.07267222  0.57528506  1
  Zn  Zn133  1  0.31498621  0.55593510  0.06309406  1
  Zn  Zn134  1  0.30958372  0.56343518  0.55976139  1
  Zn  Zn135  1  0.81236067  0.06330141  0.06719394  1
  Zn  Zn136  1  0.81149379  0.06235584  0.56432219  1
  Zn  Zn137  1  0.81669063  0.56149214  0.06415084  1
  Zn  Zn138  1  0.81313340  0.56443635  0.56187692  1
  Zn  Zn139  1  0.43533574  0.43446109  0.18899581  1
  Zn  Zn140  1  0.43547380  0.43802485  0.68767677  1
  Zn  Zn141  1  0.39945537  0.95699310  0.12008925  1
  Zn  Zn142  1  0.44497447  0.93133519  0.68206423  1
  Zn  Zn143  1  0.93962319  0.43956686  0.19092120  1
  Zn  Zn144  1  0.93824009  0.43695752  0.68558510  1
  Zn  Zn145  1  0.93814306  0.93727042  0.19167390  1
  Zn  Zn146  1  0.93822447  0.93414000  0.69292573  1
  Zn  Zn147  1  0.07300918  0.06426568  0.31918372  1
  Zn  Zn148  1  0.05753516  0.05931124  0.81327236  1
  Zn  Zn149  1  0.06286333  0.56198486  0.30609529  1
  Zn  Zn150  1  0.06177378  0.56153210  0.80681959  1
  Zn  Zn151  1  0.56835546  0.07138004  0.31075740  1
  Zn  Zn152  1  0.55885021  0.05686285  0.81299113  1
  Zn  Zn153  1  0.56506117  0.56039246  0.31366946  1
  Zn  Zn154  1  0.56392767  0.56179918  0.81012757  1
  Zn  Zn155  1  0.43297802  0.18392967  0.43264966  1
  Zn  Zn156  1  0.43999809  0.19200982  0.93668064  1
  Zn  Zn157  1  0.43536149  0.68821326  0.43775837  1
  Zn  Zn158  1  0.43556970  0.68094655  0.93493598  1
  Zn  Zn159  1  0.94271293  0.18415628  0.44510035  1
  Zn  Zn160  1  0.93945051  0.18495023  0.93899337  1
  Zn  Zn161  1  0.93815036  0.69270480  0.43616713  1
  Zn  Zn162  1  0.93124792  0.68591890  0.94057889  1
  Zn  Zn163  1  0.06080188  0.31424400  0.07066781  1
  Zn  Zn164  1  0.06109618  0.30823660  0.56231792  1
  Zn  Zn165  1  0.06094430  0.81750551  0.07256548  1
  Zn  Zn166  1  0.06481477  0.81352837  0.56088027  1
  Zn  Zn167  1  0.56455462  0.31363679  0.06166020  1
  Zn  Zn168  1  0.56464803  0.31301274  0.56078375  1
  Zn  Zn169  1  0.55940626  0.81051529  0.06703901  1
  Zn  Zn170  1  0.54401575  0.81999985  0.55089830  1
  O  O171  1  0.11774751  0.11718771  0.12051653  1
  O  O172  1  0.14186238  0.12463368  0.61143090  1
  O  O173  1  0.10691783  0.61755706  0.13162696  1
  O  O174  1  0.11650548  0.61857610  0.61911384  1
  O  O175  1  0.62478737  0.12104296  0.12077437  1
  O  O176  1  0.62340919  0.11901462  0.61332970  1
  O  O177  1  0.61543256  0.61093411  0.12294591  1
  O  O178  1  0.61660143  0.61877899  0.61489521  1
  O  O179  1  0.38515559  0.38529993  0.38102008  1
  O  O180  1  0.37863540  0.38421411  0.87090572  1
  O  O181  1  0.38056192  0.87186070  0.36017278  1
  O  O182  1  0.38217260  0.86909293  0.87437653  1
  O  O183  1  0.88685272  0.38143392  0.38179452  1
  O  O184  1  0.86973714  0.38344477  0.88387077  1
  O  O185  1  0.87514564  0.88653283  0.38733266  1
  O  O186  1  0.87862103  0.88059947  0.88187475  1
  O  O187  1  0.28089094  -0.02296917  0.40726248  1
  O  O188  1  0.25847163  0.01896547  0.87079911  1
  O  O189  1  0.25737772  0.49689734  0.36633959  1
  O  O190  1  0.25406297  0.50651124  0.86707571  1
  O  O191  1  0.76264831  0.01249780  0.37576824  1
  O  O192  1  0.75352637  0.00334577  0.86794198  1
  O  O193  1  0.75974841  0.50529098  0.36778277  1
  O  O194  1  0.75726841  0.50427961  0.86381507  1
  O  O195  1  0.24200554  0.49398651  0.13108123  1
  O  O196  1  0.24193644  0.49541600  0.62907819  1
  O  O197  1  0.24010722  1.00598406  0.11977653  1
  O  O198  1  0.25568331  0.98145739  0.62855620  1
  O  O199  1  0.74394200  0.49936308  0.13275804  1
  O  O200  1  0.74560002  0.50408335  0.63663150  1
  O  O201  1  0.74229419  0.99596699  0.13459173  1
  O  O202  1  0.73626507  1.00487505  0.63159337  1
  O  O203  1  0.00598929  0.37798720  0.26491680  1
  O  O204  1  0.00359792  0.36483363  0.74875794  1
  O  O205  1  0.00879490  0.87468153  0.25144845  1
  O  O206  1  0.00306371  0.87182992  0.76338185  1
  O  O207  1  0.50385236  0.37119673  0.25934974  1
  O  O208  1  0.50817456  0.37086211  0.75208329  1
  O  O209  1  0.50692297  0.86406640  0.25168005  1
  O  O210  1  0.51286096  0.86048384  0.74846873  1
  O  O211  1  0.50272602  0.13424141  0.24203123  1
  O  O212  1  0.49603470  0.13076827  0.74091816  1
  O  O213  1  0.50706157  0.63194831  0.24206852  1
  O  O214  1  0.50873808  0.63131868  0.73506468  1
  O  O215  1  1.00017629  0.11869304  0.24226564  1
  O  O216  1  0.99094615  0.13584641  0.75433988  1
  O  O217  1  0.99038297  0.62871515  0.24190962  1
  O  O218  1  0.99207378  0.62771067  0.74210061  1
  O  O219  1  0.37736423  0.25347377  0.00459214  1
  O  O220  1  0.36902218  0.25621811  0.50909178  1
  O  O221  1  0.38444683  0.74356583  0.01228686  1
  O  O222  1  0.36076284  0.74077082  0.50793627  1
  O  O223  1  0.87154697  0.25531739  0.00613195  1
  O  O224  1  0.87145484  0.25526275  0.50654261  1
  O  O225  1  0.85784620  0.75787356  -0.00275896  1
  O  O226  1  0.86202400  0.75908405  0.49865074  1
  O  O227  1  0.13154857  0.23803623  0.50149801  1
  O  O228  1  0.11082548  0.23810925  1.00206039  1
  O  O229  1  0.13626350  0.74410280  0.49881610  1
  O  O230  1  0.12176747  0.75070104  0.99968824  1
  O  O231  1  0.63709236  0.24240689  0.50605382  1
  O  O232  1  0.63625838  0.24184236  1.00043258  1
  O  O233  1  0.62672504  0.74691776  0.50096616  1
  O  O234  1  0.63385690  0.74421031  0.99058778  1
  O  O235  1  0.50561550  0.24100811  0.12962238  1
  O  O236  1  0.49459301  0.24532905  0.62562882  1
  O  O237  1  0.50095506  0.73747453  0.13385557  1
  O  O238  1  0.49055964  0.74301405  0.62730311  1
  O  O239  1  0.98754354  0.24084250  0.12431715  1
  O  O240  1  0.98508010  0.25185037  0.63086884  1
  O  O241  1  0.99783625  0.73751695  0.12792094  1
  O  O242  1  1.00282404  0.73883140  0.62725657  1
  O  O243  1  -0.00414551  0.25995612  0.37503439  1
  O  O244  1  -0.00732667  0.25108169  0.86087619  1
  O  O245  1  0.00457270  0.75644434  0.37117626  1
  O  O246  1  -0.00836111  0.76227324  0.87959131  1
  O  O247  1  0.49720171  0.26111908  0.36937703  1
  O  O248  1  0.50687165  0.25693674  0.86458909  1
  O  O249  1  0.50266259  0.74083268  0.36029001  1
  O  O250  1  0.50867715  0.74140374  0.86549783  1
  O  O251  1  0.24688701  0.13747911  0.49962377  1
  O  O252  1  0.23112783  0.13500605  0.99848321  1
  O  O253  1  0.23689633  0.63062139  0.49904927  1
  O  O254  1  0.24885341  0.61397396  0.98742028  1
  O  O255  1  0.74651502  0.13438713  0.49522390  1
  O  O256  1  0.75008859  0.13624746  0.99674858  1
  O  O257  1  0.74236700  0.63598010  0.50195575  1
  O  O258  1  0.75047368  0.63018649  0.99591775  1
  O  O259  1  0.24618987  0.37867911  0.01569351  1
  O  O260  1  0.25107032  0.37198367  0.50998434  1
  O  O261  1  0.23347191  0.86411515  -0.01765762  1
  O  O262  1  0.25973673  0.86519572  0.50894195  1
  O  O263  1  0.75678185  0.36267988  0.00038751  1
  O  O264  1  0.76095571  0.36424777  0.49107928  1
  O  O265  1  0.74728037  0.86706425  0.01074114  1
  O  O266  1  0.75678675  0.86540114  0.50025290  1
  O  O267  1  0.13006745  0.49088143  0.24065609  1
  O  O268  1  0.12891151  0.49225368  0.73937675  1
  O  O269  1  0.12223444  0.99413057  0.23672579  1
  O  O270  1  0.12221396  0.98078345  0.76143010  1
  O  O271  1  0.63485890  0.49851924  0.24349883  1
  O  O272  1  0.63395613  0.49338763  0.74463017  1
  O  O273  1  0.63251518  0.99561916  0.24533435  1
  O  O274  1  0.62798724  0.98854285  0.74221433  1
  O  O275  1  0.39334240  -0.01300069  0.23529238  1
  O  O276  1  0.38608408  0.01037928  0.74413805  1
  O  O277  1  0.36447651  0.49421885  0.25821865  1
  O  O278  1  0.36257858  0.49613948  0.75503572  1
  O  O279  1  0.87045835  0.00796860  0.26106839  1
  O  O280  1  0.87071249  0.00679472  0.75461959  1
  O  O281  1  0.86919741  0.50723921  0.25835670  1
  O  O282  1  0.86955604  0.50360641  0.75443540  1
  O  O283  1  0.11066043  0.37862238  0.37017172  1
  O  O284  1  0.12991079  0.38025574  0.86007800  1
  O  O285  1  0.12197942  0.87949805  0.36050293  1
  O  O286  1  0.11824066  0.86842395  0.87768810  1
  O  O287  1  0.61251417  0.38388528  0.37756168  1
  O  O288  1  0.62107759  0.37454134  0.86002658  1
  O  O289  1  0.63021478  0.87826778  0.36250169  1
  O  O290  1  0.62787384  0.85591300  0.86001848  1
  O  O291  1  0.38730502  0.12903499  0.13317087  1
  O  O292  1  0.38734990  0.13567614  0.62905833  1
  O  O293  1  0.39000480  0.62333520  0.12135682  1
  O  O294  1  0.38290007  0.63139566  0.62169053  1
  O  O295  1  0.88197957  0.13135215  0.13406914  1
  O  O296  1  0.87001965  0.13219925  0.63724228  1
  O  O297  1  0.88635554  0.61860658  0.13634906  1
  O  O298  1  0.88560954  0.61737410  0.63326204  1
  O  O299  1  0.24674639  0.26531016  0.13210536  1
  O  O300  1  0.25843969  0.26045732  0.62213989  1
  O  O301  1  0.26722179  0.73408726  0.12338133  1
  O  O302  1  0.25550699  0.75217813  0.62025704  1
  O  O303  1  0.76225600  0.25056369  0.11784532  1
  O  O304  1  0.76385412  0.24908486  0.61485266  1
  O  O305  1  0.73980419  0.75719402  0.11861174  1
  O  O306  1  0.74513172  0.74706880  0.61050749  1
  O  O307  1  0.25524563  0.26561948  0.38707318  1
  O  O308  1  0.23644499  0.23229076  0.82134489  1
  O  O309  1  0.24719237  0.74571963  0.38252757  1
  O  O310  1  0.24547015  0.73417907  0.87498488  1
  O  O311  1  0.75792922  0.24006347  0.38388014  1
  O  O312  1  0.75007299  0.24199640  0.88267973  1
  O  O313  1  0.74158401  0.74629686  0.39015293  1
  O  O314  1  0.74358673  0.74185329  0.88142956  1
  O  O315  1  0.00191547  0.11828547  0.01227803  1
  O  O316  1  0.01390380  0.11405361  0.50271334  1
  O  O317  1  -0.01155272  0.62130610  0.01563195  1
  O  O318  1  0.01043495  0.63034960  0.50593098  1
  O  O319  1  0.51357144  0.12731897  0.00676765  1
  O  O320  1  0.51098094  0.12347323  0.50095025  1
  O  O321  1  0.50401876  0.60911203  0.00406895  1
  O  O322  1  0.50564453  0.62161510  0.50868754  1
  O  O323  1  0.49573420  0.38110963  0.49484668  1
  O  O324  1  0.50434635  0.38397011  0.99001456  1
  O  O325  1  0.46664274  0.88236839  0.49256751  1
  O  O326  1  0.54475609  0.89058029  0.99111334  1
  O  O327  1  0.99368864  0.37151016  0.48713496  1
  O  O328  1  0.98895656  0.37812793  1.00359041  1
  O  O329  1  0.99418490  0.88713253  0.50184432  1
  O  O330  1  0.99137714  0.88183220  1.00005556  1
  O  O331  1  0.49339603  0.49601224  0.38055298  1
  O  O332  1  0.49316342  0.49708523  0.87759006  1
  O  O333  1  0.49806843  0.99462121  0.36413358  1
  O  O334  1  0.49125194  0.99659661  0.87814748  1
  O  O335  1  0.99029467  0.49571354  0.37204413  1
  O  O336  1  0.98711994  0.50456706  0.87538708  1
  O  O337  1  0.98945639  1.00273681  0.38534223  1
  O  O338  1  0.99261313  0.99028040  0.88961249  1
  O  O339  1  -0.00380062  0.00821547  0.11665449  1
  O  O340  1  -0.00582022  0.00313092  0.61817840  1
  O  O341  1  0.00586096  0.50774482  0.12509462  1
  O  O342  1  0.00984098  0.50863831  0.62774748  1
  O  O343  1  0.51601450  0.01351571  0.12215791  1
  O  O344  1  0.51484542  0.00679550  0.62392548  1
  O  O345  1  0.50518669  0.50001438  0.11778902  1
  O  O346  1  0.50310150  0.50664847  0.61950587  1
  O  O347  1  0.24146535  0.38349211  0.24254636  1
  O  O348  1  0.24158461  0.38523767  0.73661839  1
  O  O349  1  0.23606157  0.87648018  0.24870627  1
  O  O350  1  0.24181750  0.87310944  0.74474655  1
  O  O351  1  0.75108226  0.38677202  0.25070211  1
  O  O352  1  0.74356557  0.38212994  0.75206866  1
  O  O353  1  0.74553464  0.87863695  0.24757095  1
  O  O354  1  0.73768458  0.87730778  0.74826354  1
  O  O355  1  0.25175916  0.11688962  0.25903511  1
  O  O356  1  0.27430917  0.11064825  0.72404564  1
  O  O357  1  0.24123238  0.60950910  0.25068270  1
  O  O358  1  0.24117777  0.61345321  0.75399170  1
  O  O359  1  0.75521896  0.12233543  0.26063598  1
  O  O360  1  0.75733268  0.11895999  0.75511230  1
  O  O361  1  0.75611592  0.61652089  0.25069956  1
  O  O362  1  0.75686765  0.61672394  0.75226058  1
  O  O363  1  0.37018196  0.12224560  0.36766122  1
  O  O364  1  0.37817599  0.13188567  0.85474579  1
  O  O365  1  0.37157901  0.60952690  0.38121175  1
  O  O366  1  0.36462400  0.61108567  0.87465509  1
  O  O367  1  0.87194336  0.12099333  0.37487213  1
  O  O368  1  0.87055470  0.11849104  0.86734987  1
  O  O369  1  0.87534565  0.61860210  0.36874955  1
  O  O370  1  0.86953319  0.61642331  0.86629650  1
  O  O371  1  0.13049243  0.38175717  0.13301552  1
  O  O372  1  0.12881531  0.38238807  0.62603958  1
  O  O373  1  0.12237223  0.89272272  0.13362117  1
  O  O374  1  0.13564906  0.86863116  0.63418404  1
  O  O375  1  0.62889156  0.38650881  0.12673126  1
  O  O376  1  0.62096773  0.38220694  0.63585710  1
  O  O377  1  0.63398742  0.88395176  0.13814542  1
  O  O378  1  0.61618690  0.88115307  0.62672648  1
  O  O379  1  0.12357902  0.26453817  0.24536464  1
  O  O380  1  0.10407321  0.26040187  0.73641007  1
  O  O381  1  0.12438588  0.76579947  0.24634321  1
  O  O382  1  0.11978106  0.76288692  0.75507601  1
  O  O383  1  0.61318430  0.25495522  0.24818593  1
  O  O384  1  0.62340240  0.25639594  0.74540682  1
  O  O385  1  0.61516354  0.75744776  0.25186025  1
  O  O386  1  0.61972289  0.75098021  0.75235674  1
  O  O387  1  0.39199450  0.25476530  0.24135123  1
  O  O388  1  0.38514839  0.24925417  0.73513378  1
  O  O389  1  0.38911432  0.74178452  0.24283495  1
  O  O390  1  0.38723352  0.74320531  0.74294108  1
  O  O391  1  0.87001832  0.24352488  0.24273393  1
  O  O392  1  0.88163140  0.24535508  0.74382994  1
  O  O393  1  0.86945607  0.73873918  0.25646751  1
  O  O394  1  0.87405650  0.73700891  0.75419989  1
  O  O395  1  0.37998476  0.49380679  0.49545182  1
  O  O396  1  0.38373291  0.49143316  0.98995259  1
  O  O397  1  0.38210484  1.00331794  0.52126984  1
  O  O398  1  0.38130650  1.00155759  1.01614164  1
  O  O399  1  0.86824590  0.49141015  0.49042367  1
  O  O400  1  0.87236760  0.49004822  0.99014446  1
  O  O401  1  0.88247662  0.99670463  0.49905066  1
  O  O402  1  0.87822861  0.99524483  0.99794859  1
  O  O403  1  0.11471327  0.00777556  0.01460779  1
  O  O404  1  0.11154152  -0.00134599  0.51180551  1
  O  O405  1  0.12115473  0.49573253  0.01571863  1
  O  O406  1  0.12934634  0.50950819  0.50869937  1
  O  O407  1  0.63941885  0.01879750  0.01183288  1
  O  O408  1  0.62385017  0.00593918  0.50446003  1
  O  O409  1  0.62081252  0.49826580  0.00576092  1
  O  O410  1  0.62166198  0.50717051  0.50667213  1
  O  O411  1  0.35757822  0.37760230  0.12391883  1
  O  O412  1  0.36713294  0.37085697  0.61879376  1
  O  O413  1  0.37844289  0.84893326  0.12948824  1
  O  O414  1  0.36772134  0.85733388  0.63400122  1
  O  O415  1  0.87489290  0.36815771  0.11984571  1
  O  O416  1  0.87919063  0.37132266  0.61058729  1
  O  O417  1  0.85868277  0.88209669  0.12300166  1
  O  O418  1  0.87522187  0.87802238  0.61562176  1
  O  O419  1  0.14200737  0.09924826  0.40057224  1
  O  O420  1  0.11495166  0.11964042  0.89464946  1
  O  O421  1  0.12532835  0.62400298  0.38204131  1
  O  O422  1  0.13558137  0.61499908  0.87698235  1
  O  O423  1  0.63721428  0.12162125  0.38770731  1
  O  O424  1  0.63168087  0.12519311  0.88304579  1
  O  O425  1  0.62513692  0.62295070  0.39129005  1
  O  O426  1  0.63274386  0.63179327  0.87334336  1
