# generated using pymatgen
data_V85Zn86O256
_symmetry_space_group_name_H-M   'P 1'
_cell_length_a   16.95203705
_cell_length_b   16.94380141
_cell_length_c   16.93489414
_cell_angle_alpha   90.04139559
_cell_angle_beta   89.91167025
_cell_angle_gamma   89.99802605
_symmetry_Int_Tables_number   1
_chemical_formula_structural   V85Zn86O256
_chemical_formula_sum   'V85 Zn86 O256'
_cell_volume   4864.23560055
_cell_formula_units_Z   1
loop_
 _symmetry_equiv_pos_site_id
 _symmetry_equiv_pos_as_xyz
  1  'x, y, z'
loop_
 _atom_site_type_symbol
 _atom_site_label
 _atom_site_symmetry_multiplicity
 _atom_site_fract_x
 _atom_site_fract_y
 _atom_site_fract_z
 _atom_site_occupancy
  V  V0  1  0.49376383  0.12437452  0.63628476  1
  V  V1  1  0.74852811  0.87521205  0.62657495  1
  V  V2  1  0.25466544  0.87411331  0.12717609  1
  V  V3  1  0.73670243  -0.00709853  0.25263772  1
  V  V4  1  0.36544676  0.25268709  0.12352634  1
  V  V5  1  0.37213292  0.24896379  0.63104698  1
  V  V6  1  0.75217156  0.37589971  0.12593186  1
  V  V7  1  0.87603423  0.11485237  0.75001747  1
  V  V8  1  0.37755444  0.74851886  0.61222334  1
  V  V9  1  0.62339479  0.12630323  0.50047200  1
  V  V10  1  -0.00215779  0.11957578  0.61980603  1
  V  V11  1  0.50028422  0.25584206  0.74930502  1
  V  V12  1  0.87726941  0.87815333  0.00334402  1
  V  V13  1  0.50670084  0.87754305  0.36257949  1
  V  V14  1  0.37616035  0.62754132  0.74754478  1
  V  V15  1  0.62419677  0.25163617  0.37221830  1
  V  V16  1  0.87862430  0.74959772  0.12481247  1
  V  V17  1  0.37871379  0.01286853  0.87329670  1
  V  V18  1  0.38318205  0.87716543  -0.00287824  1
  V  V19  1  0.87706683  -0.00476941  0.87511345  1
  V  V20  1  0.75665523  0.75059075  0.49974529  1
  V  V21  1  0.25364754  0.75014020  0.00021151  1
  V  V22  1  0.88102255  0.37322159  -0.00947025  1
  V  V23  1  0.75218783  0.62392209  0.37699936  1
  V  V24  1  0.61769206  -0.00063881  0.10623893  1
  V  V25  1  0.50385378  0.24858303  0.24500084  1
  V  V26  1  0.87692548  0.62317611  0.24801271  1
  V  V27  1  0.50513924  0.62137924  0.61915205  1
  V  V28  1  0.64373507  0.26663039  0.85546372  1
  V  V29  1  0.74846788  0.25795907  0.50338060  1
  V  V30  1  0.38068633  0.50422880  0.87573558  1
  V  V31  1  0.12224942  -0.00487138  0.12186166  1
  V  V32  1  0.12272466  0.62351814  0.00133302  1
  V  V33  1  0.87149874  0.51809918  0.87125636  1
  V  V34  1  0.50639771  0.75441430  0.74704706  1
  V  V35  1  0.49859298  -0.00059183  0.50124629  1
  V  V36  1  0.24785903  0.25121421  0.50067566  1
  V  V37  1  0.87616645  0.11442812  0.24959644  1
  V  V38  1  0.12141418  0.12047372  0.49824995  1
  V  V39  1  0.62709831  0.73859644  0.87275614  1
  V  V40  1  0.75549517  0.12426646  0.37394402  1
  V  V41  1  0.12342130  0.25023750  0.37322487  1
  V  V42  1  0.58528975  0.42573900  0.19236323  1
  V  V43  1  0.25047299  0.62673836  0.87283696  1
  V  V44  1  0.12785643  0.87590003  0.75176682  1
  V  V45  1  0.23342319  0.74576050  0.49675924  1
  V  V46  1  0.23938229  0.38421280  0.63006368  1
  V  V47  1  0.75270304  0.49319633  0.24920100  1
  V  V48  1  0.86856426  0.63166237  0.73820515  1
  V  V49  1  0.87283212  0.25290327  0.62482140  1
  V  V50  1  0.37711175  0.12281853  0.24611660  1
  V  V51  1  0.87946037  0.49864987  0.38389616  1
  V  V52  1  0.23398626  0.62720108  0.37231740  1
  V  V53  1  0.50638338  0.87810658  0.87288686  1
  V  V54  1  0.74024535  -0.00549554  0.75164598  1
  V  V55  1  0.36747370  0.37888414  0.00128143  1
  V  V56  1  0.63138745  0.76038443  0.36660061  1
  V  V57  1  0.00490027  0.88123879  0.88327592  1
  V  V58  1  0.00003263  0.11795906  0.11558799  1
  V  V59  1  0.50660867  0.38185225  0.87275437  1
  V  V60  1  0.12724812  0.75187110  0.87567266  1
  V  V61  1  0.12284652  -0.00070233  0.62188258  1
  V  V62  1  0.37555798  -0.00104224  0.37444228  1
  V  V63  1  0.74264912  0.24177043  0.00299896  1
  V  V64  1  0.75191785  0.74084701  -0.00309466  1
  V  V65  1  0.87637794  0.24727236  0.12629885  1
  V  V66  1  0.00121685  0.25369992  0.75735258  1
  V  V67  1  0.25285387  0.87426992  0.62453025  1
  V  V68  1  0.61776981  0.62027447  0.01742276  1
  V  V69  1  0.74224419  0.11777634  0.88163429  1
  V  V70  1  0.37369844  0.37636647  0.50075840  1
  V  V71  1  0.25057032  0.12393528  0.37467920  1
  V  V72  1  0.00357219  0.89400832  0.37643346  1
  V  V73  1  0.25562171  0.01464934  0.75235128  1
  V  V74  1  0.37422502  0.50906826  0.37352515  1
  V  V75  1  0.24835931  0.49732374  0.24784969  1
  V  V76  1  0.87546934  0.89507672  0.49162744  1
  V  V77  1  0.00639832  0.74920300  0.26196085  1
  V  V78  1  0.12688249  0.48869867  0.12242835  1
  V  V79  1  0.62323605  -0.00233597  0.62875126  1
  V  V80  1  0.05576001  0.56279435  0.56562434  1
  V  V81  1  -0.00011152  0.37586365  0.37860884  1
  V  V82  1  0.13401273  0.12175968  -0.00903104  1
  V  V83  1  0.38300887  0.73723111  0.13020648  1
  V  V84  1  0.50237332  0.37517701  0.37598952  1
  Zn  Zn85  1  0.88235166  0.75104232  0.61889857  1
  Zn  Zn86  1  0.00346393  0.49130249  -0.00382047  1
  Zn  Zn87  1  0.74315807  0.87126258  0.12955310  1
  Zn  Zn88  1  0.12970746  0.87094522  0.25507928  1
  Zn  Zn89  1  0.69873772  0.41348395  0.71640315  1
  Zn  Zn90  1  0.00084872  0.24758246  0.24909750  1
  Zn  Zn91  1  0.62731932  0.62689963  0.49903787  1
  Zn  Zn92  1  0.50516759  0.49742614  0.02029988  1
  Zn  Zn93  1  0.64061153  0.49655335  0.61867990  1
  Zn  Zn94  1  0.00579162  0.74306859  0.74207327  1
  Zn  Zn95  1  0.37654834  0.87227535  0.49549519  1
  Zn  Zn96  1  0.50879534  0.73881223  0.23982637  1
  Zn  Zn97  1  0.25177070  0.24933320  -0.00826505  1
  Zn  Zn98  1  0.24096796  0.50630537  0.74650192  1
  Zn  Zn99  1  0.87648351  0.38051317  0.50852247  1
  Zn  Zn100  1  0.50129424  0.12239370  0.10707444  1
  Zn  Zn101  1  0.12725426  0.37117448  0.24657315  1
  Zn  Zn102  1  0.25139471  -0.00395870  0.25051311  1
  Zn  Zn103  1  0.00318882  0.62224080  0.12596664  1
  Zn  Zn104  1  0.13499653  0.25670308  0.87162174  1
  Zn  Zn105  1  0.50495570  0.50028129  0.49942138  1
  Zn  Zn106  1  0.10272525  0.39597305  0.76029142  1
  Zn  Zn107  1  0.18812580  0.18282151  0.18577548  1
  Zn  Zn108  1  0.18493203  0.19074464  0.68709468  1
  Zn  Zn109  1  0.18937246  0.68489388  0.18724495  1
  Zn  Zn110  1  0.18419517  0.68348770  0.68294079  1
  Zn  Zn111  1  0.68475841  0.18121197  0.18519818  1
  Zn  Zn112  1  0.68815738  0.18512976  0.68850502  1
  Zn  Zn113  1  0.69353860  0.68644041  0.18844250  1
  Zn  Zn114  1  0.69082648  0.68368499  0.68860766  1
  Zn  Zn115  1  0.31201835  0.31407895  0.31194234  1
  Zn  Zn116  1  0.31026806  0.31421788  0.81423404  1
  Zn  Zn117  1  0.31585550  0.80906506  0.31307339  1
  Zn  Zn118  1  0.31642181  0.81462169  0.81014824  1
  Zn  Zn119  1  0.81427906  0.31104035  0.31189280  1
  Zn  Zn120  1  0.82137627  0.30243890  0.81538055  1
  Zn  Zn121  1  0.81999079  0.81496761  0.31344315  1
  Zn  Zn122  1  0.81148397  0.80812879  0.81214852  1
  Zn  Zn123  1  0.18101379  0.44192422  0.44200876  1
  Zn  Zn124  1  0.18703033  0.43734617  0.92745308  1
  Zn  Zn125  1  0.18869028  0.93416049  0.43812675  1
  Zn  Zn126  1  0.19602056  0.94219634  0.93939763  1
  Zn  Zn127  1  0.68599869  0.43885168  0.44028568  1
  Zn  Zn128  1  0.69329466  0.44198535  0.94098201  1
  Zn  Zn129  1  0.68855105  0.94089647  0.43806938  1
  Zn  Zn130  1  0.69137944  0.92462902  0.93823067  1
  Zn  Zn131  1  0.31572256  0.05897954  0.06076839  1
  Zn  Zn132  1  0.31087735  0.06272996  0.56264546  1
  Zn  Zn133  1  0.30969336  0.56026950  0.06079679  1
  Zn  Zn134  1  0.31011249  0.56470080  0.55681126  1
  Zn  Zn135  1  0.80803821  0.05677151  0.06659128  1
  Zn  Zn136  1  0.80908553  0.06650261  0.56308500  1
  Zn  Zn137  1  0.81284107  0.56022427  0.06141853  1
  Zn  Zn138  1  0.80946500  0.55660678  0.57258368  1
  Zn  Zn139  1  0.41866407  0.43561934  0.19122630  1
  Zn  Zn140  1  0.43759833  0.43921854  0.68806085  1
  Zn  Zn141  1  0.44134675  0.93512325  0.18512004  1
  Zn  Zn142  1  0.43677604  0.93582814  0.69061385  1
  Zn  Zn143  1  0.94340170  0.43520395  0.18904686  1
  Zn  Zn144  1  0.92504982  0.44415255  0.68748096  1
  Zn  Zn145  1  0.93774113  0.93629474  0.18955630  1
  Zn  Zn146  1  0.94284841  0.92143177  0.68265051  1
  Zn  Zn147  1  0.06593384  0.06321725  0.30325254  1
  Zn  Zn148  1  0.06111641  0.05961405  0.80922509  1
  Zn  Zn149  1  0.06181614  0.55982607  0.31233815  1
  Zn  Zn150  1  0.05287902  0.56204022  0.81208497  1
  Zn  Zn151  1  0.56357940  0.06534216  0.31160536  1
  Zn  Zn152  1  0.56052252  0.06753005  0.92889633  1
  Zn  Zn153  1  0.56433800  0.56737171  0.31444129  1
  Zn  Zn154  1  0.57102031  0.56132677  0.80733852  1
  Zn  Zn155  1  0.43615851  0.18780819  0.43919381  1
  Zn  Zn156  1  0.43674838  0.19781954  0.93250892  1
  Zn  Zn157  1  0.45347603  0.67566569  0.40806499  1
  Zn  Zn158  1  0.44389751  0.68708257  0.94107733  1
  Zn  Zn159  1  0.93711476  0.18647716  0.43808264  1
  Zn  Zn160  1  0.93463120  0.18197090  0.93910373  1
  Zn  Zn161  1  0.93940083  0.68800630  0.43968345  1
  Zn  Zn162  1  0.94298200  0.69035558  0.93215003  1
  Zn  Zn163  1  0.06371954  0.30552106  0.06046790  1
  Zn  Zn164  1  0.05883324  0.31313575  0.56371281  1
  Zn  Zn165  1  0.06283188  0.81055609  0.06462817  1
  Zn  Zn166  1  0.05863550  0.81697421  0.55933383  1
  Zn  Zn167  1  0.55511272  0.29920301  0.04882758  1
  Zn  Zn168  1  0.56347183  0.31697047  0.56790224  1
  Zn  Zn169  1  0.56449990  0.81391403  0.06143497  1
  Zn  Zn170  1  0.56690472  0.81139067  0.55585366  1
  O  O171  1  0.11824279  0.11617184  0.11921286  1
  O  O172  1  0.11774313  0.11837975  0.61974354  1
  O  O173  1  0.12588406  0.61763288  0.11609108  1
  O  O174  1  0.10447164  0.63022411  0.62725484  1
  O  O175  1  0.62157363  0.10494297  0.12830214  1
  O  O176  1  0.61439730  0.11769047  0.61953902  1
  O  O177  1  0.62390826  0.62981612  0.11673940  1
  O  O178  1  0.61539740  0.63216935  0.61879036  1
  O  O179  1  0.38246271  0.37969512  0.38103240  1
  O  O180  1  0.38400659  0.38685310  0.87946872  1
  O  O181  1  0.38556335  0.88121343  0.37566747  1
  O  O182  1  0.38665176  0.87615224  0.88023786  1
  O  O183  1  0.88183191  0.38220448  0.37340702  1
  O  O184  1  0.88093870  0.36410972  0.89077757  1
  O  O185  1  0.88410754  0.87903186  0.38438682  1
  O  O186  1  0.88442994  0.87675471  0.88221544  1
  O  O187  1  0.25683649  0.00514072  0.37392525  1
  O  O188  1  0.26629356  -0.00352856  0.86525442  1
  O  O189  1  0.25043325  0.51044374  0.37213545  1
  O  O190  1  0.26608262  0.51005865  0.87383509  1
  O  O191  1  0.74435577  0.01048974  0.36262099  1
  O  O192  1  0.75443350  -0.00151072  0.86927214  1
  O  O193  1  0.75598143  0.50563750  0.36805424  1
  O  O194  1  0.77602018  0.48278321  0.87621135  1
  O  O195  1  0.24222635  0.50643771  0.13675921  1
  O  O196  1  0.25595589  0.48666933  0.62347851  1
  O  O197  1  0.24779183  0.98623845  0.12487062  1
  O  O198  1  0.24752556  0.99241678  0.63117373  1
  O  O199  1  0.75359194  0.48633804  0.13298285  1
  O  O200  1  0.75788486  0.48276403  0.63570138  1
  O  O201  1  0.73642576  0.99737705  0.13543239  1
  O  O202  1  0.74477128  0.99625150  0.63149826  1
  O  O203  1  0.00475260  0.36723045  0.26117621  1
  O  O204  1  -0.00831852  0.35666372  0.74311553  1
  O  O205  1  -0.00155774  0.86817732  0.26256145  1
  O  O206  1  0.01924521  0.88316257  0.76315570  1
  O  O207  1  0.50598567  0.36953866  0.25380187  1
  O  O208  1  0.49421236  0.36839085  0.75850503  1
  O  O209  1  0.49916138  0.86761625  0.26083793  1
  O  O210  1  0.49723458  0.86202967  0.75570283  1
  O  O211  1  0.48846813  0.13221292  0.25143903  1
  O  O212  1  0.48923815  0.13225105  0.73534061  1
  O  O213  1  0.48851525  0.64448418  0.29838854  1
  O  O214  1  0.49371995  0.63672825  0.74025589  1
  O  O215  1  0.99077927  0.12549711  0.23974084  1
  O  O216  1  0.99481696  0.12696413  0.73879375  1
  O  O217  1  0.99480231  0.63483126  0.25110749  1
  O  O218  1  0.97621353  0.63504000  0.76906025  1
  O  O219  1  0.37354381  0.26055542  0.00689991  1
  O  O220  1  0.36864818  0.26044681  0.50453823  1
  O  O221  1  0.37167570  0.75637433  0.00683100  1
  O  O222  1  0.37514320  0.74853756  0.50876844  1
  O  O223  1  0.86854894  0.25326143  0.01050187  1
  O  O224  1  0.86591527  0.24638074  0.50868256  1
  O  O225  1  0.87107109  0.75435609  0.00584653  1
  O  O226  1  0.86665073  0.76093626  0.49710076  1
  O  O227  1  0.12792583  0.24314810  0.49008266  1
  O  O228  1  0.12801470  0.23337595  0.99976653  1
  O  O229  1  0.13546040  0.75644861  0.50019610  1
  O  O230  1  0.13414129  0.74442397  0.99702374  1
  O  O231  1  0.63013734  0.24369513  0.49413387  1
  O  O232  1  0.64197097  0.25881421  0.98330748  1
  O  O233  1  0.64360651  0.75228258  0.48903136  1
  O  O234  1  0.63167759  0.74000743  0.99681785  1
  O  O235  1  0.49199004  0.24704133  0.13225426  1
  O  O236  1  0.49044592  0.24449563  0.62631306  1
  O  O237  1  0.48820284  0.75239543  0.12462282  1
  O  O238  1  0.49551241  0.74597282  0.62742325  1
  O  O239  1  0.99164708  0.23941291  0.12766785  1
  O  O240  1  0.99263866  0.23852534  0.63084489  1
  O  O241  1  0.98977880  0.74935517  0.13346244  1
  O  O242  1  0.98777967  0.79076875  0.63912695  1
  O  O243  1  0.00848812  0.25097822  0.37136684  1
  O  O244  1  -0.00303862  0.23773431  0.85844426  1
  O  O245  1  -0.00607026  0.75843609  0.36407475  1
  O  O246  1  0.01113098  0.76571619  0.87458775  1
  O  O247  1  0.50024217  0.25689974  0.36599013  1
  O  O248  1  0.50891796  0.26329592  0.86376163  1
  O  O249  1  0.51866993  0.77000317  0.39212227  1
  O  O250  1  0.50586807  0.75463773  0.86542383  1
  O  O251  1  0.24258253  0.13190688  0.49480781  1
  O  O252  1  0.23648903  0.12329867  1.00515461  1
  O  O253  1  0.24754174  0.63878485  0.49355825  1
  O  O254  1  0.24226815  0.63058897  0.99324882  1
  O  O255  1  0.74464872  0.13142074  0.48969719  1
  O  O256  1  0.75408156  0.12928555  0.99510273  1
  O  O257  1  0.75630291  0.63394022  0.49312237  1
  O  O258  1  0.74150911  0.63557008  1.00806935  1
  O  O259  1  0.26504326  0.38000148  -0.00492492  1
  O  O260  1  0.25383665  0.37032368  0.50839544  1
  O  O261  1  0.26147642  0.86856424  0.00586366  1
  O  O262  1  0.25489668  0.86101827  0.50209648  1
  O  O263  1  0.76160729  0.36578262  0.00930092  1
  O  O264  1  0.75508934  0.35945194  0.48867183  1
  O  O265  1  0.75940128  0.85975744  0.00534732  1
  O  O266  1  0.76094574  0.87238439  0.49976657  1
  O  O267  1  0.13020088  0.49860238  0.23992532  1
  O  O268  1  0.12799004  0.50529607  0.75389995  1
  O  O269  1  0.13172427  0.99662972  0.23538816  1
  O  O270  1  0.13607482  0.99605276  0.74272018  1
  O  O271  1  0.63430661  0.49578565  0.25712454  1
  O  O272  1  0.62968249  0.50498337  0.73605352  1
  O  O273  1  0.63489933  1.00028306  0.24764889  1
  O  O274  1  0.63897263  1.00003161  0.74393981  1
  O  O275  1  0.37687432  0.00749707  0.25431724  1
  O  O276  1  0.36884739  -0.00507608  0.76280203  1
  O  O277  1  0.36266467  0.50046819  0.26194742  1
  O  O278  1  0.37479758  0.51533332  0.75556082  1
  O  O279  1  0.86211603  0.01138022  0.24073933  1
  O  O280  1  0.87029389  -0.00084068  0.75461477  1
  O  O281  1  0.86821356  0.50284571  0.25527710  1
  O  O282  1  0.87729543  0.51723521  0.76202143  1
  O  O283  1  0.11904780  0.36610956  0.37629788  1
  O  O284  1  0.12109823  0.37040822  0.87049431  1
  O  O285  1  0.10914535  0.88033785  0.37409969  1
  O  O286  1  0.12387112  0.87496217  0.87305137  1
  O  O287  1  0.61000389  0.36850787  0.38161001  1
  O  O288  1  0.61076962  0.38168614  0.88476954  1
  O  O289  1  0.62172515  0.87193819  0.37570084  1
  O  O290  1  0.61083632  0.86273064  0.88300127  1
  O  O291  1  0.37939751  0.12894030  0.13096061  1
  O  O292  1  0.38165037  0.13876408  0.61269726  1
  O  O293  1  0.37232986  0.63905979  0.11888361  1
  O  O294  1  0.37919918  0.63209438  0.62945405  1
  O  O295  1  0.88091093  0.12738033  0.12768683  1
  O  O296  1  0.88206376  0.12730136  0.62932765  1
  O  O297  1  0.87859928  0.63115522  0.12969507  1
  O  O298  1  0.87490072  0.63142650  0.63381687  1
  O  O299  1  0.26269108  0.24542105  0.12270742  1
  O  O300  1  0.25554177  0.25814787  0.62072622  1
  O  O301  1  0.25788639  0.75794318  0.12025744  1
  O  O302  1  0.25604076  0.75232306  0.61298329  1
  O  O303  1  0.75546520  0.25139837  0.12079892  1
  O  O304  1  0.75940138  0.23699386  0.61448437  1
  O  O305  1  0.76333692  0.75196636  0.12214242  1
  O  O306  1  0.75334819  0.75958763  0.61593544  1
  O  O307  1  0.24407729  0.24497189  0.38038696  1
  O  O308  1  0.24977150  0.24754179  0.87687099  1
  O  O309  1  0.25466851  0.73860554  0.38522917  1
  O  O310  1  0.24766786  0.74674886  0.87999622  1
  O  O311  1  0.74382458  0.24259477  0.37784179  1
  O  O312  1  0.75932968  0.23202699  0.88880738  1
  O  O313  1  0.75067318  0.74480011  0.37769468  1
  O  O314  1  0.73837297  0.75778014  0.88546654  1
  O  O315  1  0.00746830  0.12548792  0.01110260  1
  O  O316  1  0.00461460  0.12563251  0.51142418  1
  O  O317  1  0.01491539  0.62781107  0.00049750  1
  O  O318  1  -0.00144946  0.61816981  0.50089633  1
  O  O319  1  0.50824643  0.13966475  -0.00455963  1
  O  O320  1  0.50347743  0.11528070  0.50364637  1
  O  O321  1  0.51314205  0.61987337  0.00478511  1
  O  O322  1  0.50160386  0.62641994  0.50570595  1
  O  O323  1  0.48915738  0.37368471  0.49249527  1
  O  O324  1  0.49040636  0.37931256  0.99098911  1
  O  O325  1  0.50044556  0.89015507  0.49811223  1
  O  O326  1  0.48950685  0.86970399  0.99077926  1
  O  O327  1  0.99394851  0.36470135  0.48475266  1
  O  O328  1  0.98322771  0.37047217  1.00992186  1
  O  O329  1  0.98831393  0.87927993  0.48564385  1
  O  O330  1  0.99135676  0.87040014  0.99483352  1
  O  O331  1  0.49034379  0.49043337  0.37555406  1
  O  O332  1  0.49067439  0.49989907  0.87146818  1
  O  O333  1  0.49825806  0.99541029  0.38170758  1
  O  O334  1  0.49043678  0.99104059  0.87161158  1
  O  O335  1  0.99027419  0.48952787  0.36803345  1
  O  O336  1  0.97882412  0.50091319  0.88257007  1
  O  O337  1  0.99873471  0.99239343  0.36662918  1
  O  O338  1  0.99465086  0.98911050  0.87506980  1
  O  O339  1  0.00957016  0.00468671  0.12895959  1
  O  O340  1  0.01233457  0.00493190  0.63117080  1
  O  O341  1  0.01034228  0.50244330  0.12063495  1
  O  O342  1  -0.00404424  0.49732751  0.61765172  1
  O  O343  1  0.51354659  0.00048821  0.12385558  1
  O  O344  1  0.50020521  0.00570103  0.62009557  1
  O  O345  1  0.51246960  0.48201795  0.13905633  1
  O  O346  1  0.49238147  0.51621514  0.62171482  1
  O  O347  1  0.24586699  0.39103368  0.25785282  1
  O  O348  1  0.25609320  0.38034718  0.73405246  1
  O  O349  1  0.24950996  0.87335490  0.24193917  1
  O  O350  1  0.24212177  0.88022924  0.74582182  1
  O  O351  1  0.75084381  0.38243339  0.24293331  1
  O  O352  1  0.71721059  0.32604408  0.78450732  1
  O  O353  1  0.75749473  0.89078882  0.25059365  1
  O  O354  1  0.75700643  0.88171083  0.73787561  1
  O  O355  1  0.26336538  0.12324622  0.25439606  1
  O  O356  1  0.25015854  0.11331140  0.74015368  1
  O  O357  1  0.24630749  0.61949798  0.26555578  1
  O  O358  1  0.26017529  0.62924425  0.75389997  1
  O  O359  1  0.75448462  0.11612318  0.25552123  1
  O  O360  1  0.75774320  0.11435758  0.75771418  1
  O  O361  1  0.75696844  0.61480395  0.25620485  1
  O  O362  1  0.76864289  0.63474954  0.75587460  1
  O  O363  1  0.37013928  0.12046131  0.36824483  1
  O  O364  1  0.38157722  0.11098022  0.87675799  1
  O  O365  1  0.35872823  0.60961080  0.38960185  1
  O  O366  1  0.37438836  0.62361541  0.86826267  1
  O  O367  1  0.86396242  0.13121116  0.36476282  1
  O  O368  1  0.86847919  0.11172589  0.87189291  1
  O  O369  1  0.86813500  0.61866438  0.36892681  1
  O  O370  1  0.86519296  0.61898567  0.88627698  1
  O  O371  1  0.12308211  0.38459219  0.12298805  1
  O  O372  1  0.13799148  0.36805453  0.62918479  1
  O  O373  1  0.13494305  0.87957812  0.12384493  1
  O  O374  1  0.13246305  0.88311916  0.63246614  1
  O  O375  1  0.63473982  0.36232613  0.12318758  1
  O  O376  1  0.63076857  0.37911347  0.62483662  1
  O  O377  1  0.62690592  0.89094889  0.11943762  1
  O  O378  1  0.63953066  0.88249288  0.61520893  1
  O  O379  1  0.12798367  0.24816650  0.26162171  1
  O  O380  1  0.10744429  0.24590330  0.74977431  1
  O  O381  1  0.10944155  0.75224228  0.24226226  1
  O  O382  1  0.12745384  0.75989763  0.75698567  1
  O  O383  1  0.61120235  0.24186724  0.25396352  1
  O  O384  1  0.60389179  0.23588914  0.74667165  1
  O  O385  1  0.62831297  0.74816746  0.26197066  1
  O  O386  1  0.61727119  0.74466523  0.75819891  1
  O  O387  1  0.38279776  0.24595470  0.24351065  1
  O  O388  1  0.38246594  0.25586471  0.73701316  1
  O  O389  1  0.37508340  0.75264805  0.23182481  1
  O  O390  1  0.38154479  0.74256701  0.73977936  1
  O  O391  1  0.87085386  0.23732710  0.23775513  1
  O  O392  1  0.88340406  0.23575838  0.74295728  1
  O  O393  1  0.88313705  0.74558821  0.24279780  1
  O  O394  1  0.87725707  0.74327148  0.74698049  1
  O  O395  1  0.37458962  0.48790901  0.49347647  1
  O  O396  1  0.38297021  0.49775564  0.99490188  1
  O  O397  1  0.38262194  0.99952631  0.49298565  1
  O  O398  1  0.37057386  0.99003773  0.98490740  1
  O  O399  1  0.86643263  0.49759426  0.48615398  1
  O  O400  1  0.87514972  0.48482024  0.99754486  1
  O  O401  1  0.86807782  0.99351534  0.49461853  1
  O  O402  1  0.86665592  0.98400281  0.99582239  1
  O  O403  1  0.13035915  0.00822358  0.01110609  1
  O  O404  1  0.13346034  0.00408507  0.51407855  1
  O  O405  1  0.12667960  0.50723770  0.00510296  1
  O  O406  1  0.12334795  0.50779416  0.51110829  1
  O  O407  1  0.62823103  0.00022687  0.00188997  1
  O  O408  1  0.61825974  0.00747592  0.50640494  1
  O  O409  1  0.62749977  0.51612749  0.00101780  1
  O  O410  1  0.62254528  0.50828203  0.50158489  1
  O  O411  1  0.37653412  0.36475914  0.11523195  1
  O  O412  1  0.36952423  0.36881677  0.61642294  1
  O  O413  1  0.37091721  0.87177848  0.11557133  1
  O  O414  1  0.36984025  0.86559391  0.62296081  1
  O  O415  1  0.86793440  0.36425022  0.12400340  1
  O  O416  1  0.87690052  0.35685449  0.62602615  1
  O  O417  1  0.87496352  0.86748886  0.11887049  1
  O  O418  1  0.86175127  0.88348142  0.60763725  1
  O  O419  1  0.12987426  0.12897716  0.37738829  1
  O  O420  1  0.11946511  0.11857045  0.89028460  1
  O  O421  1  0.13518500  0.62415984  0.37541900  1
  O  O422  1  0.13072110  0.63255113  0.88246838  1
  O  O423  1  0.63259278  0.13223054  0.37937647  1
  O  O424  1  0.64137642  0.13332430  0.86958286  1
  O  O425  1  0.64324760  0.63352067  0.37710258  1
  O  O426  1  0.61838405  0.63620055  0.88597214  1
