# generated using pymatgen
data_V85Zn86O256
_symmetry_space_group_name_H-M   'P 1'
_cell_length_a   16.92671686
_cell_length_b   16.93783615
_cell_length_c   16.93473237
_cell_angle_alpha   90.09592969
_cell_angle_beta   90.02067712
_cell_angle_gamma   90.00135205
_symmetry_Int_Tables_number   1
_chemical_formula_structural   V85Zn86O256
_chemical_formula_sum   'V85 Zn86 O256'
_cell_volume   4855.21378404
_cell_formula_units_Z   1
loop_
 _symmetry_equiv_pos_site_id
 _symmetry_equiv_pos_as_xyz
  1  'x, y, z'
loop_
 _atom_site_type_symbol
 _atom_site_label
 _atom_site_symmetry_multiplicity
 _atom_site_fract_x
 _atom_site_fract_y
 _atom_site_fract_z
 _atom_site_occupancy
  V  V0  1  0.37513470  0.75064842  0.62556429  1
  V  V1  1  0.37500195  0.62836754  0.75653912  1
  V  V2  1  0.25099172  0.37643042  0.62324997  1
  V  V3  1  0.38588698  0.25794110  0.11979560  1
  V  V4  1  0.25175403  0.74725583  -0.00180719  1
  V  V5  1  0.38274261  0.37592209  0.49760994  1
  V  V6  1  0.50541012  0.74862166  0.23733844  1
  V  V7  1  0.50380640  0.00042405  0.49952222  1
  V  V8  1  0.24773674  0.00794934  0.75284780  1
  V  V9  1  0.24955918  0.50730739  0.75295382  1
  V  V10  1  0.65111926  0.88342262  0.72746222  1
  V  V11  1  0.50515399  0.12144570  0.62886073  1
  V  V12  1  0.50138381  0.51765012  0.00601488  1
  V  V13  1  0.12745493  0.37756856  0.25261264  1
  V  V14  1  0.13395355  0.74390621  0.87082684  1
  V  V15  1  0.75098726  0.75148029  0.50363823  1
  V  V16  1  0.74888519  0.37691416  0.63310539  1
  V  V17  1  0.86692638  -0.00059318  0.87558205  1
  V  V18  1  0.14218612  -0.00454492  0.12588713  1
  V  V19  1  0.25737140  0.25767541  -0.00434376  1
  V  V20  1  0.75035687  0.61869933  0.37094425  1
  V  V21  1  0.12219114  0.75056218  0.37228839  1
  V  V22  1  0.62354772  0.37762639  0.26283363  1
  V  V23  1  0.12275228  0.62085412  -0.00438599  1
  V  V24  1  0.36923663  0.75558776  0.12549248  1
  V  V25  1  0.62274013  0.74710274  0.37604523  1
  V  V26  1  0.18239304  0.19298232  0.32405047  1
  V  V27  1  0.87663415  0.62924150  0.24353777  1
  V  V28  1  0.62185098  0.37713708  0.75481072  1
  V  V29  1  0.62614053  0.50139424  0.63130663  1
  V  V30  1  0.12453219  0.37638631  0.74958293  1
  V  V31  1  0.86492425  0.61703683  0.75172741  1
  V  V32  1  0.73855005  0.12448487  0.37094681  1
  V  V33  1  0.87979980  0.85951099  0.00608271  1
  V  V34  1  -0.00519221  0.24760217  0.25116305  1
  V  V35  1  0.00011765  0.74828902  0.74925670  1
  V  V36  1  0.62293906  0.12566624  0.49906634  1
  V  V37  1  0.24572993  0.88133268  0.62452689  1
  V  V38  1  0.62817722  0.51151927  0.12593126  1
  V  V39  1  0.62360516  0.62442088  0.50342484  1
  V  V40  1  0.86591209  0.12198258  0.24612926  1
  V  V41  1  0.75736624  0.87866892  0.13021721  1
  V  V42  1  0.13303049  0.12192607  -0.00644358  1
  V  V43  1  0.85741578  0.89933439  0.52563449  1
  V  V44  1  0.74175292  0.36961914  0.12588322  1
  V  V45  1  0.62875425  0.24779373  0.88590068  1
  V  V46  1  0.00284795  0.87386778  0.87376737  1
  V  V47  1  0.74316678  0.25048819  0.49578214  1
  V  V48  1  0.00113285  -0.00189316  0.00043265  1
  V  V49  1  0.25133496  0.50289613  0.24693623  1
  V  V50  1  0.49622808  0.37652824  0.88580072  1
  V  V51  1  0.50494778  0.88023502  0.87111574  1
  V  V52  1  0.37588723  0.24845162  0.62617236  1
  V  V53  1  0.24994150  0.62623756  0.37374603  1
  V  V54  1  0.37516054  0.87969386  0.00140361  1
  V  V55  1  0.87017419  -0.00079635  0.36748999  1
  V  V56  1  -0.00194649  0.12276854  0.12333720  1
  V  V57  1  -0.00256352  0.24918212  0.75224745  1
  V  V58  1  0.37365218  0.87643005  0.49969256  1
  V  V59  1  0.38361256  0.50073800  0.37478987  1
  V  V60  1  0.37222316  0.50073608  0.88210134  1
  V  V61  1  0.13129504  0.12754939  0.51029459  1
  V  V62  1  0.87395868  0.24885352  0.62583650  1
  V  V63  1  0.13613644  0.87752092  0.24680514  1
  V  V64  1  0.11678769  0.50083025  0.12078036  1
  V  V65  1  0.49866921  0.87429769  0.37480459  1
  V  V66  1  0.63324787  0.88120833  0.25376083  1
  V  V67  1  0.87211084  0.74295755  0.62456893  1
  V  V68  1  0.86909436  0.37400095  0.00462965  1
  V  V69  1  0.36098602  0.00715491  0.36881065  1
  V  V70  1  0.00002874  0.37960271  0.88640956  1
  V  V71  1  -0.00412733  0.87427318  0.37477309  1
  V  V72  1  0.12158692  0.88212570  0.74479064  1
  V  V73  1  0.73643628  0.74290716  0.00521545  1
  V  V74  1  0.50100819  0.25510825  0.27287374  1
  V  V75  1  0.86839870  0.49723541  0.87715160  1
  V  V76  1  0.12393608  0.62353399  0.49820758  1
  V  V77  1  0.87337539  0.49604426  0.36761239  1
  V  V78  1  0.37362544  0.00942567  0.88017984  1
  V  V79  1  0.37925670  0.62585240  0.24221022  1
  V  V80  1  0.00472446  0.00185332  0.50733566  1
  V  V81  1  0.00159254  0.37059451  0.37368075  1
  V  V82  1  0.00113844  0.61900370  0.62561885  1
  V  V83  1  0.13127335  0.24691097  0.87434947  1
  V  V84  1  0.87493614  0.37355329  0.49795819  1
  Zn  Zn85  1  -0.00684216  0.62860739  0.11436423  1
  Zn  Zn86  1  0.00028706  0.49623521  0.49838230  1
  Zn  Zn87  1  0.50390260  0.49615809  0.49840516  1
  Zn  Zn88  1  0.50065717  0.11836713  0.12412252  1
  Zn  Zn89  1  0.00032206  0.12161329  0.62875016  1
  Zn  Zn90  1  0.74537840  0.12595313  0.87477345  1
  Zn  Zn91  1  0.37247757  0.12793441  0.75365362  1
  Zn  Zn92  1  0.86587586  0.12005121  0.74996704  1
  Zn  Zn93  1  0.86519421  0.24425039  0.11709180  1
  Zn  Zn94  1  0.24742433  0.25011485  0.49559635  1
  Zn  Zn95  1  0.62224412  0.10620631  0.00471278  1
  Zn  Zn96  1  0.62258564  0.74855835  0.87326839  1
  Zn  Zn97  1  0.73998995  0.61862767  0.88008500  1
  Zn  Zn98  1  0.49767408  0.62416060  0.62561767  1
  Zn  Zn99  1  0.49866337  0.24918728  0.75396144  1
  Zn  Zn100  1  0.62275614  -0.00029052  0.12641612  1
  Zn  Zn101  1  0.50420815  0.75308204  0.74953226  1
  Zn  Zn102  1  0.25485096  0.38101471  0.11855749  1
  Zn  Zn103  1  0.12574300  0.49836576  0.62310175  1
  Zn  Zn104  1  0.24850779  0.75124523  0.50001418  1
  Zn  Zn105  1  -0.00387062  0.75557949  0.23628466  1
  Zn  Zn106  1  0.36827673  0.12857499  0.25214649  1
  Zn  Zn107  1  0.18984559  0.18749503  0.16127484  1
  Zn  Zn108  1  0.18736142  0.18976826  0.68559632  1
  Zn  Zn109  1  0.18436944  0.68973888  0.18460218  1
  Zn  Zn110  1  0.18898624  0.68958236  0.68486364  1
  Zn  Zn111  1  0.67936460  0.19168607  0.18771527  1
  Zn  Zn112  1  0.68626671  0.18568189  0.69444767  1
  Zn  Zn113  1  0.69539884  0.69221869  0.18750769  1
  Zn  Zn114  1  0.68434281  0.69279107  0.69294163  1
  Zn  Zn115  1  0.32044420  0.32125422  0.30700627  1
  Zn  Zn116  1  0.31381176  0.31750356  0.81104487  1
  Zn  Zn117  1  0.31273272  0.81213802  0.31450216  1
  Zn  Zn118  1  0.31282134  0.81868336  0.81296066  1
  Zn  Zn119  1  0.80668244  0.30992693  0.30774704  1
  Zn  Zn120  1  0.81016211  0.31232890  0.81405574  1
  Zn  Zn121  1  0.81364767  0.80836849  0.31851212  1
  Zn  Zn122  1  0.81164516  0.81069613  0.81745265  1
  Zn  Zn123  1  0.19132420  0.43881629  0.43514198  1
  Zn  Zn124  1  0.18758713  0.43835998  0.93477500  1
  Zn  Zn125  1  0.18299405  0.93795028  0.43933769  1
  Zn  Zn126  1  0.19246302  0.93317501  0.93588583  1
  Zn  Zn127  1  0.68991814  0.43961523  0.44230262  1
  Zn  Zn128  1  0.68522614  0.43862150  0.94335896  1
  Zn  Zn129  1  0.68554856  0.93987019  0.43580619  1
  Zn  Zn130  1  0.68849982  0.93478807  0.94630385  1
  Zn  Zn131  1  0.31994478  0.07254571  0.06122359  1
  Zn  Zn132  1  0.31447484  0.06069035  0.56266475  1
  Zn  Zn133  1  0.30954616  0.56589474  0.06119862  1
  Zn  Zn134  1  0.31192609  0.56316572  0.56296652  1
  Zn  Zn135  1  0.80420614  0.06063382  0.05555635  1
  Zn  Zn136  1  0.81454493  0.06763901  0.55906661  1
  Zn  Zn137  1  0.80949304  0.55526297  0.06072853  1
  Zn  Zn138  1  0.81034345  0.55858235  0.55959505  1
  Zn  Zn139  1  0.44329776  0.43598602  0.18564934  1
  Zn  Zn140  1  0.43989133  0.43952525  0.68993648  1
  Zn  Zn141  1  0.43296693  0.93588597  0.19063927  1
  Zn  Zn142  1  0.43584369  0.94162951  0.68964083  1
  Zn  Zn143  1  0.93581971  0.43870464  0.18610001  1
  Zn  Zn144  1  0.93692376  0.43595742  0.69139603  1
  Zn  Zn145  1  0.94207563  0.93574924  0.18580708  1
  Zn  Zn146  1  0.91918214  0.93916030  0.68432271  1
  Zn  Zn147  1  0.05772140  0.05483899  0.30883244  1
  Zn  Zn148  1  0.05883113  0.06333414  0.81306111  1
  Zn  Zn149  1  0.05838592  0.55992377  0.31121414  1
  Zn  Zn150  1  0.05899010  0.56057824  0.81413656  1
  Zn  Zn151  1  0.54641612  0.05066867  0.28840540  1
  Zn  Zn152  1  0.56330084  0.05791946  0.80965635  1
  Zn  Zn153  1  0.56320401  0.56291536  0.30788296  1
  Zn  Zn154  1  0.56018068  0.56453606  0.81403988  1
  Zn  Zn155  1  0.43193960  0.18492531  0.44020294  1
  Zn  Zn156  1  0.44797670  0.18549584  0.94275220  1
  Zn  Zn157  1  0.43765640  0.68781102  0.43691865  1
  Zn  Zn158  1  0.43959068  0.69176299  0.93457369  1
  Zn  Zn159  1  0.93703370  0.18443794  0.43530441  1
  Zn  Zn160  1  0.93820953  0.18777843  0.93857283  1
  Zn  Zn161  1  0.93652564  0.68669947  0.43648060  1
  Zn  Zn162  1  0.94127394  0.68318492  0.93329000  1
  Zn  Zn163  1  0.06306965  0.31088767  0.06443125  1
  Zn  Zn164  1  0.06340448  0.30797371  0.56115482  1
  Zn  Zn165  1  0.06548623  0.80956539  0.06464317  1
  Zn  Zn166  1  0.05677763  0.81158454  0.56103278  1
  Zn  Zn167  1  0.56099191  0.31898867  0.06241572  1
  Zn  Zn168  1  0.56244380  0.30996702  0.56387369  1
  Zn  Zn169  1  0.56286087  0.82952787  0.06064006  1
  Zn  Zn170  1  0.56309753  0.81581290  0.56663289  1
  O  O171  1  0.11660925  0.11545273  0.11444362  1
  O  O172  1  0.11968170  0.12653140  0.61424694  1
  O  O173  1  0.12642763  0.61655929  0.11495351  1
  O  O174  1  0.11851224  0.62317521  0.61684538  1
  O  O175  1  0.62282353  0.11809405  0.12911949  1
  O  O176  1  0.61208095  0.13182702  0.61825597  1
  O  O177  1  0.62979792  0.61002425  0.13706277  1
  O  O178  1  0.62557761  0.61888598  0.62101758  1
  O  O179  1  0.36785456  0.38839463  0.38596319  1
  O  O180  1  0.38294017  0.39051396  0.86945680  1
  O  O181  1  0.37919629  0.88030501  0.38164986  1
  O  O182  1  0.38022040  0.88433301  0.88166693  1
  O  O183  1  0.87706269  0.37964908  0.37548447  1
  O  O184  1  0.88048858  0.37861965  0.88094891  1
  O  O185  1  0.87923302  0.88307388  0.38009417  1
  O  O186  1  0.88520787  0.88086424  0.88256239  1
  O  O187  1  0.26337612  -0.00412363  0.38235199  1
  O  O188  1  0.26199141  -0.00434401  0.86661011  1
  O  O189  1  0.25921876  0.50847924  0.36733355  1
  O  O190  1  0.25964764  0.49576321  0.86547569  1
  O  O191  1  0.76166767  0.00959598  0.38164592  1
  O  O192  1  0.76661639  -0.01155776  0.87873297  1
  O  O193  1  0.75744753  0.51103190  0.38085557  1
  O  O194  1  0.76242481  0.49919653  0.88087905  1
  O  O195  1  0.24216730  0.49982208  0.13080827  1
  O  O196  1  0.24953685  0.49178063  0.63227759  1
  O  O197  1  0.24051997  1.00848942  0.11929941  1
  O  O198  1  0.25542132  0.98765728  0.63321569  1
  O  O199  1  0.73340130  0.49118892  0.12169619  1
  O  O200  1  0.73759016  0.49008990  0.61921415  1
  O  O201  1  0.75304673  0.98147232  0.12583489  1
  O  O202  1  0.82029813  0.96452125  0.60455945  1
  O  O203  1  0.00684464  0.36598331  0.25129982  1
  O  O204  1  0.00483763  0.36510276  0.75719307  1
  O  O205  1  0.00632849  0.87366426  0.26007707  1
  O  O206  1  0.00633894  0.86984271  0.75182290  1
  O  O207  1  0.50960121  0.36653319  0.25026857  1
  O  O208  1  0.50627138  0.37701804  0.76220065  1
  O  O209  1  0.51014250  0.86453886  0.25833178  1
  O  O210  1  0.49308835  0.87445098  0.76361022  1
  O  O211  1  0.49698444  0.14964100  0.25562219  1
  O  O212  1  0.49577149  0.12530294  0.74112176  1
  O  O213  1  0.49047217  0.63735431  0.25651109  1
  O  O214  1  0.48792308  0.63022553  0.74503286  1
  O  O215  1  0.98974268  0.12955618  0.24595233  1
  O  O216  1  0.99717940  0.13832463  0.74939067  1
  O  O217  1  0.98483959  0.62634148  0.25329008  1
  O  O218  1  0.99286108  0.62748144  0.74173338  1
  O  O219  1  0.37039391  0.24768184  0.00919005  1
  O  O220  1  0.36951295  0.25742136  0.50930828  1
  O  O221  1  0.37011397  0.75356122  0.00691917  1
  O  O222  1  0.37220574  0.75640355  0.50738146  1
  O  O223  1  0.88324381  0.26604276  0.00242177  1
  O  O224  1  0.86864461  0.25386424  0.50743292  1
  O  O225  1  0.87738733  0.75828633  -0.00623357  1
  O  O226  1  0.86575062  0.74849178  0.50687523  1
  O  O227  1  0.12621476  0.23384118  0.49754925  1
  O  O228  1  0.13076053  0.24280871  0.99280897  1
  O  O229  1  0.12317858  0.73901405  0.49325040  1
  O  O230  1  0.13430280  0.74631511  0.98995139  1
  O  O231  1  0.63559116  0.24534061  0.50136634  1
  O  O232  1  0.62069176  0.25674166  0.98560844  1
  O  O233  1  0.63102301  0.74380722  0.49825227  1
  O  O234  1  0.63454128  0.75406036  1.00295073  1
  O  O235  1  0.49013572  0.25486887  0.12724808  1
  O  O236  1  0.49091315  0.24293982  0.62697584  1
  O  O237  1  0.49230634  0.75715670  0.13393680  1
  O  O238  1  0.48573468  0.75216394  0.62710423  1
  O  O239  1  1.00202981  0.24121584  0.13648236  1
  O  O240  1  0.99077988  0.25213823  0.63415743  1
  O  O241  1  1.00234527  0.74149482  0.12414644  1
  O  O242  1  0.99743727  0.73259499  0.62842978  1
  O  O243  1  -0.00575956  0.25420198  0.36047989  1
  O  O244  1  0.00908376  0.25674315  0.86942592  1
  O  O245  1  0.00263137  0.76274859  0.37789363  1
  O  O246  1  0.00995273  0.75454790  0.86691776  1
  O  O247  1  0.49137331  0.25724129  0.37114449  1
  O  O248  1  0.50434747  0.26192488  0.87367845  1
  O  O249  1  0.50447187  0.75598185  0.36917138  1
  O  O250  1  0.49814767  0.76513229  0.87008521  1
  O  O251  1  0.23560147  0.12481053  0.50461073  1
  O  O252  1  0.23860018  0.13787792  1.00318967  1
  O  O253  1  0.24093408  0.62669404  0.49402219  1
  O  O254  1  0.24169741  0.63898548  0.99996571  1
  O  O255  1  0.74373783  0.13131419  0.49515048  1
  O  O256  1  0.73696489  0.11668853  0.98802320  1
  O  O257  1  0.74010932  0.62959562  0.49495242  1
  O  O258  1  0.75636847  0.63982419  1.00153904  1
  O  O259  1  0.24486393  0.36158212  -0.00132257  1
  O  O260  1  0.25648301  0.37594120  0.51005467  1
  O  O261  1  0.26292958  0.86134737  -0.00538811  1
  O  O262  1  0.25181047  0.87411085  0.50885043  1
  O  O263  1  0.75678102  0.37729653  0.01135881  1
  O  O264  1  0.75428127  0.36699494  0.50810904  1
  O  O265  1  0.76193053  0.86299408  0.00946657  1
  O  O266  1  0.75878314  0.86550355  0.49135283  1
  O  O267  1  0.12942193  0.49421324  0.24332976  1
  O  O268  1  0.13255745  0.49444375  0.74945570  1
  O  O269  1  0.12153101  0.99156393  0.23794100  1
  O  O270  1  0.12950888  0.98947301  0.75659099  1
  O  O271  1  0.61270644  0.48848720  0.23626632  1
  O  O272  1  0.62161809  0.48824543  0.74392617  1
  O  O273  1  0.63896804  0.98099117  0.26672509  1
  O  O274  1  0.62424214  0.97822602  0.75483007  1
  O  O275  1  0.36875466  0.00246361  0.26480584  1
  O  O276  1  0.36474916  0.00229679  0.76114106  1
  O  O277  1  0.37424636  0.50791528  0.25384860  1
  O  O278  1  0.36900812  0.50921128  0.75572546  1
  O  O279  1  0.88193669  0.00799600  0.25805383  1
  O  O280  1  0.88838968  0.00295777  0.77176549  1
  O  O281  1  0.87694192  0.50694561  0.26221619  1
  O  O282  1  0.87623180  0.50629365  0.75880614  1
  O  O283  1  0.12023486  0.38095270  0.36130216  1
  O  O284  1  0.11713408  0.36935613  0.86959245  1
  O  O285  1  0.11615278  0.87049239  0.37097631  1
  O  O286  1  0.12123075  0.86626185  0.86597772  1
  O  O287  1  0.62705507  0.38793822  0.36189665  1
  O  O288  1  0.61791538  0.37232663  0.87088949  1
  O  O289  1  0.62106919  0.86402485  0.37342304  1
  O  O290  1  0.60909101  0.87336456  0.87798021  1
  O  O291  1  0.37576392  0.14171928  0.13394411  1
  O  O292  1  0.38250214  0.13400806  0.62395065  1
  O  O293  1  0.37192846  0.63316459  0.13732734  1
  O  O294  1  0.37338950  0.63424517  0.63230579  1
  O  O295  1  0.87773967  0.12250940  0.12946520  1
  O  O296  1  0.87740632  0.13932912  0.62656277  1
  O  O297  1  0.87351552  0.61227563  0.14116556  1
  O  O298  1  0.88082384  0.62583516  0.62883181  1
  O  O299  1  0.26193708  0.25779275  0.11358199  1
  O  O300  1  0.25677897  0.26026792  0.62399089  1
  O  O301  1  0.26180949  0.74820053  0.11747992  1
  O  O302  1  0.25908875  0.76123581  0.62424035  1
  O  O303  1  0.74880113  0.26462336  0.13006561  1
  O  O304  1  0.75578349  0.25671904  0.61798617  1
  O  O305  1  0.75199362  0.75761188  0.11215347  1
  O  O306  1  0.75843181  0.74258302  0.61300698  1
  O  O307  1  0.24767551  0.25364212  0.37506915  1
  O  O308  1  0.23971568  0.25554205  0.87720013  1
  O  O309  1  0.24198104  0.74253827  0.37733927  1
  O  O310  1  0.24097480  0.75342766  0.87887576  1
  O  O311  1  0.75782172  0.23953551  0.38673954  1
  O  O312  1  0.73151653  0.25557016  0.87436696  1
  O  O313  1  0.74592887  0.73779408  0.38723851  1
  O  O314  1  0.74915477  0.75235639  0.89407401  1
  O  O315  1  0.01038933  0.11713913  0.00229579  1
  O  O316  1  0.00920150  0.11902799  0.49977229  1
  O  O317  1  0.01705662  0.62498232  -0.00378638  1
  O  O318  1  0.00585106  0.62144617  0.50660089  1
  O  O319  1  0.50775630  0.12334327  0.01015889  1
  O  O320  1  0.50409515  0.11930764  0.50386996  1
  O  O321  1  0.49958851  0.61629303  -0.00159924  1
  O  O322  1  0.51344813  0.62674319  0.50254678  1
  O  O323  1  0.48671134  0.37569395  0.50525374  1
  O  O324  1  0.50138062  0.38883588  0.98908039  1
  O  O325  1  0.49535605  0.88215724  0.49561299  1
  O  O326  1  0.48380685  0.87126942  0.98749400  1
  O  O327  1  0.99398333  0.37222648  0.49233522  1
  O  O328  1  0.99845280  0.37281348  0.99033508  1
  O  O329  1  0.99101400  0.88514376  0.49550283  1
  O  O330  1  0.99820589  0.88037216  0.99529054  1
  O  O331  1  0.48707950  0.50765870  0.37752131  1
  O  O332  1  0.49342041  0.49816744  0.88617707  1
  O  O333  1  0.49036547  0.99191525  0.37896996  1
  O  O334  1  0.48531111  0.99032599  0.87030057  1
  O  O335  1  0.99119965  0.48924231  0.37612433  1
  O  O336  1  0.98880076  0.48718268  0.86914351  1
  O  O337  1  0.99513966  0.98886630  0.38056030  1
  O  O338  1  0.99989679  0.99326449  0.88719974  1
  O  O339  1  0.00642336  0.00314420  0.11219498  1
  O  O340  1  -0.00785465  0.00111030  0.61086489  1
  O  O341  1  0.01339416  0.50498232  0.12960016  1
  O  O342  1  0.00125824  0.50785176  0.62353876  1
  O  O343  1  0.51242159  0.01187787  0.17481079  1
  O  O344  1  0.49057088  0.01006140  0.61313740  1
  O  O345  1  0.50596177  0.49985029  0.11221737  1
  O  O346  1  0.51281576  0.50180428  0.62233678  1
  O  O347  1  0.24249221  0.38418757  0.24751541  1
  O  O348  1  0.24613279  0.38495814  0.74057306  1
  O  O349  1  0.23543094  0.87148519  0.25534305  1
  O  O350  1  0.24129200  0.88385682  0.74373491  1
  O  O351  1  0.73279558  0.37339747  0.24482915  1
  O  O352  1  0.74320636  0.37198393  0.73813679  1
  O  O353  1  0.74458640  0.85908951  0.24303572  1
  O  O354  1  0.75061362  0.87401864  0.74435638  1
  O  O355  1  0.24008345  0.14097251  0.25808190  1
  O  O356  1  0.24853065  0.11150940  0.74319554  1
  O  O357  1  0.25667591  0.62220747  0.25455800  1
  O  O358  1  0.25452782  0.61316173  0.74365750  1
  O  O359  1  0.75974311  0.13340975  0.25642251  1
  O  O360  1  0.75347738  0.12767612  0.76014542  1
  O  O361  1  0.76151871  0.62878237  0.26109449  1
  O  O362  1  0.76342402  0.62973846  0.74936930  1
  O  O363  1  0.37247477  0.11243424  0.37347736  1
  O  O364  1  0.37903584  0.11268249  0.87550332  1
  O  O365  1  0.36828479  0.62187485  0.36690129  1
  O  O366  1  0.37712765  0.61760988  0.86433159  1
  O  O367  1  0.86809140  0.11805576  0.36518354  1
  O  O368  1  0.87756224  0.10842065  0.88118408  1
  O  O369  1  0.86874436  0.61604561  0.37072479  1
  O  O370  1  0.87458555  0.61445733  0.86721922  1
  O  O371  1  0.12598407  0.38117267  0.13520882  1
  O  O372  1  0.13268553  0.37532550  0.62941934  1
  O  O373  1  0.12442352  0.88409482  0.13309048  1
  O  O374  1  0.13119745  0.86772800  0.63383539  1
  O  O375  1  0.62823718  0.38272403  0.13187672  1
  O  O376  1  0.62984212  0.38056736  0.63172457  1
  O  O377  1  0.63471283  0.87354907  0.13928150  1
  O  O378  1  0.63433496  0.87964189  0.62753240  1
  O  O379  1  0.12368451  0.25130772  0.25375696  1
  O  O380  1  0.11998715  0.25506070  0.75652093  1
  O  O381  1  0.12069228  0.75594029  0.25727633  1
  O  O382  1  0.12189875  0.75598160  0.75466694  1
  O  O383  1  0.61142347  0.26478625  0.25421718  1
  O  O384  1  0.61972756  0.26512178  0.75528479  1
  O  O385  1  0.61921219  0.75142066  0.25667255  1
  O  O386  1  0.62382537  0.77275092  0.74828899  1
  O  O387  1  0.38707286  0.25424057  0.24289476  1
  O  O388  1  0.37474108  0.24910293  0.73906786  1
  O  O389  1  0.38046105  0.74657988  0.24299369  1
  O  O390  1  0.36965952  0.74281013  0.74348647  1
  O  O391  1  0.88097723  0.24169713  0.24332881  1
  O  O392  1  0.88243856  0.25244228  0.74405054  1
  O  O393  1  0.87788155  0.73309324  0.25775412  1
  O  O394  1  0.88106379  0.74082665  0.74411710  1
  O  O395  1  0.37673303  0.49528072  0.49295430  1
  O  O396  1  0.38443575  0.50819884  0.99329623  1
  O  O397  1  0.38369878  0.99585484  0.49145901  1
  O  O398  1  0.36594096  0.99435853  0.98924225  1
  O  O399  1  0.87595078  0.49131009  0.48923761  1
  O  O400  1  0.87720117  0.48681079  0.99307388  1
  O  O401  1  0.88768806  1.00515905  0.48140561  1
  O  O402  1  0.88526033  0.98948248  0.99288177  1
  O  O403  1  0.12285761  0.00426937  0.00146110  1
  O  O404  1  0.11585952  0.01460739  0.49315894  1
  O  O405  1  0.13384219  0.50874599  0.00727798  1
  O  O406  1  0.12356772  0.51134565  0.49937789  1
  O  O407  1  0.61746030  -0.01386089  0.01184009  1
  O  O408  1  0.61108225  0.00613035  0.49503040  1
  O  O409  1  0.61302717  0.50155989  0.01266969  1
  O  O410  1  0.62351278  0.50836796  0.50799313  1
  O  O411  1  0.37315731  0.36315197  0.12782482  1
  O  O412  1  0.36930521  0.37081890  0.62076005  1
  O  O413  1  0.37815641  0.86846809  0.11646138  1
  O  O414  1  0.36736806  0.87031221  0.62006439  1
  O  O415  1  0.86423875  0.37758219  0.12030511  1
  O  O416  1  0.86765832  0.36813269  0.62170879  1
  O  O417  1  0.87256204  0.87546148  0.11694173  1
  O  O418  1  0.89863175  0.84568564  0.61957569  1
  O  O419  1  0.12507396  0.12707715  0.37743679  1
  O  O420  1  0.12112925  0.13476662  0.88181490  1
  O  O421  1  0.12728165  0.62870648  0.37975653  1
  O  O422  1  0.12325844  0.63376379  0.87824532  1
  O  O423  1  0.63640915  0.11798086  0.37688983  1
  O  O424  1  0.61677807  0.14206149  0.87066137  1
  O  O425  1  0.63218300  0.62640346  0.38118037  1
  O  O426  1  0.63017017  0.63558569  0.86065951  1
