# generated using pymatgen
data_V85Zn86O256
_symmetry_space_group_name_H-M   'P 1'
_cell_length_a   16.96608177
_cell_length_b   16.94911710
_cell_length_c   16.95366212
_cell_angle_alpha   89.94238836
_cell_angle_beta   90.02446122
_cell_angle_gamma   89.98904834
_symmetry_Int_Tables_number   1
_chemical_formula_structural   V85Zn86O256
_chemical_formula_sum   'V85 Zn86 O256'
_cell_volume   4875.19388759
_cell_formula_units_Z   1
loop_
 _symmetry_equiv_pos_site_id
 _symmetry_equiv_pos_as_xyz
  1  'x, y, z'
loop_
 _atom_site_type_symbol
 _atom_site_label
 _atom_site_symmetry_multiplicity
 _atom_site_fract_x
 _atom_site_fract_y
 _atom_site_fract_z
 _atom_site_occupancy
  V  V0  1  0.00720677  0.24471043  0.25199516  1
  V  V1  1  0.49997438  0.61887763  0.62794647  1
  V  V2  1  0.37634756  0.87551662  0.00028426  1
  V  V3  1  0.24886940  0.37931493  0.62517281  1
  V  V4  1  0.50054971  0.74689480  0.75584973  1
  V  V5  1  0.49460960  0.50349813  -0.01229298  1
  V  V6  1  0.12603775  0.62757705  -0.00928690  1
  V  V7  1  0.36619759  0.36825364  0.49802688  1
  V  V8  1  0.62620155  0.00610952  0.12728218  1
  V  V9  1  -0.00083754  0.00741054  0.49438789  1
  V  V10  1  0.11829111  0.62100646  0.49532789  1
  V  V11  1  0.76212573  0.12330430  0.37486449  1
  V  V12  1  0.62692491  0.63789509  -0.00576839  1
  V  V13  1  0.49646893  0.37053264  0.36906233  1
  V  V14  1  0.63450242  0.74784772  0.37583384  1
  V  V15  1  0.35745899  0.49165139  0.87587856  1
  V  V16  1  -0.00250854  0.24407411  0.75380435  1
  V  V17  1  0.00140622  0.75121109  0.24865688  1
  V  V18  1  0.37435587  0.87088191  0.49980981  1
  V  V19  1  0.25299383  0.25228383  -0.00269280  1
  V  V20  1  0.88072456  0.25414829  0.12587060  1
  V  V21  1  0.36271690  0.62105158  0.75910147  1
  V  V22  1  0.24573059  0.87079781  0.63192047  1
  V  V23  1  0.62509541  0.00128744  0.62885808  1
  V  V24  1  0.88078478  0.87092208  -0.00263048  1
  V  V25  1  0.75104931  0.87276632  0.11728472  1
  V  V26  1  0.75473058  0.38153025  0.12502883  1
  V  V27  1  0.61984112  0.61973522  0.49678060  1
  V  V28  1  -0.00326804  0.88095688  0.37161306  1
  V  V29  1  0.61587648  0.51112538  0.12708966  1
  V  V30  1  0.49741225  0.49573406  0.50393136  1
  V  V31  1  0.87798993  0.00323604  0.87960938  1
  V  V32  1  0.75139501  0.87355634  0.62574644  1
  V  V33  1  0.49940995  0.00585325  0.00582783  1
  V  V34  1  0.50090636  0.74631231  0.24482031  1
  V  V35  1  0.12287430  -0.00303104  0.62783232  1
  V  V36  1  0.74911125  0.25310189  0.00100828  1
  V  V37  1  0.62818928  0.86522138  0.75423397  1
  V  V38  1  0.11851665  -0.00120923  0.12121743  1
  V  V39  1  0.49959518  -0.00276980  0.50194742  1
  V  V40  1  0.24779690  0.62911095  0.37133494  1
  V  V41  1  0.75416282  0.63773341  0.87008259  1
  V  V42  1  0.87960643  0.38004989  -0.01380148  1
  V  V43  1  0.25185369  0.50092419  0.24636200  1
  V  V44  1  0.24851612  -0.00012759  0.74897016  1
  V  V45  1  0.11737871  0.50109166  0.12287648  1
  V  V46  1  0.37833646  0.62348216  0.24291934  1
  V  V47  1  0.49316441  0.12268997  0.64099003  1
  V  V48  1  0.25309477  0.37516578  0.11793629  1
  V  V49  1  0.12665437  0.37852702  0.75177060  1
  V  V50  1  0.87637697  0.74850082  0.63128648  1
  V  V51  1  -0.00978641  0.12017985  0.62937787  1
  V  V52  1  0.49175127  0.26543822  0.76354850  1
  V  V53  1  0.25048668  0.74719604  -0.00649540  1
  V  V54  1  0.75198150  0.50411129  0.25076506  1
  V  V55  1  0.62413849  0.13048622  0.00160551  1
  V  V56  1  0.74590879  0.25800960  0.50864584  1
  V  V57  1  0.80799949  0.56521793  0.43304124  1
  V  V58  1  0.62403502  0.24635467  0.36978700  1
  V  V59  1  0.11507011  0.49672306  0.61886921  1
  V  V60  1  -0.00437636  0.50041105  -0.02076103  1
  V  V61  1  0.50145251  0.87252733  0.37724239  1
  V  V62  1  0.38553548  0.25039844  0.11775627  1
  V  V63  1  0.37774472  0.00388958  0.86886626  1
  V  V64  1  0.86866589  0.62937745  0.24965079  1
  V  V65  1  0.37437712  0.74552099  0.62414968  1
  V  V66  1  0.87046272  0.25561997  0.62843119  1
  V  V67  1  0.38294453  0.12423698  0.24172054  1
  V  V68  1  0.11926887  0.12164213  -0.00101771  1
  V  V69  1  0.12013825  0.25385174  0.87462130  1
  V  V70  1  0.62788818  0.87676859  0.24986250  1
  V  V71  1  0.12724079  0.87004334  0.25631585  1
  V  V72  1  0.61925130  0.12494884  0.50037587  1
  V  V73  1  0.25032611  0.13173290  0.37780292  1
  V  V74  1  0.36565123  0.24211337  0.62627556  1
  V  V75  1  0.24165919  0.75105558  0.49480236  1
  V  V76  1  0.50455627  0.87548240  0.87459097  1
  V  V77  1  0.12626647  0.37214774  0.25191792  1
  V  V78  1  0.25054413  0.12544581  0.86805622  1
  V  V79  1  0.25225034  0.00023223  0.24922668  1
  V  V80  1  0.87342280  0.88286881  0.49609704  1
  V  V81  1  0.25170017  0.87345877  0.12444295  1
  V  V82  1  0.74919529  0.12698462  0.87557868  1
  V  V83  1  0.00858169  0.87687229  0.86900159  1
  V  V84  1  0.75346468  0.01084824  0.75121558  1
  Zn  Zn85  1  0.65211759  0.42016929  0.67954633  1
  Zn  Zn86  1  0.37635620  0.00007382  0.37382081  1
  Zn  Zn87  1  0.88942494  0.60909309  0.77247782  1
  Zn  Zn88  1  0.37443689  0.49832614  0.37268233  1
  Zn  Zn89  1  0.87300429  0.38980057  0.49903938  1
  Zn  Zn90  1  0.00409888  0.40670202  0.39704612  1
  Zn  Zn91  1  0.87118260  0.74993220  0.12161452  1
  Zn  Zn92  1  0.50468224  0.24685956  0.23613450  1
  Zn  Zn93  1  0.13160951  0.12756566  0.50387400  1
  Zn  Zn94  1  0.88192738  0.12205026  0.25149446  1
  Zn  Zn95  1  -0.00031676  0.62502573  0.62368064  1
  Zn  Zn96  1  0.64720476  0.30962731  0.83973743  1
  Zn  Zn97  1  0.62334230  0.37378827  0.24337638  1
  Zn  Zn98  1  0.13220374  0.75072269  0.86199704  1
  Zn  Zn99  1  0.75330945  0.74734067  0.49771372  1
  Zn  Zn100  1  0.76007772  -0.00115750  0.25467874  1
  Zn  Zn101  1  0.13104305  0.25818746  0.38841263  1
  Zn  Zn102  1  0.37961954  0.74587832  0.12070562  1
  Zn  Zn103  1  -0.00330185  0.62780298  0.12236131  1
  Zn  Zn104  1  0.01229677  0.75284621  0.74456979  1
  Zn  Zn105  1  0.77146255  0.47214021  0.77149172  1
  Zn  Zn106  1  -0.00527727  0.12041585  0.11844812  1
  Zn  Zn107  1  0.19184816  0.18601593  0.18500505  1
  Zn  Zn108  1  0.18485236  0.18595663  0.68557515  1
  Zn  Zn109  1  0.18687125  0.68829061  0.18021887  1
  Zn  Zn110  1  0.18340580  0.68475536  0.68459580  1
  Zn  Zn111  1  0.69153984  0.18855400  0.18668590  1
  Zn  Zn112  1  0.66207327  0.22708944  0.67290203  1
  Zn  Zn113  1  0.68914179  0.68963763  0.18690469  1
  Zn  Zn114  1  0.67742769  0.59175275  0.69028459  1
  Zn  Zn115  1  0.31491101  0.30971485  0.30442726  1
  Zn  Zn116  1  0.31116622  0.31157373  0.80803336  1
  Zn  Zn117  1  0.31508678  0.81035197  0.31230522  1
  Zn  Zn118  1  0.31560141  0.81294980  0.81209498  1
  Zn  Zn119  1  0.81363814  0.31368394  0.31066442  1
  Zn  Zn120  1  0.81489924  0.30638532  0.81046190  1
  Zn  Zn121  1  0.81447118  0.81822032  0.31026541  1
  Zn  Zn122  1  0.80932042  0.80941063  0.81607613  1
  Zn  Zn123  1  0.19095755  0.44059060  0.43495683  1
  Zn  Zn124  1  0.18486740  0.43713661  0.93699471  1
  Zn  Zn125  1  0.18633532  0.94117785  0.43719619  1
  Zn  Zn126  1  0.18998079  0.93806098  0.93866778  1
  Zn  Zn127  1  0.67870078  0.43065856  0.44160177  1
  Zn  Zn128  1  0.68884801  0.45144321  0.93907212  1
  Zn  Zn129  1  0.68794304  0.94038082  0.43781971  1
  Zn  Zn130  1  0.68918110  0.93752286  0.93854451  1
  Zn  Zn131  1  0.30935842  0.06496725  0.06024463  1
  Zn  Zn132  1  0.31482138  0.05768918  0.56127649  1
  Zn  Zn133  1  0.31081218  0.56378095  0.05974938  1
  Zn  Zn134  1  0.31117792  0.56000661  0.56154761  1
  Zn  Zn135  1  0.81312889  0.06042121  0.06291000  1
  Zn  Zn136  1  0.81132499  0.06590406  0.56037283  1
  Zn  Zn137  1  0.81138473  0.56685690  0.05927014  1
  Zn  Zn138  1  0.83346378  0.53606878  0.61737824  1
  Zn  Zn139  1  0.43820506  0.43476183  0.18096635  1
  Zn  Zn140  1  0.43388000  0.43868367  0.69064563  1
  Zn  Zn141  1  0.43962827  0.93544147  0.18679072  1
  Zn  Zn142  1  0.43468438  0.93539584  0.68816991  1
  Zn  Zn143  1  0.95427761  0.45417975  0.22758473  1
  Zn  Zn144  1  0.94727960  0.42722689  0.69043546  1
  Zn  Zn145  1  0.93568881  0.94160338  0.18660122  1
  Zn  Zn146  1  0.93355686  0.93853467  0.69164808  1
  Zn  Zn147  1  0.06480595  0.06314732  0.30879116  1
  Zn  Zn148  1  0.06316877  0.05972127  0.81257399  1
  Zn  Zn149  1  0.06610073  0.56862936  0.31095916  1
  Zn  Zn150  1  0.06933071  0.56769186  0.80372989  1
  Zn  Zn151  1  0.56248035  0.06087840  0.31173910  1
  Zn  Zn152  1  0.56824005  0.06271941  0.81483786  1
  Zn  Zn153  1  0.56136502  0.56037414  0.31451765  1
  Zn  Zn154  1  0.56153662  0.55986281  0.82014349  1
  Zn  Zn155  1  0.43398956  0.18632341  0.43628334  1
  Zn  Zn156  1  0.43522058  0.18427177  0.93839352  1
  Zn  Zn157  1  0.43548670  0.68618469  0.43251882  1
  Zn  Zn158  1  0.43957966  0.68443444  0.93825790  1
  Zn  Zn159  1  0.93608779  0.25521327  0.43479874  1
  Zn  Zn160  1  0.93471148  0.18809269  0.93795938  1
  Zn  Zn161  1  0.94191898  0.70174546  0.43732774  1
  Zn  Zn162  1  0.94091404  0.69258724  0.93742790  1
  Zn  Zn163  1  0.06191853  0.31598287  0.06174214  1
  Zn  Zn164  1  0.06477852  0.30466846  0.56290641  1
  Zn  Zn165  1  0.06106610  0.81418145  0.06084259  1
  Zn  Zn166  1  0.06187768  0.81546988  0.55996302  1
  Zn  Zn167  1  0.57309596  0.33515164  0.03141145  1
  Zn  Zn168  1  0.54666240  0.30555620  0.55949099  1
  Zn  Zn169  1  0.56240961  0.81807376  0.06429755  1
  Zn  Zn170  1  0.56617177  0.80584117  0.56682008  1
  O  O171  1  0.13058148  0.11566396  0.11506763  1
  O  O172  1  0.11748501  0.11139109  0.62575083  1
  O  O173  1  0.12221926  0.61633534  0.11379171  1
  O  O174  1  0.12636413  0.61310707  0.61304397  1
  O  O175  1  0.63150944  0.11257625  0.12094408  1
  O  O176  1  0.61250778  0.12369190  0.61746408  1
  O  O177  1  0.63415441  0.61563210  0.11831513  1
  O  O178  1  0.61243099  0.63529210  0.60491381  1
  O  O179  1  0.37973411  0.37088098  0.37973177  1
  O  O180  1  0.36313952  0.39212799  0.87132599  1
  O  O181  1  0.38500672  0.87461716  0.38057999  1
  O  O182  1  0.38154458  0.88699004  0.87983517  1
  O  O183  1  0.88540731  0.35298810  0.38561540  1
  O  O184  1  0.87259244  0.37293262  0.88687357  1
  O  O185  1  0.88367994  0.87656217  0.38305579  1
  O  O186  1  0.87986139  0.87999857  0.88355580  1
  O  O187  1  0.25378720  0.00211234  0.36059046  1
  O  O188  1  0.25570930  0.00394200  0.86716006  1
  O  O189  1  0.25339864  0.50899182  0.36392995  1
  O  O190  1  0.25853064  0.50514913  0.88151585  1
  O  O191  1  0.74375931  0.01900118  0.37590771  1
  O  O192  1  0.75655180  0.00530758  0.86964864  1
  O  O193  1  0.75097333  0.50047582  0.37442463  1
  O  O194  1  0.74541989  0.51998216  0.87351352  1
  O  O195  1  0.24221830  0.49293881  0.12484550  1
  O  O196  1  0.24214532  0.48449587  0.61852648  1
  O  O197  1  0.24651615  0.99382347  0.13415579  1
  O  O198  1  0.24472361  0.99384971  0.63047557  1
  O  O199  1  0.74457651  0.49758582  0.13238707  1
  O  O200  1  0.73397864  0.49887975  0.64895431  1
  O  O201  1  0.74169192  0.99147506  0.12568468  1
  O  O202  1  0.74693287  0.99469122  0.63285483  1
  O  O203  1  0.01923977  0.36017771  0.23779639  1
  O  O204  1  0.01499938  0.35606722  0.74576855  1
  O  O205  1  0.00743593  0.87359898  0.25376589  1
  O  O206  1  -0.00431382  0.87515306  0.76574854  1
  O  O207  1  0.50144327  0.37103507  0.25685816  1
  O  O208  1  0.49972495  0.36418281  0.74715916  1
  O  O209  1  0.50657137  0.86937771  0.25949522  1
  O  O210  1  0.50503389  0.86986751  0.75462166  1
  O  O211  1  0.48673105  0.12519398  0.25223381  1
  O  O212  1  0.49661994  0.11772455  0.74204097  1
  O  O213  1  0.49031945  0.63481269  0.26089577  1
  O  O214  1  0.49122064  0.63382578  0.74732164  1
  O  O215  1  1.00474141  0.13069876  0.23803589  1
  O  O216  1  1.00686435  0.13406129  0.74295290  1
  O  O217  1  0.98895587  0.63739067  0.24990234  1
  O  O218  1  0.99797067  0.63298758  0.74283094  1
  O  O219  1  0.36053353  0.24374764  0.00317981  1
  O  O220  1  0.38138313  0.25791301  0.51110206  1
  O  O221  1  0.36982872  0.75484632  0.00088540  1
  O  O222  1  0.36654008  0.75188051  0.50423452  1
  O  O223  1  0.87027605  0.26071486  0.00502915  1
  O  O224  1  0.85957620  0.23619248  0.51661140  1
  O  O225  1  0.87799674  0.76644544  0.00265843  1
  O  O226  1  0.87322712  0.76639413  0.50599489  1
  O  O227  1  0.12953456  0.23972557  0.49991799  1
  O  O228  1  0.13261520  0.24564971  0.99235448  1
  O  O229  1  0.13736194  0.74418668  0.50471408  1
  O  O230  1  0.13166436  0.74306832  0.99954446  1
  O  O231  1  0.62610947  0.23910299  0.49056111  1
  O  O232  1  0.63139465  0.23421342  1.01697543  1
  O  O233  1  0.62831059  0.74316331  0.49134816  1
  O  O234  1  0.61603004  0.73569601  1.00826228  1
  O  O235  1  0.48632733  0.26135068  0.11471934  1
  O  O236  1  0.48558848  0.23840813  0.63580136  1
  O  O237  1  0.49979435  0.75767469  0.14129873  1
  O  O238  1  0.49201160  0.74485962  0.63528848  1
  O  O239  1  0.99527154  0.24803731  0.12878822  1
  O  O240  1  0.98890683  0.23794977  0.63187822  1
  O  O241  1  0.99644696  0.75242757  0.13632914  1
  O  O242  1  0.98654570  0.75669563  0.62322867  1
  O  O243  1  0.01492946  0.23560298  0.35619506  1
  O  O244  1  0.00954125  0.24274594  0.86793737  1
  O  O245  1  -0.00015505  0.76764690  0.36121443  1
  O  O246  1  0.00359842  0.76586237  0.87355839  1
  O  O247  1  0.50499796  0.25738886  0.37359092  1
  O  O248  1  0.47942911  0.25508766  0.86287956  1
  O  O249  1  0.50683071  0.75941743  0.36952583  1
  O  O250  1  0.49225805  0.75817319  0.86258729  1
  O  O251  1  0.25484588  0.11355892  0.48010878  1
  O  O252  1  0.24094158  0.13130021  0.98837381  1
  O  O253  1  0.24500795  0.63182859  0.49118370  1
  O  O254  1  0.24010917  0.63674349  1.00556409  1
  O  O255  1  0.73620390  0.12877976  0.49251389  1
  O  O256  1  0.74316645  0.12998547  0.99566979  1
  O  O257  1  0.74310726  0.62257342  0.48908007  1
  O  O258  1  0.73437699  0.62304105  0.99383197  1
  O  O259  1  0.24388116  0.36517816  0.00649580  1
  O  O260  1  0.26105168  0.37546455  0.50283591  1
  O  O261  1  0.25785183  0.87227454  0.00646983  1
  O  O262  1  0.25271394  0.86876226  0.50540896  1
  O  O263  1  0.76308944  0.37840725  0.01260060  1
  O  O264  1  0.75180871  0.36036325  0.49699799  1
  O  O265  1  0.76251168  0.88007671  0.00571096  1
  O  O266  1  0.75738802  0.88037215  0.50791389  1
  O  O267  1  0.13465503  0.49419336  0.23952489  1
  O  O268  1  0.12122509  0.48823848  0.73831728  1
  O  O269  1  0.13474387  0.99258082  0.24075223  1
  O  O270  1  0.13877769  0.99983973  0.74389295  1
  O  O271  1  0.63632943  0.50337853  0.24487491  1
  O  O272  1  0.60625347  0.51031268  0.73371394  1
  O  O273  1  0.62568684  0.99451990  0.24232148  1
  O  O274  1  0.63119651  0.99080633  0.74408898  1
  O  O275  1  0.36923398  0.00517837  0.24809501  1
  O  O276  1  0.36246243  -0.00395772  0.75700259  1
  O  O277  1  0.37034070  0.50614942  0.24931187  1
  O  O278  1  0.37836989  0.51132656  0.76339345  1
  O  O279  1  0.87279524  0.00962271  0.24572299  1
  O  O280  1  0.86324482  -0.00488583  0.76409116  1
  O  O281  1  0.85783789  0.51197738  0.24479036  1
  O  O282  1  0.87475273  0.50422990  0.72733837  1
  O  O283  1  0.12380335  0.37550370  0.36551493  1
  O  O284  1  0.13082203  0.36266553  0.86673307  1
  O  O285  1  0.12058038  0.88054379  0.36126277  1
  O  O286  1  0.11023498  0.87944115  0.88234119  1
  O  O287  1  0.61625637  0.36152143  0.37222051  1
  O  O288  1  0.61672194  0.36773935  0.92796872  1
  O  O289  1  0.61910135  0.86908770  0.37215411  1
  O  O290  1  0.61677177  0.88317876  0.86656861  1
  O  O291  1  0.36862468  0.13541719  0.13025951  1
  O  O292  1  0.38146264  0.13045060  0.61864042  1
  O  O293  1  0.36938488  0.62701508  0.13866985  1
  O  O294  1  0.38061036  0.62645164  0.63196997  1
  O  O295  1  0.87449922  0.14095177  0.11957245  1
  O  O296  1  0.88695367  0.12289316  0.62780551  1
  O  O297  1  0.87547321  0.63029385  0.13461199  1
  O  O298  1  0.87737112  0.64485665  0.61505610  1
  O  O299  1  0.25458649  0.25656805  0.11423941  1
  O  O300  1  0.25987165  0.25545748  0.62921097  1
  O  O301  1  0.25236264  0.75964625  0.11455464  1
  O  O302  1  0.25513046  0.75657330  0.61631542  1
  O  O303  1  0.75665430  0.26117141  0.12086872  1
  O  O304  1  0.76369642  0.23207302  0.62095802  1
  O  O305  1  0.75110731  0.76828794  0.13052118  1
  O  O306  1  0.76184345  0.76658219  0.61872299  1
  O  O307  1  0.25118186  0.23467746  0.36682560  1
  O  O308  1  0.24450509  0.24196396  0.87815836  1
  O  O309  1  0.25373577  0.74310898  0.38319451  1
  O  O310  1  0.24852953  0.76238160  0.88938175  1
  O  O311  1  0.73918167  0.24178918  0.38312174  1
  O  O312  1  0.74743038  0.24100227  0.88420276  1
  O  O313  1  0.73718727  0.75790625  0.37592327  1
  O  O314  1  0.74473216  0.73890515  0.87836036  1
  O  O315  1  0.01517711  0.12974406  -0.00011089  1
  O  O316  1  0.00034863  0.11061600  0.50974743  1
  O  O317  1  0.00433433  0.61474499  0.00189718  1
  O  O318  1  0.01589316  0.63575544  0.49694989  1
  O  O319  1  0.50806479  0.11428798  -0.00531337  1
  O  O320  1  0.50660655  0.11854795  0.50323008  1
  O  O321  1  0.50892950  0.61566867  -0.00063422  1
  O  O322  1  0.50119984  0.61528649  0.50156826  1
  O  O323  1  0.48857578  0.37896101  0.49238613  1
  O  O324  1  0.48526184  0.41128538  1.02846977  1
  O  O325  1  0.49752653  0.87476445  0.49519944  1
  O  O326  1  0.49632773  0.88481019  0.99392143  1
  O  O327  1  0.98851925  0.35413187  0.49485560  1
  O  O328  1  0.99565677  0.39195583  1.00197587  1
  O  O329  1  0.99513907  0.88449095  0.49055071  1
  O  O330  1  0.98794318  0.87726442  0.99135680  1
  O  O331  1  0.49768003  0.48524695  0.38106270  1
  O  O332  1  0.49058900  0.49581280  0.88539346  1
  O  O333  1  0.50128234  0.98694082  0.38121346  1
  O  O334  1  0.49295543  0.99716065  0.88060261  1
  O  O335  1  0.98900850  0.49353463  0.33368165  1
  O  O336  1  1.00052832  0.50369109  0.88133631  1
  O  O337  1  1.00709300  0.99205528  0.38132562  1
  O  O338  1  0.99073127  0.99114482  0.87051263  1
  O  O339  1  0.01561743  -0.00065155  0.12359164  1
  O  O340  1  0.00631812  0.00132643  0.62307678  1
  O  O341  1  0.01302085  0.50169087  0.13177940  1
  O  O342  1  0.01177236  0.49830406  0.61913553  1
  O  O343  1  0.50932691  -0.00562263  0.11453686  1
  O  O344  1  0.50318665  0.00405901  0.62096294  1
  O  O345  1  0.51650440  0.51031548  0.14085928  1
  O  O346  1  0.48902040  0.50268404  0.61077464  1
  O  O347  1  0.24174319  0.37837106  0.24229867  1
  O  O348  1  0.23655428  0.36849695  0.73847100  1
  O  O349  1  0.24544545  0.87906267  0.24572900  1
  O  O350  1  0.25540604  0.88029279  0.73684201  1
  O  O351  1  0.74913378  0.38363744  0.24145234  1
  O  O352  1  0.72575951  0.36539363  0.77042787  1
  O  O353  1  0.74281130  0.88026861  0.24380079  1
  O  O354  1  0.74334380  0.88076615  0.74474918  1
  O  O355  1  0.26009354  0.11631413  0.25426255  1
  O  O356  1  0.24616657  0.11797175  0.76104415  1
  O  O357  1  0.25403248  0.62354337  0.25412057  1
  O  O358  1  0.26544718  0.62569930  0.74273796  1
  O  O359  1  0.75059856  0.12866991  0.26670147  1
  O  O360  1  0.74026172  0.11281399  0.75982873  1
  O  O361  1  0.76004505  0.62305362  0.25269963  1
  O  O362  1  0.75609904  0.63265052  0.76495196  1
  O  O363  1  0.36678745  0.12187402  0.36505369  1
  O  O364  1  0.36500698  0.11089150  0.87991257  1
  O  O365  1  0.36364636  0.62387483  0.36447081  1
  O  O366  1  0.37447657  0.62247925  0.86217084  1
  O  O367  1  0.86012960  0.13517552  0.37973696  1
  O  O368  1  0.86078203  0.11763133  0.88246621  1
  O  O369  1  0.86973997  0.62709493  0.37756544  1
  O  O370  1  0.86137205  0.63205510  0.88195361  1
  O  O371  1  0.13537853  0.38192267  0.12773262  1
  O  O372  1  0.13067169  0.37858236  0.62807613  1
  O  O373  1  0.13258948  0.88154447  0.13013126  1
  O  O374  1  0.13331626  0.88726308  0.61808727  1
  O  O375  1  0.63564974  0.39259266  0.12329039  1
  O  O376  1  0.63516166  0.32907886  0.62071135  1
  O  O377  1  0.63221332  0.88553098  0.12793240  1
  O  O378  1  0.63396752  0.88025292  0.63076443  1
  O  O379  1  0.12534911  0.25736083  0.24738524  1
  O  O380  1  0.11994937  0.25223698  0.75800966  1
  O  O381  1  0.11779766  0.76024398  0.24266854  1
  O  O382  1  0.12721071  0.75363343  0.74862696  1
  O  O383  1  0.62178346  0.25094011  0.25504153  1
  O  O384  1  0.59698743  0.23670787  0.76529879  1
  O  O385  1  0.61891715  0.75404393  0.25755676  1
  O  O386  1  0.61348164  0.76407315  0.74510223  1
  O  O387  1  0.37854718  0.24131502  0.23612735  1
  O  O388  1  0.38141057  0.24992413  0.74012049  1
  O  O389  1  0.38420561  0.74280848  0.24882251  1
  O  O390  1  0.37944561  0.74104996  0.74508059  1
  O  O391  1  0.88797877  0.24533686  0.24187694  1
  O  O392  1  0.88371672  0.24915938  0.74079429  1
  O  O393  1  0.88100267  0.74554682  0.24919622  1
  O  O394  1  0.87554982  0.75672679  0.73446440  1
  O  O395  1  0.38013517  0.49051246  0.49413976  1
  O  O396  1  0.38223930  0.51673490  0.98385964  1
  O  O397  1  0.38288929  0.98863050  0.49720519  1
  O  O398  1  0.38244302  0.99749738  0.99486819  1
  O  O399  1  0.85981834  0.50877445  0.50281547  1
  O  O400  1  0.89070581  0.49598768  1.00598927  1
  O  O401  1  0.88348416  0.99109269  0.50576651  1
  O  O402  1  0.87209474  0.99133821  0.98728835  1
  O  O403  1  0.13511535  0.01004126  0.00915477  1
  O  O404  1  0.11781101  0.00393745  0.50807956  1
  O  O405  1  0.11281126  0.50497365  0.00331398  1
  O  O406  1  0.12816037  0.50887983  0.50360710  1
  O  O407  1  0.61845874  0.00761137  0.00737665  1
  O  O408  1  0.61945900  0.00621004  0.50841693  1
  O  O409  1  0.61113000  0.51275857  0.01274190  1
  O  O410  1  0.61124475  0.50641136  0.49450428  1
  O  O411  1  0.35905335  0.36708364  0.13123526  1
  O  O412  1  0.36623566  0.36864429  0.61877043  1
  O  O413  1  0.36919051  0.87318342  0.11833726  1
  O  O414  1  0.36631248  0.86769022  0.61869746  1
  O  O415  1  0.86970673  0.36475340  0.12320525  1
  O  O416  1  0.87590238  0.35829564  0.62098855  1
  O  O417  1  0.87011951  0.87890833  0.11130146  1
  O  O418  1  0.86906682  0.87252739  0.61894634  1
  O  O419  1  0.14477404  0.12005089  0.37100676  1
  O  O420  1  0.13184144  0.13070428  0.88004780  1
  O  O421  1  0.13879574  0.62323579  0.37917751  1
  O  O422  1  0.12298147  0.62791691  0.88684893  1
  O  O423  1  0.62266830  0.13359498  0.38091355  1
  O  O424  1  0.63794133  0.11644197  0.88879230  1
  O  O425  1  0.61622987  0.63497772  0.38609921  1
  O  O426  1  0.62835171  0.62803993  0.88838613  1
