# generated using pymatgen
data_V85Zn86O256
_symmetry_space_group_name_H-M   'P 1'
_cell_length_a   16.92937794
_cell_length_b   16.93790695
_cell_length_c   16.93118881
_cell_angle_alpha   90.00472974
_cell_angle_beta   89.94633957
_cell_angle_gamma   90.00043290
_symmetry_Int_Tables_number   1
_chemical_formula_structural   V85Zn86O256
_chemical_formula_sum   'V85 Zn86 O256'
_cell_volume   4854.98625064
_cell_formula_units_Z   1
loop_
 _symmetry_equiv_pos_site_id
 _symmetry_equiv_pos_as_xyz
  1  'x, y, z'
loop_
 _atom_site_type_symbol
 _atom_site_label
 _atom_site_symmetry_multiplicity
 _atom_site_fract_x
 _atom_site_fract_y
 _atom_site_fract_z
 _atom_site_occupancy
  V  V0  1  0.25388771  0.50319561  0.75128091  1
  V  V1  1  0.24450510  0.49228350  0.24808786  1
  V  V2  1  0.37573655  0.87575710  0.49930608  1
  V  V3  1  0.87318489  0.74534636  0.62010946  1
  V  V4  1  0.25099907  0.12529217  0.37019943  1
  V  V5  1  0.75939634  0.37347159  0.11282352  1
  V  V6  1  -0.00424474  0.87439047  0.87639613  1
  V  V7  1  0.62927044  0.49843108  0.12818373  1
  V  V8  1  0.69233730  0.68900299  0.55608602  1
  V  V9  1  0.51065282  0.51534550  0.50547825  1
  V  V10  1  0.87062081  0.75056049  0.13144333  1
  V  V11  1  0.50100221  0.12453086  0.62598523  1
  V  V12  1  0.74639823  0.13714781  0.88243479  1
  V  V13  1  0.75214553  0.50336318  0.25260743  1
  V  V14  1  0.12711691  0.25472711  0.36792404  1
  V  V15  1  0.62333374  0.00476232  0.12026209  1
  V  V16  1  0.75195208  0.00226056  0.24951761  1
  V  V17  1  0.12316874  0.75245704  0.37555704  1
  V  V18  1  0.25024924  0.25076000  0.49979144  1
  V  V19  1  0.12802197  0.37116897  0.76271611  1
  V  V20  1  0.50877134  0.36900521  0.86932552  1
  V  V21  1  0.87138707  0.50888015  0.37354710  1
  V  V22  1  0.49830876  0.49773074  0.00069284  1
  V  V23  1  0.87195795  0.12923246  0.25486881  1
  V  V24  1  0.12535360  0.00046269  0.62308922  1
  V  V25  1  0.37520314  0.62381206  0.25023678  1
  V  V26  1  0.13341334  -0.00034571  0.12277934  1
  V  V27  1  0.12545579  0.49822088  0.62487541  1
  V  V28  1  0.25252102  0.62658384  0.87521805  1
  V  V29  1  0.38829265  0.14136381  0.23864407  1
  V  V30  1  0.87207677  0.13534024  0.74888340  1
  V  V31  1  -0.00374216  0.13087966  0.62371082  1
  V  V32  1  -0.00707260  0.75087161  0.75135896  1
  V  V33  1  0.37344696  0.12601763  0.75703487  1
  V  V34  1  0.25444185  0.24515769  -0.01021515  1
  V  V35  1  0.12355685  0.87452771  0.75021001  1
  V  V36  1  0.86895505  0.87712897  0.00592478  1
  V  V37  1  0.74623180  0.75341401  -0.00273786  1
  V  V38  1  0.25080685  0.62508576  0.37683814  1
  V  V39  1  0.24962270  0.00439040  0.75886941  1
  V  V40  1  0.74973575  0.49554622  0.75682215  1
  V  V41  1  0.25149877  0.75044110  0.50285371  1
  V  V42  1  0.38911466  0.74621994  0.63375244  1
  V  V43  1  -0.00430798  0.62377651  0.13359054  1
  V  V44  1  0.62413575  0.62952453  -0.00738844  1
  V  V45  1  0.00048990  0.00050921  0.00097919  1
  V  V46  1  0.37232706  0.37132062  0.00420720  1
  V  V47  1  0.50302113  0.86597783  0.87354978  1
  V  V48  1  0.50549881  0.36796710  0.37920302  1
  V  V49  1  0.37639244  0.25061284  0.62639921  1
  V  V50  1  -0.00011915  0.00080826  0.49690741  1
  V  V51  1  0.37913733  0.49930003  0.37632316  1
  V  V52  1  0.50191227  0.00254978  0.49803843  1
  V  V53  1  0.00341053  0.25062382  0.75194836  1
  V  V54  1  0.37277469  0.87969190  0.00732138  1
  V  V55  1  0.63957277  0.24860324  0.37020951  1
  V  V56  1  0.00322600  0.25606240  0.24479129  1
  V  V57  1  0.87562701  0.25279962  0.11120047  1
  V  V58  1  -0.01940757  0.37639521  0.87765650  1
  V  V59  1  0.12949257  0.87376219  0.24276314  1
  V  V60  1  0.49956033  0.62329573  0.12512107  1
  V  V61  1  0.37770465  0.00277468  0.36944651  1
  V  V62  1  0.63570557  0.12515787  0.49696579  1
  V  V63  1  0.63875908  0.73712676  0.37208958  1
  V  V64  1  0.50106205  0.74912423  0.25059478  1
  V  V65  1  0.76280274  0.61694795  0.87914447  1
  V  V66  1  0.87239763  -0.00075838  0.87661936  1
  V  V67  1  0.50411094  0.87400477  0.37133946  1
  V  V68  1  0.25124847  0.87563703  0.62653136  1
  V  V69  1  0.73820968  0.36742820  0.63063874  1
  V  V70  1  0.12873958  0.13022180  -0.01739251  1
  V  V71  1  -0.01552592  0.49752190  -0.00445517  1
  V  V72  1  0.87753539  0.36861202  0.50956458  1
  V  V73  1  0.25019295  0.37434754  0.62680219  1
  V  V74  1  0.12325049  0.61882636  0.00197562  1
  V  V75  1  0.74705016  0.87798643  0.62051167  1
  V  V76  1  0.24906220  0.75360123  0.01112060  1
  V  V77  1  0.00263665  0.12701640  0.12262198  1
  V  V78  1  0.63214550  0.87500409  0.24100799  1
  V  V79  1  0.12396172  0.74953618  0.87580752  1
  V  V80  1  0.87180893  0.87358073  0.49599236  1
  V  V81  1  0.00024425  0.37644929  0.37270920  1
  V  V82  1  0.61995218  0.13847175  -0.00035584  1
  V  V83  1  0.75045101  -0.00477351  0.75207874  1
  V  V84  1  0.00092889  0.62268066  0.62660746  1
  Zn  Zn85  1  0.51367665  0.25258050  0.74898694  1
  Zn  Zn86  1  0.12620750  0.62551597  0.50204700  1
  Zn  Zn87  1  0.75822295  0.24550862  0.50224088  1
  Zn  Zn88  1  0.37683779  0.00138870  0.87832504  1
  Zn  Zn89  1  0.86875563  0.00428880  0.37529073  1
  Zn  Zn90  1  0.87683912  0.61667761  0.75416297  1
  Zn  Zn91  1  0.12466122  0.12620441  0.49772283  1
  Zn  Zn92  1  0.37730663  0.49957409  0.87403429  1
  Zn  Zn93  1  0.24258442  0.35840865  0.13133951  1
  Zn  Zn94  1  0.49927590  0.00417883  -0.00015229  1
  Zn  Zn95  1  0.25502588  -0.00231038  0.24395699  1
  Zn  Zn96  1  -0.00432090  0.74908307  0.25264127  1
  Zn  Zn97  1  0.62561894  0.51032896  0.62626414  1
  Zn  Zn98  1  -0.00133745  0.87648195  0.37138222  1
  Zn  Zn99  1  0.37194686  0.75498251  0.12973989  1
  Zn  Zn100  1  0.11858156  0.49150246  0.12994654  1
  Zn  Zn101  1  0.37894543  0.37927448  0.50500953  1
  Zn  Zn102  1  0.39166939  0.62768849  0.75144864  1
  Zn  Zn103  1  0.60108611  0.34691448  0.22211718  1
  Zn  Zn104  1  0.61636321  0.87404136  0.75614844  1
  Zn  Zn105  1  0.62454045  0.00012255  0.62586841  1
  Zn  Zn106  1  0.00075368  0.49927452  0.50014944  1
  Zn  Zn107  1  0.19179934  0.18582860  0.18306228  1
  Zn  Zn108  1  0.18559902  0.18669026  0.68944563  1
  Zn  Zn109  1  0.18363152  0.68084246  0.19005495  1
  Zn  Zn110  1  0.18896288  0.68870287  0.68894109  1
  Zn  Zn111  1  0.69245855  0.18691612  0.18115003  1
  Zn  Zn112  1  0.68971878  0.18391544  0.68392768  1
  Zn  Zn113  1  0.68948920  0.68617230  0.18408420  1
  Zn  Zn114  1  0.57266349  0.69634827  0.71209027  1
  Zn  Zn115  1  0.31877816  0.31485725  0.31492640  1
  Zn  Zn116  1  0.31738340  0.31243581  0.81714093  1
  Zn  Zn117  1  0.31090078  0.81401115  0.31166582  1
  Zn  Zn118  1  0.31455657  0.81589468  0.81757356  1
  Zn  Zn119  1  0.81281258  0.32154251  0.30494733  1
  Zn  Zn120  1  0.68699938  0.31316272  0.81287784  1
  Zn  Zn121  1  0.81090143  0.81669801  0.31214737  1
  Zn  Zn122  1  0.75795042  0.76836572  0.77828486  1
  Zn  Zn123  1  0.18781674  0.43588834  0.43829721  1
  Zn  Zn124  1  0.18772040  0.43697521  0.94096378  1
  Zn  Zn125  1  0.18838051  0.93771182  0.43475901  1
  Zn  Zn126  1  0.18783750  0.93661930  0.93937980  1
  Zn  Zn127  1  0.68989222  0.43653921  0.44180579  1
  Zn  Zn128  1  0.68901053  0.43978241  0.94365866  1
  Zn  Zn129  1  0.68772000  0.93739643  0.43069852  1
  Zn  Zn130  1  0.68545306  0.93822655  0.93792738  1
  Zn  Zn131  1  0.31222046  0.06872739  0.06164849  1
  Zn  Zn132  1  0.31277503  0.06397698  0.56162698  1
  Zn  Zn133  1  0.31389706  0.56106969  0.06466443  1
  Zn  Zn134  1  0.31650463  0.56525051  0.56263268  1
  Zn  Zn135  1  0.80913222  0.06456009  0.06762239  1
  Zn  Zn136  1  0.81625669  0.06081588  0.56369116  1
  Zn  Zn137  1  0.81201966  0.56607723  0.06717497  1
  Zn  Zn138  1  0.81704260  0.54924864  0.56730605  1
  Zn  Zn139  1  0.44949422  0.40174899  0.17609539  1
  Zn  Zn140  1  0.44012141  0.44164935  0.68681731  1
  Zn  Zn141  1  0.44182525  0.94110037  0.18494182  1
  Zn  Zn142  1  0.43736559  0.93758384  0.68994200  1
  Zn  Zn143  1  0.93716446  0.43863086  0.18827173  1
  Zn  Zn144  1  0.93525644  0.43499613  0.69270775  1
  Zn  Zn145  1  0.94191089  0.93750021  0.18771687  1
  Zn  Zn146  1  0.93297377  0.93860558  0.68562702  1
  Zn  Zn147  1  0.06342868  0.06502118  0.30934420  1
  Zn  Zn148  1  0.05893033  0.05925196  0.80940563  1
  Zn  Zn149  1  0.06208195  0.56433702  0.31589969  1
  Zn  Zn150  1  0.06216635  0.55856651  0.81359017  1
  Zn  Zn151  1  0.56553988  0.06675212  0.30970293  1
  Zn  Zn152  1  0.56266009  0.05757093  0.81577501  1
  Zn  Zn153  1  0.56232514  0.55608821  0.31110266  1
  Zn  Zn154  1  0.56929697  0.55420720  0.81590849  1
  Zn  Zn155  1  0.43928384  0.18808384  0.43672343  1
  Zn  Zn156  1  0.43858889  0.19036201  0.93782001  1
  Zn  Zn157  1  0.43988106  0.68961143  0.43739033  1
  Zn  Zn158  1  0.43456849  0.68941642  0.93857313  1
  Zn  Zn159  1  0.93937796  0.18934708  0.43457048  1
  Zn  Zn160  1  0.94022763  0.18858076  0.93073513  1
  Zn  Zn161  1  0.93977060  0.68655628  0.44085877  1
  Zn  Zn162  1  0.93619995  0.68908274  0.94418170  1
  Zn  Zn163  1  0.06878143  0.31476062  0.05670224  1
  Zn  Zn164  1  0.06387483  0.31154788  0.56262334  1
  Zn  Zn165  1  0.06032415  0.81114349  0.06460263  1
  Zn  Zn166  1  0.06023800  0.81346135  0.56165631  1
  Zn  Zn167  1  0.56324466  0.31018075  0.05668428  1
  Zn  Zn168  1  0.56320082  0.30999700  0.55738368  1
  Zn  Zn169  1  0.55910055  0.81381838  0.06162728  1
  Zn  Zn170  1  0.56185517  0.81562276  0.55776482  1
  O  O171  1  0.11869016  0.11742587  0.11688999  1
  O  O172  1  0.11353211  0.11825502  0.62323593  1
  O  O173  1  0.11560824  0.61992815  0.11697393  1
  O  O174  1  0.11909484  0.61674846  0.62782859  1
  O  O175  1  0.63190093  0.12182360  0.10791108  1
  O  O176  1  0.61690760  0.12143538  0.61510035  1
  O  O177  1  0.61844334  0.61720259  0.11684677  1
  O  O178  1  0.63447978  0.63565790  0.62014085  1
  O  O179  1  0.38658526  0.38213520  0.38158088  1
  O  O180  1  0.38465518  0.37965379  0.88509703  1
  O  O181  1  0.38128791  0.88251656  0.37911549  1
  O  O182  1  0.38146049  0.87719184  0.88740794  1
  O  O183  1  0.88621265  0.37869392  0.38237889  1
  O  O184  1  0.88602452  0.37421697  0.87187340  1
  O  O185  1  0.87871244  0.87896637  0.38219816  1
  O  O186  1  0.88264041  0.88351181  0.88982910  1
  O  O187  1  0.25902860  0.00934738  0.37424127  1
  O  O188  1  0.25119526  -0.00375801  0.86150266  1
  O  O189  1  0.25695973  0.50401915  0.37155593  1
  O  O190  1  0.24982061  0.50848054  0.86770482  1
  O  O191  1  0.75037656  0.00011453  0.35713382  1
  O  O192  1  0.75609023  0.00354932  0.86782145  1
  O  O193  1  0.76302103  0.49191531  0.36980680  1
  O  O194  1  0.74900429  0.50012274  0.86619853  1
  O  O195  1  0.24902666  0.50620585  0.14374384  1
  O  O196  1  0.24547545  0.49731767  0.63181806  1
  O  O197  1  0.23709741  1.00470541  0.12480731  1
  O  O198  1  0.24518014  0.99413623  0.62936432  1
  O  O199  1  0.74796357  0.49282701  0.12874079  1
  O  O200  1  0.74637995  0.48696713  0.63239565  1
  O  O201  1  0.73819956  1.00316766  0.13628115  1
  O  O202  1  0.75136276  0.99322810  0.63249158  1
  O  O203  1  -0.00303961  0.36371558  0.25691791  1
  O  O204  1  0.00644559  0.36933989  0.75723962  1
  O  O205  1  0.01335490  0.87259392  0.25269223  1
  O  O206  1  0.00118575  0.86947697  0.75431145  1
  O  O207  1  0.50587918  0.39779995  0.27921573  1
  O  O208  1  0.49585346  0.37867982  0.76645461  1
  O  O209  1  0.50724552  0.86845315  0.25411693  1
  O  O210  1  0.49739559  0.87790514  0.76601491  1
  O  O211  1  0.48667183  0.12565578  0.25396162  1
  O  O212  1  0.49389997  0.12235822  0.73810069  1
  O  O213  1  0.49379395  0.62762458  0.24624498  1
  O  O214  1  0.50428818  0.62292634  0.75684924  1
  O  O215  1  0.99700012  0.13714723  0.24278026  1
  O  O216  1  0.99626129  0.13124205  0.74442404  1
  O  O217  1  1.00429018  0.62630726  0.23741201  1
  O  O218  1  0.99787383  0.63007925  0.74298440  1
  O  O219  1  0.36462046  0.25485179  -0.00276178  1
  O  O220  1  0.37023518  0.25020751  0.51161953  1
  O  O221  1  0.36397634  0.75620031  0.00483225  1
  O  O222  1  0.37233216  0.75578496  0.51003361  1
  O  O223  1  0.88261410  0.24296370  0.01244196  1
  O  O224  1  0.87586781  0.26388102  0.49440559  1
  O  O225  1  0.86862709  0.75983383  0.00756606  1
  O  O226  1  0.88322336  0.75940068  0.51061211  1
  O  O227  1  0.13128161  0.24851404  0.48848157  1
  O  O228  1  0.12934078  0.23503834  0.99372373  1
  O  O229  1  0.13202245  0.75153950  0.49363856  1
  O  O230  1  0.12859707  0.73985230  0.99519837  1
  O  O231  1  0.63061317  0.24101803  0.49142033  1
  O  O232  1  0.62777136  0.23804288  0.99734654  1
  O  O233  1  0.62936771  0.74543812  0.49092935  1
  O  O234  1  0.63297220  0.74096148  1.00859181  1
  O  O235  1  0.51247481  0.30803102  0.15360878  1
  O  O236  1  0.49285127  0.24360384  0.62570419  1
  O  O237  1  0.49967347  0.74199853  0.13497165  1
  O  O238  1  0.49231705  0.75496754  0.62777588  1
  O  O239  1  0.99752776  0.24805006  0.12954241  1
  O  O240  1  1.00470654  0.24179285  0.63556331  1
  O  O241  1  0.99151606  0.74048865  0.12457190  1
  O  O242  1  0.99361504  0.74352186  0.63186340  1
  O  O243  1  0.00850157  0.25611924  0.36674937  1
  O  O244  1  -0.00162350  0.26122139  0.86224627  1
  O  O245  1  0.00949060  0.75068679  0.37389222  1
  O  O246  1  0.00236311  0.75371884  0.87004839  1
  O  O247  1  0.50779864  0.26343164  0.38020763  1
  O  O248  1  0.49702425  0.26584961  0.87158357  1
  O  O249  1  0.50887758  0.75532301  0.36910603  1
  O  O250  1  0.49530198  0.76565337  0.87989701  1
  O  O251  1  0.25058934  0.13205402  0.48791329  1
  O  O252  1  0.23894285  0.13069939  0.99512118  1
  O  O253  1  0.24837611  0.63231852  0.49491658  1
  O  O254  1  0.24302197  0.62856989  0.99418152  1
  O  O255  1  0.74013869  0.12416852  0.50489985  1
  O  O256  1  0.74568359  0.12256689  0.98707584  1
  O  O257  1  0.75042075  0.62552574  0.50729654  1
  O  O258  1  0.74246875  0.62833690  0.99760054  1
  O  O259  1  0.25612255  0.36305876  -0.00504352  1
  O  O260  1  0.25339725  0.36842512  0.50796914  1
  O  O261  1  0.25681450  0.86405476  -0.00460180  1
  O  O262  1  0.25732375  0.87115150  0.50488479  1
  O  O263  1  0.75879765  0.38177700  0.01339782  1
  O  O264  1  0.76178579  0.37429277  0.51217774  1
  O  O265  1  0.75791999  0.86702212  -0.00494319  1
  O  O266  1  0.76355353  0.88508917  0.50444802  1
  O  O267  1  0.14176857  0.50471307  0.25534488  1
  O  O268  1  0.13506614  0.49429022  0.74219934  1
  O  O269  1  0.12589818  0.99414291  0.24024470  1
  O  O270  1  0.13045179  0.99490081  0.74343311  1
  O  O271  1  0.62860278  0.49728236  0.23616146  1
  O  O272  1  0.64353991  0.50170484  0.74399836  1
  O  O273  1  0.63094194  0.99544325  0.24471224  1
  O  O274  1  0.63571353  0.99456751  0.74710137  1
  O  O275  1  0.37506504  0.00117282  0.26057636  1
  O  O276  1  0.36493300  0.00867162  0.74817484  1
  O  O277  1  0.36774277  0.50509233  0.26548415  1
  O  O278  1  0.36360580  0.50443736  0.74990291  1
  O  O279  1  0.87013011  0.00862519  0.24692456  1
  O  O280  1  0.87092298  0.00793434  0.75685928  1
  O  O281  1  0.86984562  0.49508647  0.26561119  1
  O  O282  1  0.85768672  0.50114236  0.74259304  1
  O  O283  1  0.11136179  0.36891058  0.37995635  1
  O  O284  1  0.12230479  0.37970814  0.86351806  1
  O  O285  1  0.12436072  0.86450203  0.37022397  1
  O  O286  1  0.11692642  0.87037514  0.87019033  1
  O  O287  1  0.61964800  0.36111543  0.38207657  1
  O  O288  1  0.61441830  0.37625298  0.88117894  1
  O  O289  1  0.62041611  0.86628992  0.36519451  1
  O  O290  1  0.60823678  0.87714597  0.87912064  1
  O  O291  1  0.37350858  0.12170555  0.14058447  1
  O  O292  1  0.38266014  0.13138797  0.62925697  1
  O  O293  1  0.38241272  0.62618321  0.13292131  1
  O  O294  1  0.37161643  0.64333391  0.62818705  1
  O  O295  1  0.88300233  0.13286368  0.13203948  1
  O  O296  1  0.88813815  0.11916762  0.63334635  1
  O  O297  1  0.88472749  0.63726863  0.11934017  1
  O  O298  1  0.88433147  0.62963012  0.62313168  1
  O  O299  1  0.24333308  0.24589624  0.10254515  1
  O  O300  1  0.25588794  0.25342488  0.62058564  1
  O  O301  1  0.24739688  0.74254926  0.11377057  1
  O  O302  1  0.25312678  0.75766795  0.61859256  1
  O  O303  1  0.76014335  0.26459966  0.12674872  1
  O  O304  1  0.75284728  0.26327781  0.62282275  1
  O  O305  1  0.75912821  0.74471953  0.11152657  1
  O  O306  1  0.75664753  0.75642817  0.61053212  1
  O  O307  1  0.24489949  0.24708064  0.37798226  1
  O  O308  1  0.25007346  0.25009317  0.88774286  1
  O  O309  1  0.24513828  0.74599644  0.38344999  1
  O  O310  1  0.24360041  0.74293789  0.88179586  1
  O  O311  1  0.74180926  0.25690587  0.37903212  1
  O  O312  1  0.75387979  0.23474233  0.87134696  1
  O  O313  1  0.73799179  0.74981692  0.37112298  1
  O  O314  1  0.75384120  0.73500029  0.89056247  1
  O  O315  1  0.01092871  0.12077624  0.00067481  1
  O  O316  1  0.00004725  0.12036565  0.50722757  1
  O  O317  1  0.00720249  0.61761330  0.00452475  1
  O  O318  1  0.00543224  0.62189181  0.51470249  1
  O  O319  1  0.51558233  0.12553949  -0.00659281  1
  O  O320  1  0.50597984  0.12187185  0.50879454  1
  O  O321  1  0.50484794  0.61824146  0.00322876  1
  O  O322  1  0.49886621  0.61386520  0.49986486  1
  O  O323  1  0.49994062  0.38388934  0.49108637  1
  O  O324  1  0.49316308  0.38070290  0.99126321  1
  O  O325  1  0.49513705  0.88214543  0.49141599  1
  O  O326  1  0.48988367  0.87739962  0.99395896  1
  O  O327  1  0.99173457  0.37558256  0.49551882  1
  O  O328  1  1.00265012  0.38149741  0.98475557  1
  O  O329  1  0.98975134  0.88411792  0.50068256  1
  O  O330  1  0.99546056  0.88152171  0.99513709  1
  O  O331  1  0.49571929  0.49785208  0.38905723  1
  O  O332  1  0.50193218  0.49095176  0.88820884  1
  O  O333  1  0.49489785  0.99572933  0.37758125  1
  O  O334  1  0.49523987  0.99097946  0.88022448  1
  O  O335  1  0.99317830  0.49287232  0.37596367  1
  O  O336  1  1.00077007  0.48712875  0.87933883  1
  O  O337  1  1.00325249  1.00137151  0.38795742  1
  O  O338  1  0.99215854  0.99565622  0.88085685  1
  O  O339  1  0.00846153  0.00731311  0.11768488  1
  O  O340  1  0.00381882  0.00531793  0.61475737  1
  O  O341  1  -0.00155079  0.50683621  0.11764673  1
  O  O342  1  0.00853864  0.50594865  0.62905018  1
  O  O343  1  0.51756873  0.00023017  0.12268324  1
  O  O344  1  0.49979362  0.00682912  0.61706674  1
  O  O345  1  0.50783264  0.49876120  0.11566450  1
  O  O346  1  0.50416616  0.49728917  0.61070189  1
  O  O347  1  0.25643615  0.38918913  0.25143700  1
  O  O348  1  0.24578173  0.38144400  0.74721518  1
  O  O349  1  0.23574820  0.87895049  0.25418783  1
  O  O350  1  0.24478934  0.88233791  0.74539784  1
  O  O351  1  0.74629077  0.38672273  0.23688659  1
  O  O352  1  0.75133233  0.38065893  0.73911882  1
  O  O353  1  0.74106399  0.88398278  0.24921010  1
  O  O354  1  0.75793989  0.88661303  0.73853235  1
  O  O355  1  0.25782919  0.12328245  0.26054754  1
  O  O356  1  0.25940387  0.11550281  0.74135782  1
  O  O357  1  0.25710760  0.61867355  0.25864706  1
  O  O358  1  0.24912762  0.61837442  0.75925924  1
  O  O359  1  0.76246945  0.11920100  0.24366617  1
  O  O360  1  0.75652294  0.11400955  0.75561321  1
  O  O361  1  0.74608627  0.60425921  0.24059228  1
  O  O362  1  0.75518174  0.61253795  0.76677630  1
  O  O363  1  0.37021636  0.11962953  0.36950872  1
  O  O364  1  0.38068949  0.12531126  0.85997218  1
  O  O365  1  0.37112602  0.61934925  0.37132726  1
  O  O366  1  0.36252934  0.62404630  0.87401250  1
  O  O367  1  0.88276719  0.12378727  0.35947401  1
  O  O368  1  0.86526251  0.11919348  0.86968924  1
  O  O369  1  0.88088623  0.60743035  0.38219177  1
  O  O370  1  0.86666696  0.62393687  0.87944462  1
  O  O371  1  0.13107296  0.38053857  0.12030431  1
  O  O372  1  0.13009061  0.38206046  0.63345384  1
  O  O373  1  0.12067789  0.88425189  0.13067873  1
  O  O374  1  0.12922975  0.87998350  0.63122725  1
  O  O375  1  0.64388944  0.38492433  0.11609478  1
  O  O376  1  0.63748344  0.37532566  0.61869889  1
  O  O377  1  0.62131493  0.88119262  0.13596954  1
  O  O378  1  0.63929923  0.87949951  0.61541798  1
  O  O379  1  0.12002983  0.24537079  0.26006827  1
  O  O380  1  0.11757061  0.25932082  0.74681506  1
  O  O381  1  0.12491614  0.75580117  0.25743397  1
  O  O382  1  0.11778479  0.75627555  0.75655388  1
  O  O383  1  0.63479434  0.24448422  0.26557689  1
  O  O384  1  0.62553849  0.24617439  0.74900200  1
  O  O385  1  0.62344529  0.75615241  0.25506165  1
  O  O386  1  0.65032111  0.76712656  0.74242893  1
  O  O387  1  0.37381393  0.24073090  0.25077360  1
  O  O388  1  0.37598795  0.24338507  0.73937844  1
  O  O389  1  0.38087338  0.74355456  0.25100687  1
  O  O390  1  0.36846704  0.75143987  0.73569699  1
  O  O391  1  0.88383674  0.24545972  0.24329376  1
  O  O392  1  0.88541259  0.23532523  0.75021618  1
  O  O393  1  0.87524678  0.75890695  0.23581251  1
  O  O394  1  0.86942855  0.74460523  0.73360953  1
  O  O395  1  0.38224907  0.50129137  0.49132814  1
  O  O396  1  0.38340155  0.49583605  0.99761349  1
  O  O397  1  0.38079612  0.99778448  0.48850421  1
  O  O398  1  0.37329447  0.99417627  0.99904322  1
  O  O399  1  0.87854715  0.48646837  0.48997426  1
  O  O400  1  0.88584857  0.50499674  1.00123413  1
  O  O401  1  0.88346732  0.99453146  0.49658201  1
  O  O402  1  0.87809775  0.99586533  0.99916184  1
  O  O403  1  0.12227199  0.00814936  0.00427774  1
  O  O404  1  0.11894832  0.00118474  0.50533381  1
  O  O405  1  0.11923308  0.51132787  -0.00139292  1
  O  O406  1  0.12461200  0.50004379  0.51396993  1
  O  O407  1  0.62718503  0.00920238  0.00766836  1
  O  O408  1  0.61826481  0.00809132  0.49574869  1
  O  O409  1  0.61920747  0.50785819  0.01036691  1
  O  O410  1  0.61490956  0.50291855  0.50076165  1
  O  O411  1  0.35990950  0.38473970  0.10763243  1
  O  O412  1  0.36973019  0.36709226  0.62648153  1
  O  O413  1  0.37892170  0.87425458  0.11326954  1
  O  O414  1  0.37167229  0.86665991  0.61977250  1
  O  O415  1  0.86840217  0.36762336  0.12824163  1
  O  O416  1  0.87321012  0.37833494  0.61192911  1
  O  O417  1  0.88315467  0.86898551  0.11258426  1
  O  O418  1  0.86577264  0.86762162  0.61832859  1
  O  O419  1  0.13467513  0.13297419  0.37501326  1
  O  O420  1  0.12222924  0.11810373  0.88472753  1
  O  O421  1  0.13091097  0.63641846  0.37786827  1
  O  O422  1  0.13239357  0.62886343  0.88088714  1
  O  O423  1  0.61937104  0.14030438  0.38320633  1
  O  O424  1  0.63814244  0.11881132  0.88565750  1
  O  O425  1  0.62263637  0.63889179  0.36630929  1
  O  O426  1  0.63674652  0.61742098  0.89024201  1
