# generated using pymatgen
data_V85Zn86O256
_symmetry_space_group_name_H-M   'P 1'
_cell_length_a   16.93317050
_cell_length_b   16.93583910
_cell_length_c   16.94782259
_cell_angle_alpha   89.95574992
_cell_angle_beta   89.99056973
_cell_angle_gamma   89.96962007
_symmetry_Int_Tables_number   1
_chemical_formula_structural   V85Zn86O256
_chemical_formula_sum   'V85 Zn86 O256'
_cell_volume   4860.25116430
_cell_formula_units_Z   1
loop_
 _symmetry_equiv_pos_site_id
 _symmetry_equiv_pos_as_xyz
  1  'x, y, z'
loop_
 _atom_site_type_symbol
 _atom_site_label
 _atom_site_symmetry_multiplicity
 _atom_site_fract_x
 _atom_site_fract_y
 _atom_site_fract_z
 _atom_site_occupancy
  V  V0  1  0.00101092  0.12389486  0.12311536  1
  V  V1  1  0.87726348  0.25059491  0.12474794  1
  V  V2  1  0.12283791  0.74693893  0.36872812  1
  V  V3  1  0.00202039  0.62717572  0.13021245  1
  V  V4  1  0.49681119  0.89110932  0.37247187  1
  V  V5  1  0.05470615  0.81394980  0.92578070  1
  V  V6  1  0.36656491  0.13385678  0.75285074  1
  V  V7  1  0.49667610  0.24822824  0.23506664  1
  V  V8  1  0.12175952  -0.00046358  0.62577999  1
  V  V9  1  0.74288417  0.12998121  0.37440143  1
  V  V10  1  0.50810055  0.63232075  0.12168976  1
  V  V11  1  0.00210462  0.49998411  0.50241171  1
  V  V12  1  0.48966088  0.63166982  0.62766798  1
  V  V13  1  0.12982540  0.12458091  -0.00451531  1
  V  V14  1  -0.00027934  0.12906459  0.61852241  1
  V  V15  1  0.74059551  0.87347442  0.12742846  1
  V  V16  1  0.37060488  0.37591403  0.01238159  1
  V  V17  1  0.87443603  0.12626364  0.25087141  1
  V  V18  1  0.73578518  0.62116048  0.88026549  1
  V  V19  1  0.25509242  0.00207157  0.24690169  1
  V  V20  1  0.62429954  0.37484925  0.74897052  1
  V  V21  1  0.87318997  -0.00036600  0.37595582  1
  V  V22  1  0.00271833  0.50414507  -0.00023638  1
  V  V23  1  0.87636146  0.49960321  0.37651438  1
  V  V24  1  0.74446542  -0.00388433  0.25100199  1
  V  V25  1  0.37734785  0.12477355  0.22891150  1
  V  V26  1  0.87602064  0.86998256  0.50175315  1
  V  V27  1  0.25143650  0.62382885  0.37450311  1
  V  V28  1  0.31279930  0.06361688  0.42540740  1
  V  V29  1  0.86922429  0.87049237  -0.00363779  1
  V  V30  1  0.37363970  0.36519200  0.50110223  1
  V  V31  1  0.74010902  0.00044164  0.74922458  1
  V  V32  1  0.49687057  0.12183888  0.62470463  1
  V  V33  1  0.25290267  0.36519633  0.62446519  1
  V  V34  1  0.49328209  0.25403043  0.74169060  1
  V  V35  1  0.75075329  0.24587068  -0.00297373  1
  V  V36  1  0.00294233  0.75537703  0.74921052  1
  V  V37  1  0.62684776  0.36809808  0.25334408  1
  V  V38  1  0.49717697  0.76442953  0.75395172  1
  V  V39  1  0.38268557  0.63199070  0.24850187  1
  V  V40  1  -0.00326903  0.86846738  0.36290690  1
  V  V41  1  0.87800436  0.37579243  -0.00113275  1
  V  V42  1  -0.00366224  0.62356839  0.63232430  1
  V  V43  1  0.73626716  0.74277016  0.00242138  1
  V  V44  1  0.87702401  0.36941046  0.50413399  1
  V  V45  1  0.00096918  -0.00057502  -0.00340668  1
  V  V46  1  0.12945740  0.37906731  0.74950084  1
  V  V47  1  0.13400608  0.50160589  0.62625511  1
  V  V48  1  0.61806373  0.00872186  0.12459017  1
  V  V49  1  0.50443729  0.36732715  0.37466906  1
  V  V50  1  0.13307150  0.37314214  0.24558173  1
  V  V51  1  0.75373653  0.50830003  0.74758069  1
  V  V52  1  0.62419010  0.50040626  0.62381172  1
  V  V53  1  0.75380700  0.36870871  0.62786610  1
  V  V54  1  0.25440699  0.87046131  0.62616024  1
  V  V55  1  0.13326966  0.24815890  0.87307426  1
  V  V56  1  0.74613627  0.25092991  0.49804976  1
  V  V57  1  0.87087288  0.74631986  0.63749741  1
  V  V58  1  0.00315361  0.00025336  0.49893839  1
  V  V59  1  0.25781561  0.74934281  0.50188052  1
  V  V60  1  0.24269983  0.64508224  0.87480525  1
  V  V61  1  0.87437361  0.12746594  0.74497163  1
  V  V62  1  0.62214337  0.11932628  0.50126636  1
  V  V63  1  0.37652970  0.86905412  -0.01071242  1
  V  V64  1  0.75098595  0.37614190  0.12557953  1
  V  V65  1  0.62443950  0.62960019  0.49942816  1
  V  V66  1  0.38617109  0.00170778  0.87160849  1
  V  V67  1  0.74950309  0.50002234  0.25099102  1
  V  V68  1  0.24611297  0.00223733  0.75896530  1
  V  V69  1  -0.00224306  0.25030209  0.74785761  1
  V  V70  1  0.87713614  0.50596560  0.86976554  1
  V  V71  1  0.61593955  0.75524313  0.36022845  1
  V  V72  1  0.13226457  0.23925491  0.37951058  1
  V  V73  1  0.49594413  0.37557738  0.87472052  1
  V  V74  1  0.00273817  0.25140910  0.25185936  1
  V  V75  1  0.74166349  0.87579508  0.62537784  1
  V  V76  1  0.87894571  0.63260171  0.25301215  1
  V  V77  1  0.87717789  -0.00153251  0.87216136  1
  V  V78  1  0.25498538  0.49701553  0.23705208  1
  V  V79  1  0.50503369  0.50592474  -0.00279650  1
  V  V80  1  0.36019109  0.50054612  0.86875485  1
  V  V81  1  0.37511903  0.49732723  0.37250732  1
  V  V82  1  0.49911071  0.49809407  0.49921453  1
  V  V83  1  0.25275639  0.25241394  0.01456269  1
  V  V84  1  0.37050315  0.75239596  0.12272366  1
  Zn  Zn85  1  0.36493779  0.62669626  0.74530013  1
  Zn  Zn86  1  0.00466719  0.37377229  0.37622969  1
  Zn  Zn87  1  0.74793122  0.62801792  0.37655878  1
  Zn  Zn88  1  0.38049097  0.88272854  0.49884669  1
  Zn  Zn89  1  0.12532711  0.62687534  0.50082739  1
  Zn  Zn90  1  0.12963698  0.49926318  0.12177115  1
  Zn  Zn91  1  0.12306839  0.87283393  0.75438851  1
  Zn  Zn92  1  0.49446858  0.00542084  0.00334863  1
  Zn  Zn93  1  0.62804103  0.50455213  0.11831232  1
  Zn  Zn94  1  0.25194747  0.87365071  0.12348633  1
  Zn  Zn95  1  0.13240896  0.87741114  0.25234253  1
  Zn  Zn96  1  0.00181503  0.37607613  0.87312442  1
  Zn  Zn97  1  0.61242578  0.76675115  0.87578425  1
  Zn  Zn98  1  0.24969172  0.23938553  0.49782861  1
  Zn  Zn99  1  0.12952259  0.63564931  0.00011249  1
  Zn  Zn100  1  0.74826431  0.12833479  0.87315350  1
  Zn  Zn101  1  0.60986750  0.13349439  0.00034836  1
  Zn  Zn102  1  0.87298170  0.75175058  0.12991571  1
  Zn  Zn103  1  0.62361284  0.24983488  0.87446508  1
  Zn  Zn104  1  0.12680726  -0.00175214  0.12601844  1
  Zn  Zn105  1  0.74926126  0.74769133  0.50059249  1
  Zn  Zn106  1  0.61716770  -0.00583447  0.62497166  1
  Zn  Zn107  1  0.18904620  0.18159420  0.18962000  1
  Zn  Zn108  1  0.18274775  0.18615381  0.68390999  1
  Zn  Zn109  1  0.19068580  0.68447711  0.18815575  1
  Zn  Zn110  1  0.18618553  0.68731138  0.69146861  1
  Zn  Zn111  1  0.68685868  0.18921955  0.18659586  1
  Zn  Zn112  1  0.68420363  0.18868794  0.68669478  1
  Zn  Zn113  1  0.68920589  0.68466519  0.18883772  1
  Zn  Zn114  1  0.68060028  0.68941392  0.68926240  1
  Zn  Zn115  1  0.31404430  0.30761900  0.30925694  1
  Zn  Zn116  1  0.31022450  0.31525115  0.81536885  1
  Zn  Zn117  1  0.31927407  0.81440413  0.31546330  1
  Zn  Zn118  1  0.31839304  0.81221810  0.80599608  1
  Zn  Zn119  1  0.81477398  0.31294490  0.31594093  1
  Zn  Zn120  1  0.81600022  0.31543695  0.81268458  1
  Zn  Zn121  1  0.80343324  0.81174249  0.31706693  1
  Zn  Zn122  1  0.77095412  0.83138086  0.83061688  1
  Zn  Zn123  1  0.18820096  0.43359052  0.43356134  1
  Zn  Zn124  1  0.18586036  0.43377281  0.93944691  1
  Zn  Zn125  1  0.18264762  0.93063799  0.43930923  1
  Zn  Zn126  1  0.19794339  0.93997855  0.94293905  1
  Zn  Zn127  1  0.68734932  0.43907845  0.43696975  1
  Zn  Zn128  1  0.68700123  0.43370558  0.93498130  1
  Zn  Zn129  1  0.68348677  0.93493221  0.43783467  1
  Zn  Zn130  1  0.68297085  0.94152777  0.94042256  1
  Zn  Zn131  1  0.31160868  0.06184267  0.05759832  1
  Zn  Zn132  1  0.31162911  0.06373939  0.58566086  1
  Zn  Zn133  1  0.31689202  0.56886685  0.05506331  1
  Zn  Zn134  1  0.31143032  0.55716760  0.55766757  1
  Zn  Zn135  1  0.81258928  0.06030614  0.06327322  1
  Zn  Zn136  1  0.81343753  0.06171217  0.56366634  1
  Zn  Zn137  1  0.81521094  0.56380247  0.06374594  1
  Zn  Zn138  1  0.81281663  0.56218617  0.56299528  1
  Zn  Zn139  1  0.44306411  0.44222648  0.18603014  1
  Zn  Zn140  1  0.43333663  0.44137203  0.68618679  1
  Zn  Zn141  1  0.43818590  0.93168868  0.19600287  1
  Zn  Zn142  1  0.43268064  0.94108851  0.68637091  1
  Zn  Zn143  1  0.94149679  0.43924712  0.18843445  1
  Zn  Zn144  1  0.93917636  0.43665411  0.68715736  1
  Zn  Zn145  1  0.93153671  0.94012558  0.18361106  1
  Zn  Zn146  1  0.93288540  0.93454720  0.68856532  1
  Zn  Zn147  1  0.06428804  0.06042530  0.31186509  1
  Zn  Zn148  1  0.06082743  0.06229845  0.81288975  1
  Zn  Zn149  1  0.06558281  0.55901164  0.31253254  1
  Zn  Zn150  1  0.06710692  0.56675900  0.81151097  1
  Zn  Zn151  1  0.56032644  0.06644704  0.30874768  1
  Zn  Zn152  1  0.56253663  0.07126365  0.81529315  1
  Zn  Zn153  1  0.56295156  0.56207084  0.31220977  1
  Zn  Zn154  1  0.55968755  0.56125941  0.80974718  1
  Zn  Zn155  1  0.44581282  0.19094605  0.43426984  1
  Zn  Zn156  1  0.43309059  0.18730936  0.93768082  1
  Zn  Zn157  1  0.43889358  0.68935686  0.43723971  1
  Zn  Zn158  1  0.43500250  0.68646919  0.93391715  1
  Zn  Zn159  1  0.93691704  0.18871180  0.43609426  1
  Zn  Zn160  1  0.94035319  0.18733069  0.93204254  1
  Zn  Zn161  1  0.93920198  0.68678867  0.44209477  1
  Zn  Zn162  1  0.92554816  0.68198026  0.94087931  1
  Zn  Zn163  1  0.06523034  0.31357335  0.06396863  1
  Zn  Zn164  1  0.06534573  0.31171013  0.56186522  1
  Zn  Zn165  1  0.06035445  0.81087209  0.09063494  1
  Zn  Zn166  1  0.06584973  0.81116110  0.56001326  1
  Zn  Zn167  1  0.56495000  0.31971190  0.06074738  1
  Zn  Zn168  1  0.56509479  0.30872461  0.56184999  1
  Zn  Zn169  1  0.55524861  0.81876477  0.06429971  1
  Zn  Zn170  1  0.55653557  0.81217546  0.55868790  1
  O  O171  1  0.11741533  0.12558272  0.11293570  1
  O  O172  1  0.11381285  0.11005085  0.62665630  1
  O  O173  1  0.11799331  0.62326756  0.12057192  1
  O  O174  1  0.11865745  0.61596895  0.62410278  1
  O  O175  1  0.63244009  0.11275455  0.12065412  1
  O  O176  1  0.61633864  0.12494282  0.61828598  1
  O  O177  1  0.61319523  0.62267708  0.12907467  1
  O  O178  1  0.61604793  0.61803894  0.61777847  1
  O  O179  1  0.38278373  0.37893274  0.37958609  1
  O  O180  1  0.37814491  0.38545802  0.88050628  1
  O  O181  1  0.38962000  0.87572760  0.38029181  1
  O  O182  1  0.37115668  0.88273178  0.88293960  1
  O  O183  1  0.87767318  0.38594797  0.38299215  1
  O  O184  1  0.87851553  0.38589022  0.88314031  1
  O  O185  1  0.87843898  0.87801138  0.38205064  1
  O  O186  1  0.86500960  0.88317370  0.88816007  1
  O  O187  1  0.24743270  0.00282424  0.37152783  1
  O  O188  1  0.25516046  -0.00103951  0.86169344  1
  O  O189  1  0.25781846  0.50552905  0.36921566  1
  O  O190  1  0.25966024  0.49580594  0.87541569  1
  O  O191  1  0.75315463  0.00458389  0.36826304  1
  O  O192  1  0.76228128  0.00679023  0.86709592  1
  O  O193  1  0.75943123  0.50145564  0.36907472  1
  O  O194  1  0.75538566  0.50165216  0.86796101  1
  O  O195  1  0.25255840  0.50729860  0.13434779  1
  O  O196  1  0.23796460  0.49085718  0.62023062  1
  O  O197  1  0.24879636  1.00049709  0.13382067  1
  O  O198  1  0.23771565  0.99293228  0.63533442  1
  O  O199  1  0.75126178  0.49436848  0.13344092  1
  O  O200  1  0.74619075  0.49214300  0.63155309  1
  O  O201  1  0.74512037  0.99363100  0.13223348  1
  O  O202  1  0.74895091  0.99333581  0.63141677  1
  O  O203  1  0.00667631  0.36692178  0.25205926  1
  O  O204  1  0.00965464  0.36583031  0.74718010  1
  O  O205  1  -0.00449236  0.88059496  0.26104216  1
  O  O206  1  0.00025342  0.86368087  0.74805567  1
  O  O207  1  0.50820546  0.37300782  0.25537358  1
  O  O208  1  0.50144189  0.37256223  0.75374189  1
  O  O209  1  0.50057365  0.87368590  0.27083074  1
  O  O210  1  0.49719157  0.86300831  0.73993850  1
  O  O211  1  0.48956086  0.13492313  0.25003075  1
  O  O212  1  0.49342695  0.13702886  0.74431808  1
  O  O213  1  0.49055963  0.61430342  0.23812030  1
  O  O214  1  0.49566581  0.61973589  0.73384977  1
  O  O215  1  0.99438200  0.13024727  0.24417618  1
  O  O216  1  0.99491428  0.13127666  0.74121437  1
  O  O217  1  0.99035017  0.61283315  0.24318218  1
  O  O218  1  1.00193658  0.63234634  0.73869937  1
  O  O219  1  0.35871463  0.25936047  -0.00747271  1
  O  O220  1  0.37336595  0.26233943  0.49370477  1
  O  O221  1  0.37996028  0.76252907  0.00382055  1
  O  O222  1  0.36047029  0.74813298  0.49751942  1
  O  O223  1  0.87350741  0.25889863  0.00229037  1
  O  O224  1  0.86665075  0.26300357  0.49562216  1
  O  O225  1  0.86289385  0.75676096  0.00357477  1
  O  O226  1  0.87260714  0.75680291  0.50811323  1
  O  O227  1  0.12598439  0.25401917  0.48359975  1
  O  O228  1  0.13261081  0.24739973  0.99390901  1
  O  O229  1  0.13363182  0.74897672  0.48741068  1
  O  O230  1  0.10752153  0.75841058  0.99273505  1
  O  O231  1  0.63982627  0.24158914  0.50280139  1
  O  O232  1  0.63713335  0.25422390  0.99915190  1
  O  O233  1  0.62477986  0.73639947  0.49999147  1
  O  O234  1  0.63345542  0.75764040  0.99845643  1
  O  O235  1  0.50317525  0.25985138  0.13623718  1
  O  O236  1  0.50205710  0.24620454  0.63650281  1
  O  O237  1  0.48981225  0.74071447  0.12004458  1
  O  O238  1  0.50192764  0.73532954  0.63063697  1
  O  O239  1  0.99559275  0.24459239  0.13113126  1
  O  O240  1  1.00832743  0.23888129  0.63225122  1
  O  O241  1  0.99070482  0.73336037  0.12860481  1
  O  O242  1  0.99469473  0.74317150  0.62975728  1
  O  O243  1  0.00705575  0.25157439  0.36764638  1
  O  O244  1  0.01058433  0.25327808  0.86594946  1
  O  O245  1  0.00717720  0.75777710  0.38003874  1
  O  O246  1  -0.00607516  0.74979972  0.87003362  1
  O  O247  1  0.50087893  0.26373668  0.36342852  1
  O  O248  1  0.49591134  0.26499778  0.86561636  1
  O  O249  1  0.51373387  0.74814072  0.37535535  1
  O  O250  1  0.49832018  0.74890707  0.86103852  1
  O  O251  1  0.25958384  0.12101037  0.49383388  1
  O  O252  1  0.24157781  0.13869560  1.00102105  1
  O  O253  1  0.24789187  0.62946907  0.49287427  1
  O  O254  1  0.24639577  0.62259652  0.98290692  1
  O  O255  1  0.74886149  0.13339657  0.49503946  1
  O  O256  1  0.75736565  0.14048324  1.00023651  1
  O  O257  1  0.73903420  0.62341614  0.49896529  1
  O  O258  1  0.74997090  0.63032091  0.99556494  1
  O  O259  1  0.25506631  0.36367955  -0.00034191  1
  O  O260  1  0.25871978  0.37394648  0.50565787  1
  O  O261  1  0.26977247  0.87941365  0.00616519  1
  O  O262  1  0.25142470  0.86658076  0.50640446  1
  O  O263  1  0.76161053  0.37009278  0.00348824  1
  O  O264  1  0.75448112  0.36974493  0.50590077  1
  O  O265  1  0.75546562  0.86843095  0.01034945  1
  O  O266  1  0.76152483  0.87567707  0.50664098  1
  O  O267  1  0.13752281  0.49209311  0.24886971  1
  O  O268  1  0.11779190  0.48910770  0.73997476  1
  O  O269  1  0.13856982  1.00263405  0.24881532  1
  O  O270  1  0.12819319  0.99726043  0.74467982  1
  O  O271  1  0.63896661  0.49287779  0.25180837  1
  O  O272  1  0.63266876  0.49329790  0.74394312  1
  O  O273  1  0.63806820  1.00876417  0.24030332  1
  O  O274  1  0.63771106  1.00837252  0.74775710  1
  O  O275  1  0.37273354  0.01592717  0.24576196  1
  O  O276  1  0.36475103  0.00793095  0.75413371  1
  O  O277  1  0.37069717  0.50496704  0.25416979  1
  O  O278  1  0.37594722  0.50211785  0.76563796  1
  O  O279  1  0.86479537  0.00802587  0.25452834  1
  O  O280  1  0.87166164  0.00844337  0.75602041  1
  O  O281  1  0.86700258  0.50159532  0.25880813  1
  O  O282  1  0.86638951  0.49269375  0.75802227  1
  O  O283  1  0.12333568  0.36721815  0.36231230  1
  O  O284  1  0.12220418  0.36912923  0.86519493  1
  O  O285  1  0.11351723  0.86722861  0.37136732  1
  O  O286  1  0.12054537  0.87600840  0.87810187  1
  O  O287  1  0.61753668  0.38053447  0.36613892  1
  O  O288  1  0.61383911  0.37446949  0.86664126  1
  O  O289  1  0.61668344  0.86147042  0.38138705  1
  O  O290  1  0.66406611  0.86669300  0.86324342  1
  O  O291  1  0.37621890  0.12680081  0.13056179  1
  O  O292  1  0.38389809  0.12972460  0.64002844  1
  O  O293  1  0.38332022  0.63087286  0.12974827  1
  O  O294  1  0.38670696  0.61540214  0.62365435  1
  O  O295  1  0.88057510  0.13086476  0.13005546  1
  O  O296  1  0.88414455  0.12091785  0.63674569  1
  O  O297  1  0.88115694  0.62424861  0.13707479  1
  O  O298  1  0.88326174  0.63346905  0.62036476  1
  O  O299  1  0.24510061  0.25048504  0.11290288  1
  O  O300  1  0.24028791  0.26091610  0.61646714  1
  O  O301  1  0.26561564  0.74757984  0.12681501  1
  O  O302  1  0.23943912  0.75899612  0.61617482  1
  O  O303  1  0.75800788  0.25699728  0.11864240  1
  O  O304  1  0.74850209  0.26264540  0.61950532  1
  O  O305  1  0.75005958  0.75597199  0.12081982  1
  O  O306  1  0.75492046  0.75587939  0.62626118  1
  O  O307  1  0.23675744  0.25122136  0.37589831  1
  O  O308  1  0.23611093  0.25308794  0.88025657  1
  O  O309  1  0.24556225  0.74342639  0.38090869  1
  O  O310  1  0.25191206  0.74369160  0.87404075  1
  O  O311  1  0.75468210  0.24163933  0.38440405  1
  O  O312  1  0.75098263  0.25250927  0.88366620  1
  O  O313  1  0.73402000  0.74818807  0.38139015  1
  O  O314  1  0.75310900  0.73227611  0.88683600  1
  O  O315  1  0.00560100  0.12121229  0.00443153  1
  O  O316  1  -0.01026769  0.11617437  0.51026991  1
  O  O317  1  0.00003620  0.61798979  0.00717730  1
  O  O318  1  0.00271708  0.61736829  0.51199370  1
  O  O319  1  0.49718227  0.11895730  -0.00430874  1
  O  O320  1  0.51085191  0.13692540  0.51076416  1
  O  O321  1  0.49341131  0.61635893  0.00672493  1
  O  O322  1  0.50379329  0.62046158  0.51000186  1
  O  O323  1  0.49615440  0.37558439  0.49325766  1
  O  O324  1  0.49094371  0.37951492  0.99053132  1
  O  O325  1  0.49577022  0.87025860  0.48605531  1
  O  O326  1  0.48260355  0.88656915  1.00364381  1
  O  O327  1  0.99177274  0.38040181  0.50154506  1
  O  O328  1  0.99050830  0.38071720  1.00015258  1
  O  O329  1  0.99038562  0.88009817  0.49396213  1
  O  O330  1  0.99559805  0.87243960  0.99501304  1
  O  O331  1  0.49501016  0.49054789  0.37959390  1
  O  O332  1  0.49146793  0.49256944  0.87833664  1
  O  O333  1  0.51113639  0.99062173  0.37725651  1
  O  O334  1  0.48826048  0.99929062  0.86668752  1
  O  O335  1  0.99374952  0.49783545  0.38408866  1
  O  O336  1  0.99347562  0.50122218  0.88021451  1
  O  O337  1  0.99366264  0.99403525  0.38183766  1
  O  O338  1  0.98609531  1.00324179  0.88003437  1
  O  O339  1  0.00057866  0.00592006  0.11559631  1
  O  O340  1  0.00273408  0.00375933  0.61861771  1
  O  O341  1  -0.00007009  0.50950395  0.11655749  1
  O  O342  1  0.00639161  0.50599501  0.62089902  1
  O  O343  1  0.51768635  -0.00540072  0.13242538  1
  O  O344  1  0.50071077  0.01621369  0.63062572  1
  O  O345  1  0.50215130  0.50978577  0.11321753  1
  O  O346  1  0.50534794  0.50489946  0.61735779  1
  O  O347  1  0.24631758  0.38446085  0.25361354  1
  O  O348  1  0.23788241  0.36898363  0.74079241  1
  O  O349  1  0.25779295  0.89102495  0.25208627  1
  O  O350  1  0.24599235  0.88128563  0.74313926  1
  O  O351  1  0.74573197  0.37938702  0.24805477  1
  O  O352  1  0.74674566  0.38102551  0.74282020  1
  O  O353  1  0.75715310  0.88594765  0.24197740  1
  O  O354  1  0.76569762  0.89027651  0.73330275  1
  O  O355  1  0.26584377  0.11813082  0.24754092  1
  O  O356  1  0.25540513  0.11702628  0.74100616  1
  O  O357  1  0.26011912  0.61551703  0.25605796  1
  O  O358  1  0.24945346  0.62753550  0.76581907  1
  O  O359  1  0.75456116  0.12240450  0.25794726  1
  O  O360  1  0.75933084  0.12085201  0.74628228  1
  O  O361  1  0.75848022  0.61451205  0.25314229  1
  O  O362  1  0.74515306  0.61236439  0.75546019  1
  O  O363  1  0.37642981  0.12262816  0.37180669  1
  O  O364  1  0.37478237  0.11787490  0.86020137  1
  O  O365  1  0.37405923  0.61877401  0.36652721  1
  O  O366  1  0.36235454  0.61390082  0.87496568  1
  O  O367  1  0.86499123  0.11838014  0.37208436  1
  O  O368  1  0.87482643  0.11971743  0.86178760  1
  O  O369  1  0.87553016  0.61411780  0.37239483  1
  O  O370  1  0.86273225  0.60935773  0.87807530  1
  O  O371  1  0.12115362  0.37832301  0.14015486  1
  O  O372  1  0.13117319  0.38111827  0.63032327  1
  O  O373  1  0.13275121  0.87918719  0.13510558  1
  O  O374  1  0.13017098  0.88574864  0.62484471  1
  O  O375  1  0.63381668  0.38191331  0.13440968  1
  O  O376  1  0.63274904  0.38146060  0.62761584  1
  O  O377  1  0.63603095  0.88484240  0.12282545  1
  O  O378  1  0.63720899  0.87516915  0.61655228  1
  O  O379  1  0.12279105  0.25407265  0.25595904  1
  O  O380  1  0.11724856  0.25349418  0.75571839  1
  O  O381  1  0.13290929  0.75131166  0.26430964  1
  O  O382  1  0.10904902  0.75304024  0.74825624  1
  O  O383  1  0.62073455  0.26215177  0.24726075  1
  O  O384  1  0.61520152  0.25863741  0.75100306  1
  O  O385  1  0.62770898  0.74803975  0.26218695  1
  O  O386  1  0.60299206  0.74130790  0.75295452  1
  O  O387  1  0.38243772  0.23646772  0.25063828  1
  O  O388  1  0.37997072  0.24629112  0.75474861  1
  O  O389  1  0.37239577  0.73718994  0.24396562  1
  O  O390  1  0.38997771  0.74329794  0.74767463  1
  O  O391  1  0.88153096  0.24580307  0.24608534  1
  O  O392  1  0.88895939  0.24468768  0.75428892  1
  O  O393  1  0.86792615  0.73515699  0.25506746  1
  O  O394  1  0.88277499  0.75214314  0.73802208  1
  O  O395  1  0.38129191  0.48908424  0.49172251  1
  O  O396  1  0.38217031  0.49334728  0.98891095  1
  O  O397  1  0.36435328  1.00694890  0.49339728  1
  O  O398  1  0.37239145  0.99543996  0.98593938  1
  O  O399  1  0.87965756  0.49168306  0.49438529  1
  O  O400  1  0.88394188  0.49394022  0.99465914  1
  O  O401  1  0.88310387  0.99144731  0.49646208  1
  O  O402  1  0.88007908  0.99294963  0.99341420  1
  O  O403  1  0.12055077  0.00895129  -0.00141148  1
  O  O404  1  0.10981059  -0.00528793  0.50631270  1
  O  O405  1  0.11110963  0.49601129  0.00115804  1
  O  O406  1  0.11750568  0.49762935  0.50714473  1
  O  O407  1  0.62610132  0.00410410  0.01446682  1
  O  O408  1  0.63440516  0.01598490  0.50424582  1
  O  O409  1  0.60956100  0.49097670  -0.00153587  1
  O  O410  1  0.61855177  0.50883161  0.50242782  1
  O  O411  1  0.37930803  0.38195698  0.11130358  1
  O  O412  1  0.36340690  0.38193964  0.61580488  1
  O  O413  1  0.37641806  0.86651679  0.12010691  1
  O  O414  1  0.35849872  0.88398421  0.61888264  1
  O  O415  1  0.87191398  0.37109699  0.11838524  1
  O  O416  1  0.86607541  0.38103199  0.61562295  1
  O  O417  1  0.86591082  0.87450050  0.11402923  1
  O  O418  1  0.86962666  0.86622330  0.61603946  1
  O  O419  1  0.12067562  0.14055672  0.37191622  1
  O  O420  1  0.11819273  0.13290962  0.88703317  1
  O  O421  1  0.13122528  0.62971749  0.37651946  1
  O  O422  1  0.13764074  0.62546412  0.87923349  1
  O  O423  1  0.63664900  0.12347375  0.38143741  1
  O  O424  1  0.63103668  0.13236079  0.88108885  1
  O  O425  1  0.62370043  0.63242351  0.38216442  1
  O  O426  1  0.63427221  0.62067564  0.87458879  1
