# generated using pymatgen
data_V85Zn86O256
_symmetry_space_group_name_H-M   'P 1'
_cell_length_a   16.92971340
_cell_length_b   16.94114543
_cell_length_c   16.93943214
_cell_angle_alpha   90.00652810
_cell_angle_beta   89.91203358
_cell_angle_gamma   90.03973854
_symmetry_Int_Tables_number   1
_chemical_formula_structural   V85Zn86O256
_chemical_formula_sum   'V85 Zn86 O256'
_cell_volume   4858.37020898
_cell_formula_units_Z   1
loop_
 _symmetry_equiv_pos_site_id
 _symmetry_equiv_pos_as_xyz
  1  'x, y, z'
loop_
 _atom_site_type_symbol
 _atom_site_label
 _atom_site_symmetry_multiplicity
 _atom_site_fract_x
 _atom_site_fract_y
 _atom_site_fract_z
 _atom_site_occupancy
  V  V0  1  0.00113453  0.37670660  0.37326449  1
  V  V1  1  0.87393791  0.74702801  0.11994233  1
  V  V2  1  0.50261248  0.13211000  0.63003027  1
  V  V3  1  0.25041002  -0.00094823  0.74402692  1
  V  V4  1  0.12408303  0.37740110  0.25036583  1
  V  V5  1  0.36610394  0.76456473  0.62454497  1
  V  V6  1  0.12621028  0.87555310  0.24666499  1
  V  V7  1  0.75178859  0.24937993  0.50301310  1
  V  V8  1  -0.00190723  0.13297628  0.11985542  1
  V  V9  1  0.62281432  0.49860614  0.62862775  1
  V  V10  1  0.25247141  0.63572071  0.37241062  1
  V  V11  1  0.61986707  0.37724323  0.25281131  1
  V  V12  1  0.00106154  0.50566536  0.50779898  1
  V  V13  1  0.62643110  -0.00178639  0.12246774  1
  V  V14  1  0.75475403  0.37085936  0.12578480  1
  V  V15  1  0.88495275  0.50172284  0.87929920  1
  V  V16  1  0.37766551  0.13229101  0.75243015  1
  V  V17  1  0.49069700  0.74597663  0.25225323  1
  V  V18  1  0.13123202  0.87375848  0.74699312  1
  V  V19  1  0.62456371  0.50103732  0.12612733  1
  V  V20  1  0.87198496  0.87011993  -0.00262681  1
  V  V21  1  0.87959750  0.62658675  0.24933981  1
  V  V22  1  0.87517821  -0.00013991  0.37491460  1
  V  V23  1  0.50162736  0.12676595  0.12716053  1
  V  V24  1  0.62156385  0.62577712  0.50118789  1
  V  V25  1  0.37424349  0.88339690  0.48083501  1
  V  V26  1  0.50189729  0.49797129  0.00014847  1
  V  V27  1  0.37492505  0.49075448  0.37954057  1
  V  V28  1  0.12452912  0.50211682  0.11170865  1
  V  V29  1  0.87390436  0.87944723  0.50018568  1
  V  V30  1  0.24918829  0.48801343  0.73899539  1
  V  V31  1  0.62516315  0.25635076  0.37927786  1
  V  V32  1  0.75076247  0.86915383  0.12100725  1
  V  V33  1  0.62940916  0.75141400  0.87635258  1
  V  V34  1  0.49681437  0.25349059  0.25845433  1
  V  V35  1  0.37292971  0.24884587  0.12994868  1
  V  V36  1  0.12738847  0.00547094  0.12267834  1
  V  V37  1  0.25310998  0.50274955  0.25317983  1
  V  V38  1  0.49789682  0.62738019  0.62371883  1
  V  V39  1  0.74369675  0.37342763  0.63404622  1
  V  V40  1  0.74372772  0.50091440  0.75656704  1
  V  V41  1  0.00425473  0.00295748  -0.00078175  1
  V  V42  1  0.62998572  0.63059508  0.00190043  1
  V  V43  1  0.49297436  -0.00619876  0.00348123  1
  V  V44  1  0.74745343  0.75409788  0.49987737  1
  V  V45  1  0.87380635  0.37719469  0.50050414  1
  V  V46  1  0.50348767  0.37021142  0.86333838  1
  V  V47  1  0.88212307  0.37718237  0.00162281  1
  V  V48  1  0.88482912  0.12517734  0.75146738  1
  V  V49  1  0.88088206  0.62555234  0.74361260  1
  V  V50  1  0.00617722  0.62358483  0.10822488  1
  V  V51  1  0.49541134  0.48761941  0.49812429  1
  V  V52  1  0.62540656  0.12607143  -0.00150830  1
  V  V53  1  0.87693057  0.50322096  0.37488588  1
  V  V54  1  0.50355237  0.87464137  0.87523039  1
  V  V55  1  0.11904068  0.24329183  0.87368146  1
  V  V56  1  0.74408401  0.87454691  0.62613747  1
  V  V57  1  0.62410621  0.00041568  0.62748740  1
  V  V58  1  0.75115779  0.62588404  0.37592945  1
  V  V59  1  0.75356243  0.24960256  0.00194254  1
  V  V60  1  0.87483312  -0.00027947  0.87465869  1
  V  V61  1  0.62011893  0.87256369  0.25108699  1
  V  V62  1  0.75035967  0.50107218  0.25140891  1
  V  V63  1  0.00296150  0.87338233  0.37780029  1
  V  V64  1  0.37425919  0.37202605  0.00184235  1
  V  V65  1  0.12256829  0.63532186  0.50270581  1
  V  V66  1  0.75043327  -0.00126609  0.24845708  1
  V  V67  1  0.50398904  0.75587369  0.74859687  1
  V  V68  1  0.88574490  0.25389146  0.63385835  1
  V  V69  1  0.48920849  0.62282037  0.12843532  1
  V  V70  1  0.25664467  0.00578460  0.25676399  1
  V  V71  1  0.12028874  0.23064242  0.37716854  1
  V  V72  1  0.87215053  0.13349322  0.24239939  1
  V  V73  1  0.37110446  0.25982534  0.62061049  1
  V  V74  1  0.36995002  0.62667096  0.74827959  1
  V  V75  1  0.12546115  -0.00173528  0.61189202  1
  V  V76  1  0.00587781  0.74906788  0.25090876  1
  V  V77  1  0.37521909  0.49816338  0.87415200  1
  V  V78  1  0.37198256  -0.00423963  0.87560171  1
  V  V79  1  0.62275293  0.25274602  0.86486429  1
  V  V80  1  0.74928321  -0.00407784  0.75197236  1
  V  V81  1  0.00382378  0.11949258  0.61018850  1
  V  V82  1  0.00231210  0.87210512  0.87015621  1
  V  V83  1  0.24049499  0.62259745  0.88143776  1
  V  V84  1  0.61849765  0.75118394  0.37506837  1
  Zn  Zn85  1  0.24513606  0.75770636  0.50000814  1
  Zn  Zn86  1  0.75061690  0.12726488  0.87300643  1
  Zn  Zn87  1  0.24312366  0.23838832  0.00408162  1
  Zn  Zn88  1  0.23693112  0.25427678  0.51499708  1
  Zn  Zn89  1  -0.00681416  0.25442230  0.24299041  1
  Zn  Zn90  1  0.37377660  0.75564269  0.11749068  1
  Zn  Zn91  1  0.25010954  0.37428205  0.12779668  1
  Zn  Zn92  1  0.12405343  0.74570162  0.87922757  1
  Zn  Zn93  1  0.24851897  0.75813418  0.00390682  1
  Zn  Zn94  1  0.27005836  0.11942968  0.39712413  1
  Zn  Zn95  1  0.87784468  0.74758217  0.62252769  1
  Zn  Zn96  1  0.00785022  0.74340167  0.74078881  1
  Zn  Zn97  1  0.75229970  0.62887185  0.87942601  1
  Zn  Zn98  1  0.62222820  0.12549538  0.49787253  1
  Zn  Zn99  1  0.75183511  0.12754737  0.37501133  1
  Zn  Zn100  1  0.26929552  0.87992189  0.11368322  1
  Zn  Zn101  1  0.37751418  0.12338181  0.25876171  1
  Zn  Zn102  1  0.48842560  0.00391426  0.48763617  1
  Zn  Zn103  1  0.11067228  0.35829796  0.73496850  1
  Zn  Zn104  1  0.00080242  0.37080527  0.86566819  1
  Zn  Zn105  1  0.24210057  0.12215077  0.88176234  1
  Zn  Zn106  1  0.12985816  0.49291558  0.62046838  1
  Zn  Zn107  1  0.18460757  0.18921585  0.19159573  1
  Zn  Zn108  1  0.18931967  0.18315576  0.69002879  1
  Zn  Zn109  1  0.18970837  0.68770622  0.18354893  1
  Zn  Zn110  1  0.18590073  0.68449039  0.68624987  1
  Zn  Zn111  1  0.68608373  0.18898031  0.18755025  1
  Zn  Zn112  1  0.69337653  0.18385031  0.69020453  1
  Zn  Zn113  1  0.68678375  0.68660198  0.18709277  1
  Zn  Zn114  1  0.68894046  0.68628007  0.69002733  1
  Zn  Zn115  1  0.28828745  0.32587505  0.35181291  1
  Zn  Zn116  1  0.30908999  0.30719682  0.81690510  1
  Zn  Zn117  1  0.31022847  0.81684345  0.30701015  1
  Zn  Zn118  1  0.31251022  0.81251362  0.81688290  1
  Zn  Zn119  1  0.81128509  0.31473813  0.31326975  1
  Zn  Zn120  1  0.81321720  0.31377659  0.81532322  1
  Zn  Zn121  1  0.81196864  0.81158651  0.31126102  1
  Zn  Zn122  1  0.81175282  0.81197893  0.81045871  1
  Zn  Zn123  1  0.18661212  0.43570498  0.44608173  1
  Zn  Zn124  1  0.18889250  0.42632867  0.92856444  1
  Zn  Zn125  1  0.19097362  0.93303548  0.43353864  1
  Zn  Zn126  1  0.18713772  0.93581964  0.93643770  1
  Zn  Zn127  1  0.68577933  0.43744032  0.44124933  1
  Zn  Zn128  1  0.68808481  0.43624205  0.93771744  1
  Zn  Zn129  1  0.66095378  0.95240111  0.42616916  1
  Zn  Zn130  1  0.68592537  0.93537294  0.93659801  1
  Zn  Zn131  1  0.31285648  0.06175017  0.06700344  1
  Zn  Zn132  1  0.31055675  0.06755076  0.56157173  1
  Zn  Zn133  1  0.31123667  0.56146464  0.06160331  1
  Zn  Zn134  1  0.31263559  0.56775178  0.55800980  1
  Zn  Zn135  1  0.81430941  0.06124976  0.06053448  1
  Zn  Zn136  1  0.81327536  0.06257371  0.56390935  1
  Zn  Zn137  1  0.81222310  0.56185059  0.06242150  1
  Zn  Zn138  1  0.80892224  0.56145751  0.56394462  1
  Zn  Zn139  1  0.43342517  0.43831022  0.19206799  1
  Zn  Zn140  1  0.43851935  0.43994979  0.68868942  1
  Zn  Zn141  1  0.43922911  0.93636041  0.19375627  1
  Zn  Zn142  1  0.44198153  0.94113431  0.68862371  1
  Zn  Zn143  1  0.93989941  0.44190721  0.18352594  1
  Zn  Zn144  1  0.93506404  0.44047355  0.69003999  1
  Zn  Zn145  1  0.93889616  0.93786271  0.18540881  1
  Zn  Zn146  1  0.93982421  0.93625193  0.68427039  1
  Zn  Zn147  1  0.05429025  0.05600854  0.30383280  1
  Zn  Zn148  1  0.06377724  0.06347922  0.80936494  1
  Zn  Zn149  1  0.06847493  0.56537752  0.31498446  1
  Zn  Zn150  1  0.06370078  0.55422862  0.80757330  1
  Zn  Zn151  1  0.56119905  0.06849974  0.31676270  1
  Zn  Zn152  1  0.56392363  0.06263514  0.81268727  1
  Zn  Zn153  1  0.55869474  0.56426005  0.31500058  1
  Zn  Zn154  1  0.55999114  0.56545257  0.81365465  1
  Zn  Zn155  1  0.43818632  0.18936011  0.44224335  1
  Zn  Zn156  1  0.43559561  0.18513783  0.93940174  1
  Zn  Zn157  1  0.43232287  0.68678526  0.43937112  1
  Zn  Zn158  1  0.43596271  0.68659485  0.93783235  1
  Zn  Zn159  1  0.93635508  0.18890778  0.43467322  1
  Zn  Zn160  1  0.93768947  0.18954276  0.93771233  1
  Zn  Zn161  1  0.93969153  0.69277310  0.43950500  1
  Zn  Zn162  1  0.93802644  0.68947933  0.93210896  1
  Zn  Zn163  1  0.06688529  0.31340329  0.05849222  1
  Zn  Zn164  1  0.06172888  0.31539665  0.56103923  1
  Zn  Zn165  1  0.06929323  0.81237761  0.05878968  1
  Zn  Zn166  1  0.05797460  0.81508698  0.56481395  1
  Zn  Zn167  1  0.56329676  0.31227223  0.06196023  1
  Zn  Zn168  1  0.56152636  0.31055571  0.56925424  1
  Zn  Zn169  1  0.55477398  0.81106718  0.06391696  1
  Zn  Zn170  1  0.55698127  0.81858995  0.56104925  1
  O  O171  1  0.11463569  0.11292937  0.13071343  1
  O  O172  1  0.11099009  0.11560982  0.62922666  1
  O  O173  1  0.11969222  0.61095999  0.12726524  1
  O  O174  1  0.13228796  0.61755878  0.60647433  1
  O  O175  1  0.62122529  0.11918675  0.11863117  1
  O  O176  1  0.61551821  0.12252674  0.62958161  1
  O  O177  1  0.61931836  0.61942270  0.11935498  1
  O  O178  1  0.61881176  0.62048928  0.62025793  1
  O  O179  1  0.38336798  0.39279328  0.36501448  1
  O  O180  1  0.38360540  0.37705848  0.88243946  1
  O  O181  1  0.37841153  0.87489292  0.38190067  1
  O  O182  1  0.38687065  0.88769485  0.86861872  1
  O  O183  1  0.88282437  0.38154412  0.37811018  1
  O  O184  1  0.87445687  0.38334597  0.88478135  1
  O  O185  1  0.87711086  0.88099073  0.37965385  1
  O  O186  1  0.88034858  0.87783318  0.87982334  1
  O  O187  1  0.23916391  0.00837596  0.35986445  1
  O  O188  1  0.25872542  0.00032563  0.86493599  1
  O  O189  1  0.25947844  0.50648140  0.37186847  1
  O  O190  1  0.25588428  0.50646622  0.86320151  1
  O  O191  1  0.75554006  0.00132946  0.36393040  1
  O  O192  1  0.75538078  0.00046925  0.86882626  1
  O  O193  1  0.75577653  0.50527141  0.37144872  1
  O  O194  1  0.75447639  0.50049429  0.86714748  1
  O  O195  1  0.24091141  0.49955521  0.13485527  1
  O  O196  1  0.25838859  0.50221552  0.63648501  1
  O  O197  1  0.24133823  0.99733167  0.13373494  1
  O  O198  1  0.23717213  1.00676434  0.63553935  1
  O  O199  1  0.74358522  0.49484182  0.13335781  1
  O  O200  1  0.74385590  0.49174245  0.63272380  1
  O  O201  1  0.74613885  0.99167172  0.12957631  1
  O  O202  1  0.74933052  0.99381881  0.63541433  1
  O  O203  1  0.00293956  0.37676878  0.25564280  1
  O  O204  1  -0.00353685  0.37402404  0.75064050  1
  O  O205  1  0.00299043  0.86855100  0.25500238  1
  O  O206  1  0.00887111  0.87882742  0.75745798  1
  O  O207  1  0.51343944  0.36981175  0.24450429  1
  O  O208  1  0.50193986  0.38080284  0.76449971  1
  O  O209  1  0.51557750  0.86700843  0.25039187  1
  O  O210  1  0.49927207  0.86485460  0.75761041  1
  O  O211  1  0.50499065  0.13584632  0.24449734  1
  O  O212  1  0.49251314  0.11588952  0.73882190  1
  O  O213  1  0.50815748  0.63393835  0.23984757  1
  O  O214  1  0.48760393  0.63159333  0.74547602  1
  O  O215  1  0.98716687  0.12488449  0.23799003  1
  O  O216  1  0.98800050  0.11880347  0.73891493  1
  O  O217  1  0.99797182  0.63275405  0.24630392  1
  O  O218  1  0.98492205  0.62232578  0.75326355  1
  O  O219  1  0.38229321  0.25686092  0.01566202  1
  O  O220  1  0.38220881  0.25249741  0.51972168  1
  O  O221  1  0.36275944  0.73159144  0.00538272  1
  O  O222  1  0.37521824  0.76061169  0.51226236  1
  O  O223  1  0.86035943  0.25847846  -0.00513445  1
  O  O224  1  0.86942644  0.25812275  0.50709625  1
  O  O225  1  0.87859529  0.75786694  0.00701273  1
  O  O226  1  0.86578219  0.76160744  0.49847193  1
  O  O227  1  0.11646636  0.25199759  0.47865775  1
  O  O228  1  0.12997066  0.25851812  0.98403504  1
  O  O229  1  0.12483775  0.73953461  0.50263516  1
  O  O230  1  0.13154211  0.75036069  0.99288469  1
  O  O231  1  0.63244948  0.25230807  0.49518046  1
  O  O232  1  0.63445312  0.24384401  0.99693005  1
  O  O233  1  0.62615807  0.74807745  0.49272492  1
  O  O234  1  0.61634509  0.74124574  0.99110410  1
  O  O235  1  0.49877049  0.24622284  0.13597186  1
  O  O236  1  0.49677702  0.23709078  0.63044745  1
  O  O237  1  0.50052799  0.73829934  0.13464992  1
  O  O238  1  0.49326724  0.74753479  0.63281998  1
  O  O239  1  1.00473791  0.23683110  0.12258458  1
  O  O240  1  0.99018951  0.23869831  0.61818791  1
  O  O241  1  0.99193296  0.74363740  0.13045176  1
  O  O242  1  0.99000503  0.75652762  0.63009167  1
  O  O243  1  0.00180051  0.26003745  0.36872294  1
  O  O244  1  0.01241957  0.25121074  0.87963383  1
  O  O245  1  -0.00658491  0.76151561  0.36275833  1
  O  O246  1  0.00003868  0.76245989  0.86703749  1
  O  O247  1  0.50948571  0.25139764  0.36535142  1
  O  O248  1  0.50980119  0.25819687  0.88244976  1
  O  O249  1  0.51022252  0.73915784  0.36839002  1
  O  O250  1  0.50393349  0.75588019  0.86859406  1
  O  O251  1  0.24778437  0.13911474  0.50490271  1
  O  O252  1  0.26375815  0.12656004  0.99342873  1
  O  O253  1  0.24150604  0.63162830  0.49037609  1
  O  O254  1  0.24821272  0.61298370  0.98127328  1
  O  O255  1  0.75291932  0.14112547  0.50196945  1
  O  O256  1  0.74511237  0.13242355  0.99950875  1
  O  O257  1  0.74250374  0.63277335  0.49718471  1
  O  O258  1  0.73485087  0.62173714  1.00018176  1
  O  O259  1  0.26700918  0.37421864  0.00081085  1
  O  O260  1  0.25638904  0.35270756  0.46087617  1
  O  O261  1  0.25217564  0.87582202  0.00043005  1
  O  O262  1  0.26503907  0.87097006  0.49410755  1
  O  O263  1  0.75395275  0.36842454  0.00913787  1
  O  O264  1  0.75485481  0.36822282  0.50919090  1
  O  O265  1  0.76354595  0.87963018  0.00434725  1
  O  O266  1  0.75351964  0.86882755  0.50620616  1
  O  O267  1  0.13196066  0.49177910  0.24665179  1
  O  O268  1  0.14159984  0.50010248  0.74239006  1
  O  O269  1  0.12970681  0.99441543  0.24114923  1
  O  O270  1  0.13342152  0.99430203  0.74454611  1
  O  O271  1  0.62899961  0.49379904  0.24939540  1
  O  O272  1  0.63412146  0.50806237  0.74403670  1
  O  O273  1  0.63503829  0.99226085  0.24321692  1
  O  O274  1  0.63685740  1.00483013  0.74112454  1
  O  O275  1  0.36034536  -0.00024982  0.25010996  1
  O  O276  1  0.36818673  0.00478140  0.75469677  1
  O  O277  1  0.36098268  0.50070109  0.25802479  1
  O  O278  1  0.36924988  0.50843020  0.75314786  1
  O  O279  1  0.86403662  0.00366824  0.25245206  1
  O  O280  1  0.87160480  0.00418019  0.75661723  1
  O  O281  1  0.87088986  0.50778150  0.25473370  1
  O  O282  1  0.86573702  0.51073949  0.75756520  1
  O  O283  1  0.11004680  0.37652486  0.36742010  1
  O  O284  1  0.12167798  0.36439033  0.86385466  1
  O  O285  1  0.11257236  0.88234382  0.36178442  1
  O  O286  1  0.11585825  0.87674189  0.86407155  1
  O  O287  1  0.63190371  0.36725750  0.36606763  1
  O  O288  1  0.61566649  0.36453848  0.88369217  1
  O  O289  1  0.63902731  0.85692849  0.36372491  1
  O  O290  1  0.61306479  0.86716285  0.87777844  1
  O  O291  1  0.38529233  0.13245864  0.13317047  1
  O  O292  1  0.38731237  0.12880987  0.63424373  1
  O  O293  1  0.38750720  0.61766042  0.12731849  1
  O  O294  1  0.38036396  0.63526446  0.62991308  1
  O  O295  1  0.88264980  0.11926277  0.13244467  1
  O  O296  1  0.88461828  0.12992056  0.63031086  1
  O  O297  1  0.88276153  0.62954773  0.12850664  1
  O  O298  1  0.86787256  0.62409143  0.64022197  1
  O  O299  1  0.25882077  0.25307761  0.12651745  1
  O  O300  1  0.26618444  0.24766781  0.63074974  1
  O  O301  1  0.25425501  0.75836096  0.12899628  1
  O  O302  1  0.26436304  0.74688963  0.62474130  1
  O  O303  1  0.74472520  0.26113139  0.11801598  1
  O  O304  1  0.75742618  0.25654200  0.62184686  1
  O  O305  1  0.76528181  0.75261889  0.13070851  1
  O  O306  1  0.75152471  0.75868531  0.62093973  1
  O  O307  1  0.22455374  0.22837388  0.35543976  1
  O  O308  1  0.24085575  0.24500891  0.88100987  1
  O  O309  1  0.25293126  0.73865013  0.37289722  1
  O  O310  1  0.25206649  0.72991559  0.87002476  1
  O  O311  1  0.74597314  0.25339644  0.38664182  1
  O  O312  1  0.74163166  0.25007082  0.88453733  1
  O  O313  1  0.74414261  0.74229172  0.37935405  1
  O  O314  1  0.73321255  0.75140794  0.87009987  1
  O  O315  1  -0.01028871  0.11315308  0.00719255  1
  O  O316  1  -0.00861807  0.12183835  0.51197573  1
  O  O317  1  -0.00325705  0.62769900  0.00956167  1
  O  O318  1  0.01343798  0.62006114  0.49003668  1
  O  O319  1  0.50671260  0.11725155  0.00764154  1
  O  O320  1  0.50391984  0.12198003  0.51623103  1
  O  O321  1  0.50935946  0.61621884  0.00810744  1
  O  O322  1  0.50436444  0.62042474  0.50688797  1
  O  O323  1  0.50810643  0.38904138  0.50394003  1
  O  O324  1  0.49215808  0.38156479  0.99830299  1
  O  O325  1  0.47942879  0.88011073  0.50672489  1
  O  O326  1  0.50465037  0.88478319  0.99154598  1
  O  O327  1  0.99182793  0.38441725  0.49090358  1
  O  O328  1  0.98358771  0.37181673  1.00311624  1
  O  O329  1  0.98889847  0.87194369  0.48700270  1
  O  O330  1  0.98994828  0.88165461  0.99277949  1
  O  O331  1  0.48410097  0.51123278  0.38365639  1
  O  O332  1  0.49507095  0.49375989  0.88137227  1
  O  O333  1  0.55443460  0.99395165  0.39596581  1
  O  O334  1  0.49870098  0.99149392  0.88203844  1
  O  O335  1  0.99429324  0.49540078  0.38004867  1
  O  O336  1  0.98806119  0.49768512  0.87439341  1
  O  O337  1  0.98203835  0.98890221  0.36553914  1
  O  O338  1  0.99566073  0.99171394  0.88102571  1
  O  O339  1  0.00437479  0.00688188  0.11669072  1
  O  O340  1  0.01026555  0.00969397  0.62414247  1
  O  O341  1  0.01491309  0.50913396  0.12654496  1
  O  O342  1  -0.00549294  0.50122547  0.60920356  1
  O  O343  1  0.50720365  0.00484423  0.12032032  1
  O  O344  1  0.51077093  0.00794643  0.62345487  1
  O  O345  1  0.50613061  0.50421528  0.12300292  1
  O  O346  1  0.50355692  0.50670655  0.61891085  1
  O  O347  1  0.23884339  0.38323207  0.25556976  1
  O  O348  1  0.25746358  0.38918637  0.75322015  1
  O  O349  1  0.23978231  0.88720213  0.24950170  1
  O  O350  1  0.23988861  0.88239552  0.75549546  1
  O  O351  1  0.74280938  0.37984023  0.24355074  1
  O  O352  1  0.75616763  0.38636413  0.74315175  1
  O  O353  1  0.74441322  0.88003651  0.24183136  1
  O  O354  1  0.75649354  0.88639704  0.74156862  1
  O  O355  1  0.25118371  0.10991241  0.24346819  1
  O  O356  1  0.26067391  0.11440943  0.75587465  1
  O  O357  1  0.23883737  0.61699980  0.26497500  1
  O  O358  1  0.26034611  0.61799811  0.75305339  1
  O  O359  1  0.75495398  0.11593243  0.24706083  1
  O  O360  1  0.76351101  0.11178299  0.74946348  1
  O  O361  1  0.75676080  0.61965233  0.25504495  1
  O  O362  1  0.75683093  0.61578011  0.75475029  1
  O  O363  1  0.38114020  0.12657995  0.37152392  1
  O  O364  1  0.38534566  0.10979441  0.86611729  1
  O  O365  1  0.35788860  0.61795530  0.38071079  1
  O  O366  1  0.37115381  0.61550905  0.86447625  1
  O  O367  1  0.87269287  0.11645433  0.36575705  1
  O  O368  1  0.87382641  0.11952494  0.86740358  1
  O  O369  1  0.87050032  0.62291550  0.37023552  1
  O  O370  1  0.87100159  0.61808672  0.86946788  1
  O  O371  1  0.12510404  0.38461012  0.13367052  1
  O  O372  1  0.12749453  0.37796072  0.62304298  1
  O  O373  1  0.11525874  0.88853780  0.13678371  1
  O  O374  1  0.11928286  0.89050521  0.63239888  1
  O  O375  1  0.63418391  0.38124008  0.13208604  1
  O  O376  1  0.63695627  0.37929276  0.62501192  1
  O  O377  1  0.63042513  0.87617329  0.13079101  1
  O  O378  1  0.63630321  0.88202130  0.62218274  1
  O  O379  1  0.11565242  0.26225073  0.25578145  1
  O  O380  1  0.13201707  0.24698926  0.76490383  1
  O  O381  1  0.11273294  0.75895177  0.24301585  1
  O  O382  1  0.12625931  0.75870620  0.75214673  1
  O  O383  1  0.62160594  0.25967224  0.25713290  1
  O  O384  1  0.63282874  0.24532278  0.76573031  1
  O  O385  1  0.62019233  0.75482938  0.25604442  1
  O  O386  1  0.61113365  0.74042516  0.75864125  1
  O  O387  1  0.38584804  0.25425076  0.24057040  1
  O  O388  1  0.37385573  0.23551734  0.74876015  1
  O  O389  1  0.38927914  0.75250546  0.25256752  1
  O  O390  1  0.38060578  0.74526944  0.74226438  1
  O  O391  1  0.87168488  0.23748697  0.25195714  1
  O  O392  1  0.86654750  0.23997406  0.74110590  1
  O  O393  1  0.88420400  0.74577267  0.24173747  1
  O  O394  1  0.87126247  0.73272327  0.75219488  1
  O  O395  1  0.38016335  0.50071621  0.48949241  1
  O  O396  1  0.38186733  0.49265706  0.99497500  1
  O  O397  1  0.37237120  0.98787306  0.50268665  1
  O  O398  1  0.38864355  1.00432993  0.99214750  1
  O  O399  1  0.87871834  0.49801304  0.49370451  1
  O  O400  1  0.86551527  0.49070689  0.99010422  1
  O  O401  1  0.86485144  0.98862458  0.48911885  1
  O  O402  1  0.88243633  0.99174974  0.99325579  1
  O  O403  1  0.11169182  -0.00450572  0.00666982  1
  O  O404  1  0.13042391  -0.00649415  0.51357068  1
  O  O405  1  0.13333195  0.48907654  0.01435683  1
  O  O406  1  0.11617761  0.50776827  0.49920534  1
  O  O407  1  0.61849174  0.00575563  0.00446149  1
  O  O408  1  0.64704727  0.01155720  0.52413078  1
  O  O409  1  0.61980464  0.50489782  0.00624125  1
  O  O410  1  0.61900211  0.50710378  0.50632101  1
  O  O411  1  0.37429462  0.36848176  0.11970159  1
  O  O412  1  0.38438342  0.35711313  0.63499797  1
  O  O413  1  0.38384605  0.87044339  0.12605061  1
  O  O414  1  0.37473073  0.86421224  0.63167609  1
  O  O415  1  0.86231276  0.38352523  0.11983569  1
  O  O416  1  0.86588626  0.36824207  0.62127741  1
  O  O417  1  0.87350438  0.86661156  0.11679087  1
  O  O418  1  0.86382070  0.87914543  0.61508347  1
  O  O419  1  0.10224577  0.13300181  0.37243485  1
  O  O420  1  0.12267344  0.13552075  0.87388074  1
  O  O421  1  0.13973753  0.61966009  0.38893742  1
  O  O422  1  0.13791886  0.62195092  0.86594271  1
  O  O423  1  0.63377228  0.14485579  0.37620064  1
  O  O424  1  0.62629429  0.13172073  0.88354803  1
  O  O425  1  0.63165726  0.63247610  0.38018218  1
  O  O426  1  0.62336567  0.63339663  0.88473944  1
