# generated using pymatgen
data_V85Zn86O256
_symmetry_space_group_name_H-M   'P 1'
_cell_length_a   16.93456804
_cell_length_b   16.93461706
_cell_length_c   16.94230743
_cell_angle_alpha   89.97760679
_cell_angle_beta   89.93798196
_cell_angle_gamma   89.95688038
_symmetry_Int_Tables_number   1
_chemical_formula_structural   V85Zn86O256
_chemical_formula_sum   'V85 Zn86 O256'
_cell_volume   4858.71753031
_cell_formula_units_Z   1
loop_
 _symmetry_equiv_pos_site_id
 _symmetry_equiv_pos_as_xyz
  1  'x, y, z'
loop_
 _atom_site_type_symbol
 _atom_site_label
 _atom_site_symmetry_multiplicity
 _atom_site_fract_x
 _atom_site_fract_y
 _atom_site_fract_z
 _atom_site_occupancy
  V  V0  1  0.75348758  -0.00098800  0.74710516  1
  V  V1  1  0.87030390  0.62729135  0.75805314  1
  V  V2  1  0.25242881  0.62258310  0.37617394  1
  V  V3  1  0.87827025  0.74883560  0.12947908  1
  V  V4  1  0.37445837  -0.00665994  0.87354465  1
  V  V5  1  0.75424747  0.25007425  0.50097517  1
  V  V6  1  0.61965457  0.50297407  0.62741536  1
  V  V7  1  0.00121721  0.24606991  0.23683346  1
  V  V8  1  0.50440956  0.86844463  0.87478002  1
  V  V9  1  0.86795551  0.87551685  0.50350084  1
  V  V10  1  0.23791140  0.87471944  0.12547475  1
  V  V11  1  0.12363667  0.62169904  0.50173894  1
  V  V12  1  0.00575666  0.37669121  0.86714172  1
  V  V13  1  0.37826086  0.37818575  -0.01341444  1
  V  V14  1  0.26749590  0.50071163  0.75594027  1
  V  V15  1  -0.00526127  0.36746346  0.37939622  1
  V  V16  1  0.25370014  0.49624487  0.25626164  1
  V  V17  1  0.37281038  0.25442412  0.62362609  1
  V  V18  1  0.74807069  -0.00014226  0.24795909  1
  V  V19  1  0.37808237  0.37806371  0.48649652  1
  V  V20  1  0.25044331  0.00095430  0.74320337  1
  V  V21  1  0.49681704  0.49873220  0.48760734  1
  V  V22  1  0.87361024  0.87639333  -0.00011874  1
  V  V23  1  0.75120386  0.12732310  0.87158835  1
  V  V24  1  0.13309191  0.74482423  0.87848096  1
  V  V25  1  0.00346518  0.75948722  0.24593015  1
  V  V26  1  0.62541696  0.87065114  0.74815169  1
  V  V27  1  0.00259957  0.87429638  0.87152658  1
  V  V28  1  0.00573394  0.87826882  0.37455257  1
  V  V29  1  0.61760122  -0.00232822  0.13223300  1
  V  V30  1  0.49025241  0.63954091  0.63147903  1
  V  V31  1  0.63452072  0.49927181  0.12999373  1
  V  V32  1  0.12633572  0.75089297  0.36966633  1
  V  V33  1  0.63016450  0.62390614  -0.00987241  1
  V  V34  1  0.24739286  0.25247832  0.49292303  1
  V  V35  1  0.50073765  0.12576953  0.62548442  1
  V  V36  1  0.12603771  -0.00663368  0.62319306  1
  V  V37  1  0.74317553  0.50704405  0.76121708  1
  V  V38  1  0.62809645  0.62667597  0.49649658  1
  V  V39  1  0.75258812  0.25164173  0.00831607  1
  V  V40  1  0.50257547  0.75660601  0.24710521  1
  V  V41  1  0.12365739  0.13046735  0.49618956  1
  V  V42  1  0.86828274  0.75264830  0.62673352  1
  V  V43  1  0.37270483  0.86922059  0.49474592  1
  V  V44  1  0.00001631  0.00235713  0.49932680  1
  V  V45  1  0.62931189  -0.00508711  0.62453281  1
  V  V46  1  0.74437513  0.87262307  0.13099523  1
  V  V47  1  -0.00671030  0.12526751  0.63447512  1
  V  V48  1  0.37648721  0.61923815  0.25632250  1
  V  V49  1  0.38757184  0.24875067  0.11938727  1
  V  V50  1  0.50046880  0.61886281  0.12700362  1
  V  V51  1  0.00120044  0.50634470  -0.00345798  1
  V  V52  1  -0.01958359  0.59311339  0.16862554  1
  V  V53  1  0.61717823  0.25734083  0.37636398  1
  V  V54  1  0.12768934  0.36730608  0.26118145  1
  V  V55  1  0.76215576  0.61439463  0.35926898  1
  V  V56  1  0.87642530  0.37329793  0.00312329  1
  V  V57  1  0.62956294  0.75467482  0.36696558  1
  V  V58  1  0.87656416  0.13097496  0.23392707  1
  V  V59  1  0.37469094  0.12613755  0.74930827  1
  V  V60  1  0.74837537  0.37574089  0.62894636  1
  V  V61  1  0.30698831  0.82080302  0.67168747  1
  V  V62  1  0.49990247  0.25258441  0.75245721  1
  V  V63  1  0.37794441  0.12460538  0.24149972  1
  V  V64  1  0.49680891  0.49793461  -0.01583798  1
  V  V65  1  -0.00053792  0.00616539  0.00596923  1
  V  V66  1  0.12178751  0.49520147  0.63661600  1
  V  V67  1  0.36480785  0.74791025  0.12047011  1
  V  V68  1  0.87175894  0.38613653  0.49985042  1
  V  V69  1  0.49898894  -0.00201697  0.49872224  1
  V  V70  1  0.62562114  0.12392072  0.50047235  1
  V  V71  1  0.75151821  0.12629913  0.37345697  1
  V  V72  1  0.24849864  0.12381430  0.87481524  1
  V  V73  1  0.37249220  0.00166036  0.37217921  1
  V  V74  1  0.87521791  0.00181575  0.37232234  1
  V  V75  1  0.49699917  0.00039494  0.00333601  1
  V  V76  1  0.62019120  0.25273034  0.87718756  1
  V  V77  1  0.24989369  0.25196596  -0.00023362  1
  V  V78  1  0.62006266  0.37830889  0.75577455  1
  V  V79  1  0.12181673  0.12691590  0.00571386  1
  V  V80  1  0.25024984  0.75232025  0.50163059  1
  V  V81  1  0.87730331  0.00656431  0.87116232  1
  V  V82  1  0.62124035  0.12430832  0.00617501  1
  V  V83  1  0.75010395  0.74696315  -0.00658648  1
  V  V84  1  0.12717461  0.49675502  0.12621085  1
  Zn  Zn85  1  0.36922348  0.87133208  0.00060900  1
  Zn  Zn86  1  0.25503966  0.37441765  0.12539268  1
  Zn  Zn87  1  -0.00428604  0.62514544  0.62451978  1
  Zn  Zn88  1  0.24486977  0.37413445  0.62837833  1
  Zn  Zn89  1  0.24511319  0.12773182  0.36995217  1
  Zn  Zn90  1  0.75666028  0.37443671  0.13638838  1
  Zn  Zn91  1  -0.00307055  0.25133355  0.75248122  1
  Zn  Zn92  1  -0.00295207  0.50119597  0.49868410  1
  Zn  Zn93  1  0.00026987  0.74777967  0.74839552  1
  Zn  Zn94  1  0.75081465  0.75044734  0.49662064  1
  Zn  Zn95  1  0.62831046  0.74088924  0.86288735  1
  Zn  Zn96  1  0.49929355  0.25478365  0.25016489  1
  Zn  Zn97  1  0.26149016  0.61755280  0.88575435  1
  Zn  Zn98  1  0.87048199  0.50371462  0.87707804  1
  Zn  Zn99  1  0.12797664  0.25467137  0.86562126  1
  Zn  Zn100  1  0.50446069  0.87715993  0.36874914  1
  Zn  Zn101  1  0.12901299  0.63004603  0.00992845  1
  Zn  Zn102  1  0.24148873  -0.00311749  0.25125280  1
  Zn  Zn103  1  0.11764744  0.00164989  0.13475140  1
  Zn  Zn104  1  0.62526733  0.38279509  0.25762802  1
  Zn  Zn105  1  0.12737953  0.86960415  0.74627569  1
  Zn  Zn106  1  0.87017240  0.24671200  0.63707358  1
  Zn  Zn107  1  0.19153421  0.18655660  0.18596730  1
  Zn  Zn108  1  0.18095872  0.18965505  0.68462525  1
  Zn  Zn109  1  0.18350708  0.68352269  0.18787070  1
  Zn  Zn110  1  0.18366299  0.67778485  0.69593653  1
  Zn  Zn111  1  0.68496110  0.18706785  0.18942375  1
  Zn  Zn112  1  0.68791735  0.18631852  0.68944068  1
  Zn  Zn113  1  0.68860833  0.68335312  0.18571253  1
  Zn  Zn114  1  0.68788369  0.68646804  0.68157040  1
  Zn  Zn115  1  0.31594182  0.30965309  0.31069617  1
  Zn  Zn116  1  0.30761490  0.31672369  0.81041100  1
  Zn  Zn117  1  0.31254097  0.81148238  0.30755047  1
  Zn  Zn118  1  0.34337206  0.76862913  0.84207427  1
  Zn  Zn119  1  0.81132702  0.31523527  0.31150068  1
  Zn  Zn120  1  0.81678222  0.31398158  0.81463108  1
  Zn  Zn121  1  0.81479848  0.81016102  0.31283056  1
  Zn  Zn122  1  0.81237545  0.81801826  0.81111682  1
  Zn  Zn123  1  0.18750222  0.43669475  0.43901205  1
  Zn  Zn124  1  0.18882334  0.44068546  0.93688513  1
  Zn  Zn125  1  0.18924162  0.93775438  0.43793233  1
  Zn  Zn126  1  0.18690330  0.93353306  0.94074084  1
  Zn  Zn127  1  0.68968514  0.44080124  0.43740254  1
  Zn  Zn128  1  0.68454174  0.43529945  0.94079648  1
  Zn  Zn129  1  0.68652556  0.93677667  0.43347110  1
  Zn  Zn130  1  0.68739021  0.93687662  0.93908500  1
  Zn  Zn131  1  0.30911697  0.05987315  0.06386789  1
  Zn  Zn132  1  0.31157468  0.06359699  0.55962771  1
  Zn  Zn133  1  0.31237382  0.56149182  0.06368170  1
  Zn  Zn134  1  0.31192015  0.56154912  0.56655034  1
  Zn  Zn135  1  0.80803136  0.06144598  0.05901142  1
  Zn  Zn136  1  0.81303379  0.06113760  0.56164204  1
  Zn  Zn137  1  0.81594595  0.56482843  0.06140096  1
  Zn  Zn138  1  0.80747889  0.56653090  0.56813142  1
  Zn  Zn139  1  0.44173424  0.43181495  0.18815029  1
  Zn  Zn140  1  0.44106000  0.43639004  0.68042469  1
  Zn  Zn141  1  0.43027120  0.93499394  0.18522184  1
  Zn  Zn142  1  0.44482405  0.93773114  0.68905319  1
  Zn  Zn143  1  0.93970890  0.42479539  0.18735711  1
  Zn  Zn144  1  0.93227921  0.44175669  0.68592112  1
  Zn  Zn145  1  0.93535795  0.93717842  0.18863092  1
  Zn  Zn146  1  0.93651611  0.93818319  0.68678902  1
  Zn  Zn147  1  0.06343850  0.06773722  0.31061872  1
  Zn  Zn148  1  0.06716740  0.06263261  0.81452468  1
  Zn  Zn149  1  0.05522805  0.55485239  0.31755515  1
  Zn  Zn150  1  0.05907844  0.56601629  0.81168780  1
  Zn  Zn151  1  0.55813308  0.06927860  0.31212536  1
  Zn  Zn152  1  0.56306295  0.06059253  0.81484018  1
  Zn  Zn153  1  0.56801082  0.56774866  0.31203672  1
  Zn  Zn154  1  0.43537242  0.58179660  0.80489859  1
  Zn  Zn155  1  0.43381356  0.18422687  0.43762912  1
  Zn  Zn156  1  0.43686740  0.18438482  0.93697571  1
  Zn  Zn157  1  0.44189918  0.68719553  0.43748097  1
  Zn  Zn158  1  0.44770012  0.68772681  0.94609940  1
  Zn  Zn159  1  0.93811213  0.19111240  0.43496377  1
  Zn  Zn160  1  0.93714736  0.19079379  0.93722341  1
  Zn  Zn161  1  0.93781176  0.68869527  0.43700904  1
  Zn  Zn162  1  0.93976831  0.68903981  0.93712593  1
  Zn  Zn163  1  0.06524854  0.31744719  0.06009185  1
  Zn  Zn164  1  0.06041229  0.31137588  0.56569120  1
  Zn  Zn165  1  0.06112194  0.81468377  0.05697379  1
  Zn  Zn166  1  0.05668597  0.80937856  0.56053790  1
  Zn  Zn167  1  0.56232105  0.31884611  0.06169566  1
  Zn  Zn168  1  0.56221966  0.31535868  0.56123214  1
  Zn  Zn169  1  0.56249333  0.81142727  0.06302935  1
  Zn  Zn170  1  0.56437171  0.81373614  0.55745631  1
  O  O171  1  0.13132880  0.12348679  0.10904467  1
  O  O172  1  0.11462655  0.11361579  0.61590316  1
  O  O173  1  0.10604797  0.60869135  0.13517484  1
  O  O174  1  0.12167844  0.61551475  0.61809573  1
  O  O175  1  0.62879486  0.11660433  0.11248941  1
  O  O176  1  0.62103503  0.11623274  0.62020239  1
  O  O177  1  0.61897271  0.61592978  0.11780130  1
  O  O178  1  0.61966408  0.61890529  0.61458548  1
  O  O179  1  0.37690219  0.37004785  0.38722077  1
  O  O180  1  0.37730942  0.36726438  0.88744879  1
  O  O181  1  0.37780482  0.88207863  0.37925369  1
  O  O182  1  0.38552815  0.87219841  0.87972652  1
  O  O183  1  0.88069494  0.36963256  0.38749352  1
  O  O184  1  0.88290587  0.38149931  0.88676345  1
  O  O185  1  0.88559858  0.88067393  0.37961309  1
  O  O186  1  0.88031700  0.88590729  0.88063019  1
  O  O187  1  0.26215181  0.00112716  0.37436632  1
  O  O188  1  0.25480224  0.00045294  0.86317296  1
  O  O189  1  0.24626279  0.50510197  0.36361352  1
  O  O190  1  0.25135103  0.49834511  0.86050164  1
  O  O191  1  0.75281356  0.00572452  0.36610098  1
  O  O192  1  0.75697041  0.00750389  0.87161794  1
  O  O193  1  0.74534407  0.51506009  0.37371085  1
  O  O194  1  0.74694574  0.49668355  0.86403781  1
  O  O195  1  0.24215183  0.49796069  0.13830108  1
  O  O196  1  0.24058643  0.50008231  0.63553222  1
  O  O197  1  0.24724448  0.98669971  0.12705259  1
  O  O198  1  0.24214663  1.00738832  0.63481222  1
  O  O199  1  0.73704376  0.50254158  0.11884329  1
  O  O200  1  0.73612788  0.49572128  0.63124134  1
  O  O201  1  0.74119166  0.99234279  0.12864825  1
  O  O202  1  0.74152994  1.00779910  0.63462975  1
  O  O203  1  0.00670651  0.36152897  0.25809286  1
  O  O204  1  -0.00681334  0.38150994  0.76525764  1
  O  O205  1  -0.00224469  0.86872184  0.25976401  1
  O  O206  1  0.00067349  0.87811899  0.76259124  1
  O  O207  1  0.51217549  0.36739856  0.24471164  1
  O  O208  1  0.51262110  0.36874776  0.74420897  1
  O  O209  1  0.49472586  0.86005342  0.24787534  1
  O  O210  1  0.51301435  0.88099632  0.76047766  1
  O  O211  1  0.48326390  0.13418003  0.25446121  1
  O  O212  1  0.49496745  0.12993421  0.74539964  1
  O  O213  1  0.49322805  0.62906165  0.24448608  1
  O  O214  1  0.50753472  0.62760007  0.73092220  1
  O  O215  1  0.99226773  0.13899669  0.25302676  1
  O  O216  1  1.00125510  0.11580048  0.73552434  1
  O  O217  1  1.01310672  0.65016417  0.25790536  1
  O  O218  1  0.98572568  0.62619361  0.74636683  1
  O  O219  1  0.37065328  0.25410643  0.00237460  1
  O  O220  1  0.37043073  0.25541613  0.50683283  1
  O  O221  1  0.38119383  0.74927062  0.01763345  1
  O  O222  1  0.37180227  0.76250696  0.49326149  1
  O  O223  1  0.86357322  0.25845654  -0.00531456  1
  O  O224  1  0.86171284  0.25322301  0.50383700  1
  O  O225  1  0.87054156  0.75418167  0.00934528  1
  O  O226  1  0.87564509  0.75985995  0.50622417  1
  O  O227  1  0.13535426  0.24259304  0.50983881  1
  O  O228  1  0.13358008  0.24572157  0.99675576  1
  O  O229  1  0.12852359  0.74069542  0.49264193  1
  O  O230  1  0.11522426  0.74653462  0.98402805  1
  O  O231  1  0.63344549  0.24555996  0.49471253  1
  O  O232  1  0.62670575  0.24354720  0.99421642  1
  O  O233  1  0.62723881  0.74255567  0.48936916  1
  O  O234  1  0.63518227  0.74090586  1.00499809  1
  O  O235  1  0.49059632  0.24765403  0.11719764  1
  O  O236  1  0.49467146  0.24429919  0.62962849  1
  O  O237  1  0.49689170  0.73771089  0.13043239  1
  O  O238  1  0.50386342  0.73824128  0.61605731  1
  O  O239  1  1.00086362  0.25689124  0.13786877  1
  O  O240  1  0.99800291  0.23373492  0.62457004  1
  O  O241  1  0.99478102  0.75627013  0.13316858  1
  O  O242  1  0.98658851  0.74812083  0.62789294  1
  O  O243  1  0.00199621  0.26038699  0.36865334  1
  O  O244  1  0.00090456  0.26697940  0.87837005  1
  O  O245  1  0.00647327  0.76042798  0.37113385  1
  O  O246  1  0.00483185  0.76020752  0.87152743  1
  O  O247  1  0.51553203  0.24564645  0.38387979  1
  O  O248  1  0.51280686  0.24128717  0.86910210  1
  O  O249  1  0.50931805  0.74884507  0.36375932  1
  O  O250  1  0.51118095  0.76430362  0.88368703  1
  O  O251  1  0.24163771  0.13398812  0.50038080  1
  O  O252  1  0.24603953  0.13130556  0.99273431  1
  O  O253  1  0.24612527  0.63145153  0.49541549  1
  O  O254  1  0.24172857  0.61519124  0.99821894  1
  O  O255  1  0.74526136  0.13162096  0.49611502  1
  O  O256  1  0.74222157  0.13076116  0.99049456  1
  O  O257  1  0.73659068  0.62462148  0.49619977  1
  O  O258  1  0.74385832  0.63543399  1.00566296  1
  O  O259  1  0.25835409  0.36880753  -0.00007279  1
  O  O260  1  0.25924612  0.36985656  0.50375913  1
  O  O261  1  0.25247812  0.87721509  0.01650686  1
  O  O262  1  0.25850976  0.86643789  0.49854062  1
  O  O263  1  0.75716179  0.36670670  0.00021042  1
  O  O264  1  0.75365022  0.36870772  0.50625867  1
  O  O265  1  0.75461561  0.87060408  0.01106210  1
  O  O266  1  0.76456095  0.87562419  0.49211316  1
  O  O267  1  0.13112755  0.48908738  0.24663321  1
  O  O268  1  0.12587434  0.50349356  0.73785081  1
  O  O269  1  0.12723372  1.00515469  0.24741677  1
  O  O270  1  0.13485318  0.99623662  0.74316675  1
  O  O271  1  0.62247297  0.50455261  0.23291515  1
  O  O272  1  0.62845618  0.49186776  0.74206039  1
  O  O273  1  0.62657791  1.00922793  0.23788341  1
  O  O274  1  0.63086521  0.99502181  0.74216074  1
  O  O275  1  0.37460710  0.00743665  0.25626014  1
  O  O276  1  0.36898599  0.00410523  0.75241322  1
  O  O277  1  0.36674110  0.50698849  0.24317524  1
  O  O278  1  0.37272207  0.50050692  0.74818509  1
  O  O279  1  0.87087482  0.00892870  0.25480156  1
  O  O280  1  0.86606341  -0.00211670  0.75869400  1
  O  O281  1  0.94283199  0.52533003  0.24109929  1
  O  O282  1  0.86073943  0.50930918  0.74997272  1
  O  O283  1  0.12352121  0.37131808  0.36511658  1
  O  O284  1  0.10919765  0.37603111  0.88062499  1
  O  O285  1  0.11323137  0.86709181  0.38485660  1
  O  O286  1  0.11752865  0.86785799  0.87303044  1
  O  O287  1  0.62792543  0.35954454  0.38146053  1
  O  O288  1  0.62634481  0.36480133  0.86804196  1
  O  O289  1  0.62364897  0.86063045  0.37597672  1
  O  O290  1  0.62070711  0.87811742  0.86550891  1
  O  O291  1  0.37080354  0.13332861  0.12997765  1
  O  O292  1  0.37978141  0.13497337  0.62852519  1
  O  O293  1  0.38210020  0.62856147  0.13457808  1
  O  O294  1  0.39085050  0.62440781  0.61886949  1
  O  O295  1  0.86897632  0.12176490  0.13496582  1
  O  O296  1  0.88996001  0.12339382  0.61994313  1
  O  O297  1  0.89035079  0.63296776  0.12234378  1
  O  O298  1  0.87431572  0.63359080  0.63409455  1
  O  O299  1  0.25786092  0.25101140  0.11006718  1
  O  O300  1  0.25834914  0.25077642  0.61765505  1
  O  O301  1  0.25437688  0.75635140  0.13139622  1
  O  O302  1  0.24524066  0.75182705  0.62243143  1
  O  O303  1  0.74092376  0.25011862  0.11085975  1
  O  O304  1  0.74704882  0.25503689  0.61783428  1
  O  O305  1  0.75789077  0.75594556  0.12094865  1
  O  O306  1  0.76282988  0.74867055  0.61721406  1
  O  O307  1  0.25481765  0.24821798  0.38922971  1
  O  O308  1  0.25047435  0.24420323  0.88397996  1
  O  O309  1  0.24288972  0.74544009  0.37910848  1
  O  O310  1  0.23396110  0.75342929  0.87446796  1
  O  O311  1  0.74214739  0.24311023  0.38447234  1
  O  O312  1  0.73893853  0.24296886  0.88103714  1
  O  O313  1  0.74419624  0.74302520  0.37429204  1
  O  O314  1  0.74842835  0.76032228  0.89037454  1
  O  O315  1  0.00806525  0.11797763  -0.00698892  1
  O  O316  1  0.00513560  0.12050669  0.50567360  1
  O  O317  1  0.00372752  0.61112673  -0.00463530  1
  O  O318  1  0.00993499  0.62262368  0.49980918  1
  O  O319  1  0.50811236  0.10999226  -0.00679237  1
  O  O320  1  0.50498100  0.11771110  0.50595257  1
  O  O321  1  0.50788889  0.61520847  0.00972936  1
  O  O322  1  0.50970194  0.61613028  0.50302343  1
  O  O323  1  0.49452030  0.38997611  0.50382459  1
  O  O324  1  0.49644606  0.39062589  0.99749924  1
  O  O325  1  0.49201266  0.88228702  0.49574986  1
  O  O326  1  0.50285198  0.88650740  0.99376806  1
  O  O327  1  0.98680704  0.36936029  0.49705818  1
  O  O328  1  0.99409159  0.38410725  0.99310881  1
  O  O329  1  0.99135290  0.88263834  0.49220097  1
  O  O330  1  0.99330254  0.88364337  0.98804764  1
  O  O331  1  0.50681206  0.50573801  0.38915290  1
  O  O332  1  0.49360098  0.51247725  0.88694426  1
  O  O333  1  0.49036606  0.99910895  0.37941202  1
  O  O334  1  0.49396439  0.99100101  0.88090779  1
  O  O335  1  1.01072887  0.47551666  0.38552000  1
  O  O336  1  0.99856191  0.49251751  0.88052429  1
  O  O337  1  0.99576656  0.99515911  0.37992055  1
  O  O338  1  0.99310929  0.99673470  0.88073286  1
  O  O339  1  -0.00219557  -0.00693971  0.10948621  1
  O  O340  1  0.00461013  0.00771050  0.61859373  1
  O  O341  1  0.00808649  0.49510956  0.11271293  1
  O  O342  1  0.01031683  0.50121376  0.62073490  1
  O  O343  1  0.50613870  -0.00692637  0.11698975  1
  O  O344  1  0.50825130  0.00701110  0.61950097  1
  O  O345  1  0.50731303  0.51024738  0.11983327  1
  O  O346  1  0.51060432  0.50639182  0.61655858  1
  O  O347  1  0.24495631  0.37858955  0.24975478  1
  O  O348  1  0.25366950  0.39207809  0.74471921  1
  O  O349  1  0.25763092  0.87728209  0.23229748  1
  O  O350  1  0.25131175  0.88132148  0.73708898  1
  O  O351  1  0.73910671  0.36839399  0.24739803  1
  O  O352  1  0.73891449  0.38105464  0.74709382  1
  O  O353  1  0.75665562  0.88179840  0.23822117  1
  O  O354  1  0.74205451  0.89190917  0.75503924  1
  O  O355  1  0.26247125  0.12471090  0.25253682  1
  O  O356  1  0.25484126  0.11809002  0.75362776  1
  O  O357  1  0.25648044  0.61659582  0.25486499  1
  O  O358  1  0.24982620  0.60551885  0.75515447  1
  O  O359  1  0.75777596  0.12136481  0.25442493  1
  O  O360  1  0.74153363  0.11543179  0.76435445  1
  O  O361  1  0.75423462  0.62666783  0.25919114  1
  O  O362  1  0.75335303  0.61653802  0.74621314  1
  O  O363  1  0.37104843  0.11662942  0.36919244  1
  O  O364  1  0.36828179  0.11694326  0.86736349  1
  O  O365  1  0.37045705  0.62995352  0.36310995  1
  O  O366  1  0.37352170  0.65548108  0.86703517  1
  O  O367  1  0.86745177  0.11963769  0.37140636  1
  O  O368  1  0.86605964  0.11481904  0.88094650  1
  O  O369  1  0.86006285  0.62864255  0.38069197  1
  O  O370  1  0.87497814  0.62600800  0.86282046  1
  O  O371  1  0.12818038  0.38366541  0.13529263  1
  O  O372  1  0.12584898  0.39192397  0.61706169  1
  O  O373  1  0.13461402  0.87411396  0.12239665  1
  O  O374  1  0.11595350  0.88917835  0.62350738  1
  O  O375  1  0.62848645  0.39322476  0.11802971  1
  O  O376  1  0.62907294  0.38207057  0.63148994  1
  O  O377  1  0.63338373  0.88395782  0.12199369  1
  O  O378  1  0.62043792  0.88777726  0.62982210  1
  O  O379  1  0.11555884  0.25422255  0.24481867  1
  O  O380  1  0.11294797  0.24369324  0.75309322  1
  O  O381  1  0.12388705  0.75331376  0.26398939  1
  O  O382  1  0.12066117  0.75217858  0.76004317  1
  O  O383  1  0.62223119  0.24022018  0.26957848  1
  O  O384  1  0.62146298  0.25648703  0.75778551  1
  O  O385  1  0.61544528  0.74298286  0.25436630  1
  O  O386  1  0.63739623  0.76646485  0.74763718  1
  O  O387  1  0.37516624  0.24490490  0.23647015  1
  O  O388  1  0.37883279  0.24699959  0.74298594  1
  O  O389  1  0.38222257  0.73974095  0.24094052  1
  O  O390  1  0.36764038  0.76942549  0.72971874  1
  O  O391  1  0.88833453  0.24281020  0.25318128  1
  O  O392  1  0.88077708  0.24964215  0.75036358  1
  O  O393  1  0.88521443  0.75554335  0.23677679  1
  O  O394  1  0.87137470  0.74591927  0.74412642  1
  O  O395  1  0.38818663  0.49350246  0.50343659  1
  O  O396  1  0.38919498  0.49273238  1.00665710  1
  O  O397  1  0.37782614  0.99216774  0.49283689  1
  O  O398  1  0.38219309  0.99855929  0.99257172  1
  O  O399  1  0.87317120  0.48903381  0.50824747  1
  O  O400  1  0.88343752  0.49578729  0.99721128  1
  O  O401  1  0.87979420  0.99463566  0.49278917  1
  O  O402  1  0.87941831  0.99683396  0.99202524  1
  O  O403  1  0.11488244  0.00788569  0.00009259  1
  O  O404  1  0.12083753  0.00586869  0.50630790  1
  O  O405  1  0.11862639  0.49759406  0.01083537  1
  O  O406  1  0.13028660  0.51214234  0.50810533  1
  O  O407  1  0.61966825  0.00621411  0.00875492  1
  O  O408  1  0.62172170  0.00248672  0.50641943  1
  O  O409  1  0.61485473  0.50541045  0.00479096  1
  O  O410  1  0.61652364  0.50482559  0.50626156  1
  O  O411  1  0.37482514  0.36436576  0.11343071  1
  O  O412  1  0.37651145  0.36283124  0.61701425  1
  O  O413  1  0.36692120  0.86286380  0.12200974  1
  O  O414  1  0.37226323  0.88088333  0.61518225  1
  O  O415  1  0.87226154  0.37904919  0.11050993  1
  O  O416  1  0.86528519  0.37200765  0.61881547  1
  O  O417  1  0.86792168  0.86864713  0.11841659  1
  O  O418  1  0.87881536  0.86950989  0.61475857  1
  O  O419  1  0.12576478  0.12261045  0.39215994  1
  O  O420  1  0.13415522  0.12495027  0.88508364  1
  O  O421  1  0.13064363  0.63098536  0.38228000  1
  O  O422  1  0.12433857  0.63836873  0.87364199  1
  O  O423  1  0.63191913  0.12888529  0.38418287  1
  O  O424  1  0.63144931  0.12811520  0.88554108  1
  O  O425  1  0.63350668  0.63526137  0.37945230  1
  O  O426  1  0.62334942  0.62773811  0.89076019  1
