# generated using pymatgen
data_V85Zn86O256
_symmetry_space_group_name_H-M   'P 1'
_cell_length_a   16.91598056
_cell_length_b   16.91535442
_cell_length_c   16.91159151
_cell_angle_alpha   90.00023189
_cell_angle_beta   89.99736349
_cell_angle_gamma   89.96848210
_symmetry_Int_Tables_number   1
_chemical_formula_structural   V85Zn86O256
_chemical_formula_sum   'V85 Zn86 O256'
_cell_volume   4839.07878552
_cell_formula_units_Z   1
loop_
 _symmetry_equiv_pos_site_id
 _symmetry_equiv_pos_as_xyz
  1  'x, y, z'
loop_
 _atom_site_type_symbol
 _atom_site_label
 _atom_site_symmetry_multiplicity
 _atom_site_fract_x
 _atom_site_fract_y
 _atom_site_fract_z
 _atom_site_occupancy
  V  V0  1  -0.00307807  0.25865325  0.74751090  1
  V  V1  1  0.87768931  0.00103545  0.87300866  1
  V  V2  1  0.74284515  0.25594538  0.49403326  1
  V  V3  1  0.37247291  0.87371055  0.50024528  1
  V  V4  1  0.87313413  0.87677654  0.49767666  1
  V  V5  1  0.87418913  0.62425622  0.24831649  1
  V  V6  1  0.00018598  0.87536152  0.37280864  1
  V  V7  1  0.49856028  -0.00112408  0.49587498  1
  V  V8  1  0.74691299  0.00201350  0.74738776  1
  V  V9  1  0.74234143  -0.00053254  0.24056122  1
  V  V10  1  -0.00041347  0.00101093  0.49874860  1
  V  V11  1  0.12569827  0.87471463  0.75270595  1
  V  V12  1  0.86602127  0.25859811  0.62059788  1
  V  V13  1  0.12615815  0.60786893  -0.00577554  1
  V  V14  1  0.00126431  0.75019217  0.24436394  1
  V  V15  1  0.13378607  0.74673339  0.88056531  1
  V  V16  1  0.74317137  0.74718461  0.49549797  1
  V  V17  1  0.00341808  0.74755014  0.75247393  1
  V  V18  1  0.87877779  0.38311689  0.00809901  1
  V  V19  1  0.74822604  0.87554637  0.62270774  1
  V  V20  1  0.50615437  0.11949377  0.12576528  1
  V  V21  1  0.24904800  0.25027437  0.52421312  1
  V  V22  1  0.61942993  0.85844033  0.25077759  1
  V  V23  1  0.74297511  0.13243639  0.87324007  1
  V  V24  1  0.24988784  0.12814241  0.37570788  1
  V  V25  1  0.62744721  0.63804508  -0.00254696  1
  V  V26  1  0.12309232  0.49751149  0.14350996  1
  V  V27  1  0.24174496  0.74260206  0.50097436  1
  V  V28  1  0.25257635  -0.00199641  0.75288204  1
  V  V29  1  0.50284825  0.75252076  0.76480273  1
  V  V30  1  0.24820548  0.49269246  0.74770341  1
  V  V31  1  0.49527213  0.12999164  0.62269421  1
  V  V32  1  0.00102270  0.38577394  0.87667713  1
  V  V33  1  0.50272816  0.50016296  -0.00037469  1
  V  V34  1  0.36891624  -0.00426578  0.37050644  1
  V  V35  1  0.24092368  0.61851994  0.37450394  1
  V  V36  1  0.37198120  0.11843986  0.24821371  1
  V  V37  1  0.00604204  0.62316751  0.60838942  1
  V  V38  1  0.50102576  0.25191911  0.74908252  1
  V  V39  1  0.25147323  0.87968403  0.12733584  1
  V  V40  1  0.62639785  0.12541266  0.00187564  1
  V  V41  1  0.86662783  0.75089831  0.11874587  1
  V  V42  1  0.37890438  0.87238166  -0.00669763  1
  V  V43  1  0.24406170  0.24632909  -0.00008209  1
  V  V44  1  0.62071967  0.87336973  0.76332215  1
  V  V45  1  0.74910647  0.25704691  0.00208398  1
  V  V46  1  0.36842872  0.49217139  0.37271125  1
  V  V47  1  0.50599170  0.36638122  0.37569452  1
  V  V48  1  0.87929108  0.24063044  0.12389503  1
  V  V49  1  0.87019014  0.12879316  0.74610032  1
  V  V50  1  0.74286884  0.62475891  0.37491271  1
  V  V51  1  0.12661637  0.49766329  0.61085741  1
  V  V52  1  0.62347612  0.00068271  0.62135116  1
  V  V53  1  0.37128561  0.62449588  0.75546759  1
  V  V54  1  0.87591809  0.38302973  0.49798036  1
  V  V55  1  0.87458371  0.87477389  -0.00040960  1
  V  V56  1  0.37194485  0.37051806  0.51539083  1
  V  V57  1  0.74712963  0.63938061  0.87748238  1
  V  V58  1  0.37390472  0.74812099  0.62827566  1
  V  V59  1  0.13049573  0.87908631  0.24930809  1
  V  V60  1  0.50071383  0.50146458  0.50019973  1
  V  V61  1  0.50478850  0.36915939  0.87789655  1
  V  V62  1  0.50547266  0.62720871  0.62401165  1
  V  V63  1  0.62898559  0.49131075  0.12330237  1
  V  V64  1  0.75115390  0.49976494  0.75104821  1
  V  V65  1  0.50103301  0.62683629  0.13077418  1
  V  V66  1  0.24944517  0.38038838  0.13955387  1
  V  V67  1  0.50564075  -0.00510446  -0.00439621  1
  V  V68  1  0.74473451  0.12831168  0.37032134  1
  V  V69  1  0.87539320  0.74974879  0.62430574  1
  V  V70  1  -0.00481766  0.12630391  0.62449475  1
  V  V71  1  0.87600148  0.62549106  0.75197907  1
  V  V72  1  0.37521348  0.37467573  0.00211128  1
  V  V73  1  0.37604574  0.12897049  0.75200919  1
  V  V74  1  0.75265391  0.49060516  0.24784847  1
  V  V75  1  0.12159276  0.00907969  0.12004671  1
  V  V76  1  0.63042529  0.37307998  0.75162741  1
  V  V77  1  0.00632823  0.37987701  0.37266969  1
  V  V78  1  0.37057817  0.61854305  0.24998149  1
  V  V79  1  0.36830251  0.50217277  0.87804954  1
  V  V80  1  0.62899662  0.49969019  0.62237515  1
  V  V81  1  0.37731300  0.24878912  0.12812266  1
  V  V82  1  0.12361946  0.00124777  0.62885897  1
  V  V83  1  0.37585274  0.75093448  0.13299699  1
  V  V84  1  0.01007781  0.24336625  0.24844784  1
  Zn  Zn85  1  0.74239590  0.87618128  0.11834670  1
  Zn  Zn86  1  0.87847900  0.50293006  0.37963287  1
  Zn  Zn87  1  0.87674645  0.50574348  0.88221251  1
  Zn  Zn88  1  0.25009439  0.74533930  0.00151579  1
  Zn  Zn89  1  0.57878057  0.68967576  0.43419151  1
  Zn  Zn90  1  0.87907875  0.12048127  0.24609261  1
  Zn  Zn91  1  0.50127870  0.85560468  0.37021136  1
  Zn  Zn92  1  0.00271460  0.02150539  0.00468115  1
  Zn  Zn93  1  0.87442722  0.00211678  0.36948795  1
  Zn  Zn94  1  -0.00206418  0.61543302  0.11936129  1
  Zn  Zn95  1  0.00203481  0.87448578  0.87960588  1
  Zn  Zn96  1  0.37946103  -0.00246172  0.87460223  1
  Zn  Zn97  1  0.12397268  0.12687906  0.49951347  1
  Zn  Zn98  1  0.61943891  0.13295140  0.49233488  1
  Zn  Zn99  1  0.51006949  0.24177732  0.25777201  1
  Zn  Zn100  1  0.63320010  0.36708126  0.25134799  1
  Zn  Zn101  1  0.13070622  0.25534241  0.37507705  1
  Zn  Zn102  1  0.12659055  0.37736641  0.74932404  1
  Zn  Zn103  1  0.24771438  0.12254385  0.88293190  1
  Zn  Zn104  1  0.10313159  0.23558043  0.89589657  1
  Zn  Zn105  1  0.24870517  0.87219103  0.62481000  1
  Zn  Zn106  1  0.12289316  0.74631831  0.37663826  1
  Zn  Zn107  1  0.19165898  0.18855268  0.18887053  1
  Zn  Zn108  1  0.17534058  0.17798159  0.71146694  1
  Zn  Zn109  1  0.18847922  0.68666628  0.18556728  1
  Zn  Zn110  1  0.18781043  0.68077900  0.68912997  1
  Zn  Zn111  1  0.68917723  0.19081943  0.18486931  1
  Zn  Zn112  1  0.68265615  0.19109249  0.68274492  1
  Zn  Zn113  1  0.68768092  0.68369804  0.18595456  1
  Zn  Zn114  1  0.68668537  0.68895610  0.68966729  1
  Zn  Zn115  1  0.31917960  0.30659486  0.31666807  1
  Zn  Zn116  1  0.31610819  0.31363473  0.81281108  1
  Zn  Zn117  1  0.31242039  0.80746238  0.31273146  1
  Zn  Zn118  1  0.31216633  0.81126199  0.81365146  1
  Zn  Zn119  1  0.81985284  0.30837633  0.31353647  1
  Zn  Zn120  1  0.81487418  0.31724717  0.81785191  1
  Zn  Zn121  1  0.80939342  0.81335913  0.31068679  1
  Zn  Zn122  1  0.81171443  0.81570707  0.81103097  1
  Zn  Zn123  1  0.19012825  0.43115052  0.44077716  1
  Zn  Zn124  1  0.18834263  0.42767869  0.93652913  1
  Zn  Zn125  1  0.18677378  0.93696108  0.43791703  1
  Zn  Zn126  1  0.18983573  0.93446061  0.94031022  1
  Zn  Zn127  1  0.69010902  0.44107502  0.43724488  1
  Zn  Zn128  1  0.69112965  0.44155500  0.93585108  1
  Zn  Zn129  1  0.68560902  0.93869580  0.42950547  1
  Zn  Zn130  1  0.69165066  0.94239654  0.93976478  1
  Zn  Zn131  1  0.31249468  0.05864077  0.06274556  1
  Zn  Zn132  1  0.31107288  0.06383429  0.56510443  1
  Zn  Zn133  1  0.30755301  0.56234924  0.06200284  1
  Zn  Zn134  1  0.31213463  0.55937441  0.56303105  1
  Zn  Zn135  1  0.81338795  0.06239214  0.05971677  1
  Zn  Zn136  1  0.81023783  0.06644348  0.55563359  1
  Zn  Zn137  1  0.80844203  0.56568114  0.06348139  1
  Zn  Zn138  1  0.81198468  0.56499925  0.56438570  1
  Zn  Zn139  1  0.43918548  0.43822373  0.19065287  1
  Zn  Zn140  1  0.44150807  0.44054028  0.69112200  1
  Zn  Zn141  1  0.44337433  0.93690177  0.18552956  1
  Zn  Zn142  1  0.43812751  0.93636093  0.68728108  1
  Zn  Zn143  1  0.93939436  0.43151067  0.19013039  1
  Zn  Zn144  1  0.93763686  0.44210106  0.68275746  1
  Zn  Zn145  1  0.93772364  0.94018809  0.18484298  1
  Zn  Zn146  1  0.93703875  0.93661370  0.68979713  1
  Zn  Zn147  1  0.06647598  0.06082114  0.30973095  1
  Zn  Zn148  1  0.05526986  0.07993014  0.83649347  1
  Zn  Zn149  1  0.05951819  0.56182208  0.31205586  1
  Zn  Zn150  1  0.06489089  0.56340682  0.81081118  1
  Zn  Zn151  1  0.56356919  0.05812427  0.31195761  1
  Zn  Zn152  1  0.56281127  0.06211041  0.81433664  1
  Zn  Zn153  1  0.55889852  0.55295591  0.30807554  1
  Zn  Zn154  1  0.56198544  0.56290803  0.81498254  1
  Zn  Zn155  1  0.42928294  0.18874741  0.44200282  1
  Zn  Zn156  1  0.43623448  0.18689077  0.93778150  1
  Zn  Zn157  1  0.41794531  0.68197013  0.44015207  1
  Zn  Zn158  1  0.43735333  0.68604297  0.94276916  1
  Zn  Zn159  1  0.93445199  0.18968221  0.43343676  1
  Zn  Zn160  1  0.93291337  0.18908941  0.93553675  1
  Zn  Zn161  1  0.93123859  0.69177506  0.43200059  1
  Zn  Zn162  1  0.94386872  0.68580099  0.93964474  1
  Zn  Zn163  1  0.06182313  0.31922998  0.06846964  1
  Zn  Zn164  1  0.06064394  0.31374654  0.56014532  1
  Zn  Zn165  1  0.05889386  0.81644823  0.06026175  1
  Zn  Zn166  1  0.06206340  0.81398603  0.56396139  1
  Zn  Zn167  1  0.56445242  0.30636335  0.06462839  1
  Zn  Zn168  1  0.56229743  0.31664108  0.56585899  1
  Zn  Zn169  1  0.56213931  0.81371108  0.07019184  1
  Zn  Zn170  1  0.55839599  0.81662947  0.56856347  1
  O  O171  1  0.13616367  0.10674034  0.13157045  1
  O  O172  1  0.11599283  0.11261827  0.62865443  1
  O  O173  1  0.12639959  0.60871415  0.12042279  1
  O  O174  1  0.11254335  0.61833582  0.62587683  1
  O  O175  1  0.61667283  0.12665658  0.11583803  1
  O  O176  1  0.61431599  0.11419616  0.62278245  1
  O  O177  1  0.61730665  0.61664657  0.12073265  1
  O  O178  1  0.61233125  0.61767641  0.63341345  1
  O  O179  1  0.38126421  0.37824685  0.38563953  1
  O  O180  1  0.38407753  0.38200247  0.88226582  1
  O  O181  1  0.37639883  0.88017616  0.38095614  1
  O  O182  1  0.37341145  0.87273227  0.88959584  1
  O  O183  1  0.88491402  0.37683719  0.38166927  1
  O  O184  1  0.88193145  0.38113621  0.88827598  1
  O  O185  1  0.88199712  0.87596914  0.38065190  1
  O  O186  1  0.87447238  0.88362342  0.87945350  1
  O  O187  1  0.26323448  0.00676512  0.38374231  1
  O  O188  1  0.25024981  0.00199753  0.86395410  1
  O  O189  1  0.25988218  0.50236163  0.38225157  1
  O  O190  1  0.26233742  0.49308282  0.86970192  1
  O  O191  1  0.75224922  0.01074259  0.36584674  1
  O  O192  1  0.75925369  0.00890917  0.86706620  1
  O  O193  1  0.75569800  0.50783820  0.36689454  1
  O  O194  1  0.75280309  0.51019397  0.86303622  1
  O  O195  1  0.24542306  0.48639601  0.12563274  1
  O  O196  1  0.23545853  0.50726730  0.63200169  1
  O  O197  1  0.24454513  0.98599508  0.12326481  1
  O  O198  1  0.24173900  0.99853854  0.63482712  1
  O  O199  1  0.74004331  0.50595465  0.13483151  1
  O  O200  1  0.74098180  0.51011527  0.63874420  1
  O  O201  1  0.75293892  1.00097866  0.13707298  1
  O  O202  1  0.74048811  0.99858856  0.62556968  1
  O  O203  1  -0.00574582  0.36133524  0.26495817  1
  O  O204  1  -0.00634427  0.37378920  0.75779610  1
  O  O205  1  0.00524047  0.86882595  0.25433060  1
  O  O206  1  0.00573353  0.86034078  0.74696643  1
  O  O207  1  0.49630579  0.37353446  0.26822524  1
  O  O208  1  0.50495647  0.36883036  0.75799748  1
  O  O209  1  0.51366187  0.87529977  0.25099905  1
  O  O210  1  0.50793336  0.86582914  0.74665368  1
  O  O211  1  0.49181319  0.12151151  0.24362528  1
  O  O212  1  0.49505523  0.13086818  0.74545203  1
  O  O213  1  0.48683899  0.61610696  0.24183126  1
  O  O214  1  0.49158403  0.63003004  0.74510367  1
  O  O215  1  0.99804510  0.13885648  0.25756058  1
  O  O216  1  0.98776365  0.13740949  0.74444733  1
  O  O217  1  0.99191151  0.63205251  0.24653319  1
  O  O218  1  0.99675103  0.63510145  0.74505163  1
  O  O219  1  0.37094024  0.25357458  0.01321880  1
  O  O220  1  0.36028562  0.25555529  0.50574969  1
  O  O221  1  0.37476243  0.75437373  0.01253340  1
  O  O222  1  0.36298164  0.75710813  0.50914784  1
  O  O223  1  0.87070827  0.25751518  0.00497984  1
  O  O224  1  0.86483794  0.25749220  0.50397422  1
  O  O225  1  0.88321165  0.75934588  0.00790456  1
  O  O226  1  0.86554276  0.75830772  0.50482580  1
  O  O227  1  0.13736999  0.24725380  0.50030157  1
  O  O228  1  0.13950601  0.25446054  1.00601277  1
  O  O229  1  0.13798046  0.75635201  0.49886686  1
  O  O230  1  0.12537746  0.74653827  0.99329054  1
  O  O231  1  0.63839814  0.25160741  0.50793985  1
  O  O232  1  0.63542601  0.23931219  1.00254845  1
  O  O233  1  0.63804557  0.75331512  0.51026480  1
  O  O234  1  0.62066411  0.73718428  1.00628063  1
  O  O235  1  0.49099838  0.23732061  0.12362638  1
  O  O236  1  0.50440662  0.24074888  0.63349191  1
  O  O237  1  0.49209843  0.73412245  0.12283774  1
  O  O238  1  0.49288480  0.74262417  0.63117073  1
  O  O239  1  0.99701996  0.25589951  0.13997982  1
  O  O240  1  0.98462960  0.24535168  0.62407587  1
  O  O241  1  0.99217191  0.75118628  0.13543634  1
  O  O242  1  0.99842929  0.74043371  0.63022009  1
  O  O243  1  0.00357101  0.25587946  0.36520453  1
  O  O244  1  -0.00726796  0.26385025  0.86177888  1
  O  O245  1  0.00105412  0.75539840  0.36296058  1
  O  O246  1  0.01077615  0.75105479  0.86648890  1
  O  O247  1  0.49459622  0.26235606  0.37917794  1
  O  O248  1  0.49759833  0.26236521  0.87065508  1
  O  O249  1  0.49448950  0.74401048  0.38734640  1
  O  O250  1  0.49722990  0.74524447  0.86390505  1
  O  O251  1  0.25119941  0.13541986  0.49609015  1
  O  O252  1  0.25580302  0.14058644  1.00140558  1
  O  O253  1  0.25884378  0.63254887  0.48955752  1
  O  O254  1  0.23229552  0.62840753  1.00587957  1
  O  O255  1  0.74525283  0.13256223  0.48694205  1
  O  O256  1  0.74454190  0.13010272  0.99210714  1
  O  O257  1  0.75556352  0.63471572  0.49008265  1
  O  O258  1  0.74032207  0.62244026  0.99021619  1
  O  O259  1  0.25847726  0.36592841  0.01090244  1
  O  O260  1  0.25649205  0.35953272  0.50497880  1
  O  O261  1  0.26116479  0.87063033  0.00883646  1
  O  O262  1  0.25971521  0.86875980  0.50109992  1
  O  O263  1  0.76275915  0.36746352  -0.00667729  1
  O  O264  1  0.75994038  0.36586973  0.48954104  1
  O  O265  1  0.76680367  0.88502147  0.00281801  1
  O  O266  1  0.75355101  0.87085248  0.50252261  1
  O  O267  1  0.13103707  0.50164875  0.24184796  1
  O  O268  1  0.13479707  0.50031926  0.74419217  1
  O  O269  1  0.12190428  0.98581228  0.23986082  1
  O  O270  1  0.13223365  0.99416792  0.74504861  1
  O  O271  1  0.63391713  0.49310806  0.24188687  1
  O  O272  1  0.63055223  0.49540652  0.74396605  1
  O  O273  1  0.63893814  0.99633617  0.25008704  1
  O  O274  1  0.62711841  0.99574155  0.74123273  1
  O  O275  1  0.37969551  0.00496459  0.25918797  1
  O  O276  1  0.36956806  0.00361732  0.75260891  1
  O  O277  1  0.37434541  0.50450633  0.26034865  1
  O  O278  1  0.37166826  0.50596029  0.75750541  1
  O  O279  1  0.86350968  0.00121788  0.24957086  1
  O  O280  1  0.86360024  0.00595315  0.74983327  1
  O  O281  1  0.87015839  0.51063212  0.24484063  1
  O  O282  1  0.86693288  0.50865429  0.74872911  1
  O  O283  1  0.11102756  0.37404124  0.38005580  1
  O  O284  1  0.11467210  0.36586086  0.87230473  1
  O  O285  1  0.11908721  0.87328061  0.36708400  1
  O  O286  1  0.12365575  0.86672201  0.86957410  1
  O  O287  1  0.60811959  0.38276965  0.37650922  1
  O  O288  1  0.61643106  0.38339927  0.86444566  1
  O  O289  1  0.61983984  0.87881761  0.35883477  1
  O  O290  1  0.63165404  0.88262821  0.86205204  1
  O  O291  1  0.37861746  0.12936456  0.13202812  1
  O  O292  1  0.38975303  0.11731141  0.63265827  1
  O  O293  1  0.37837057  0.62785031  0.13116430  1
  O  O294  1  0.38590513  0.62645011  0.63327142  1
  O  O295  1  0.88103609  0.13633129  0.11907653  1
  O  O296  1  0.87600763  0.13231643  0.62812233  1
  O  O297  1  0.87849413  0.63202338  0.12926414  1
  O  O298  1  0.88662667  0.63039726  0.63012916  1
  O  O299  1  0.25679226  0.25802766  0.11921520  1
  O  O300  1  0.24239408  0.23972494  0.62140208  1
  O  O301  1  0.25777505  0.75929387  0.12431629  1
  O  O302  1  0.25508481  0.74725835  0.62011955  1
  O  O303  1  0.76199388  0.24589463  0.11042034  1
  O  O304  1  0.75970252  0.24462682  0.61465237  1
  O  O305  1  0.76339563  0.75090336  0.12869372  1
  O  O306  1  0.75643859  0.75420721  0.61940496  1
  O  O307  1  0.24996487  0.24113004  0.38142074  1
  O  O308  1  0.25806678  0.25547984  0.89582429  1
  O  O309  1  0.24983569  0.73824964  0.38340249  1
  O  O310  1  0.23787957  0.74921726  0.87621251  1
  O  O311  1  0.75213309  0.23882502  0.37904930  1
  O  O312  1  0.75720007  0.24216581  0.88650381  1
  O  O313  1  0.75304026  0.74088750  0.38394568  1
  O  O314  1  0.74988349  0.73888469  0.86772010  1
  O  O315  1  0.02029149  0.11977025  -0.05382625  1
  O  O316  1  -0.00008428  0.11909440  0.50536314  1
  O  O317  1  0.01950201  0.62632442  0.00522914  1
  O  O318  1  -0.00435319  0.63272537  0.50998307  1
  O  O319  1  0.50812467  0.12184326  0.00501333  1
  O  O320  1  0.49945133  0.11984050  0.50597117  1
  O  O321  1  0.50671315  0.61689448  0.00718812  1
  O  O322  1  0.49923945  0.61928945  0.50827410  1
  O  O323  1  0.49368429  0.37900740  0.49287575  1
  O  O324  1  0.49644981  0.37808832  0.99523825  1
  O  O325  1  0.48835018  0.88191615  0.49962470  1
  O  O326  1  0.49333233  0.88398250  1.00983474  1
  O  O327  1  0.98960790  0.36612707  0.48378581  1
  O  O328  1  0.98776072  0.36982010  0.99299253  1
  O  O329  1  0.99426612  0.87937140  0.49402780  1
  O  O330  1  0.98836132  0.88510551  0.99695247  1
  O  O331  1  0.48910439  0.49212154  0.38241300  1
  O  O332  1  0.49152141  0.49043140  0.87927092  1
  O  O333  1  0.48911182  1.00202104  0.38671832  1
  O  O334  1  0.49872810  1.00408991  0.89013838  1
  O  O335  1  0.99636354  0.48572127  0.36914865  1
  O  O336  1  0.99778620  0.49041642  0.87096693  1
  O  O337  1  0.99951292  0.99441822  0.38157020  1
  O  O338  1  0.98231785  0.99226079  0.85356908  1
  O  O339  1  0.01520743  0.00176830  0.12297606  1
  O  O340  1  0.00489197  0.00404494  0.62098662  1
  O  O341  1  0.01809598  0.49467502  0.13193546  1
  O  O342  1  0.00969599  0.51611049  0.62673669  1
  O  O343  1  0.49415234  0.01330226  0.11319423  1
  O  O344  1  0.50464750  0.00429480  0.61429358  1
  O  O345  1  0.50497782  0.50767859  0.12020395  1
  O  O346  1  0.50736343  0.50818840  0.62135316  1
  O  O347  1  0.25680207  0.36624419  0.23756350  1
  O  O348  1  0.25222813  0.38756475  0.75054330  1
  O  O349  1  0.24101639  0.86840191  0.24371137  1
  O  O350  1  0.24616831  0.88184578  0.74764886  1
  O  O351  1  0.75504319  0.38721718  0.25639744  1
  O  O352  1  0.74201915  0.38449028  0.75649346  1
  O  O353  1  0.74229488  0.88587743  0.24982518  1
  O  O354  1  0.74282672  0.88124095  0.74024098  1
  O  O355  1  0.26435358  0.12911810  0.25841987  1
  O  O356  1  0.26855777  0.11596902  0.74149212  1
  O  O357  1  0.26153440  0.62854257  0.25752465  1
  O  O358  1  0.26489077  0.61453803  0.74769952  1
  O  O359  1  0.75100870  0.11660809  0.25488609  1
  O  O360  1  0.74972466  0.12407422  0.75414134  1
  O  O361  1  0.75688222  0.61813982  0.25575728  1
  O  O362  1  0.75554487  0.62119472  0.75613552  1
  O  O363  1  0.36810338  0.11789028  0.36961651  1
  O  O364  1  0.37169319  0.12200330  0.86585333  1
  O  O365  1  0.36456951  0.61154884  0.36709165  1
  O  O366  1  0.38096556  0.61437511  0.86885758  1
  O  O367  1  0.86070252  0.12278522  0.37252497  1
  O  O368  1  0.86229107  0.12008022  0.86504803  1
  O  O369  1  0.86697618  0.62312576  0.36441725  1
  O  O370  1  0.86964019  0.62520278  0.87109120  1
  O  O371  1  0.13857797  0.38651308  0.12416795  1
  O  O372  1  0.11272785  0.39495409  0.62608554  1
  O  O373  1  0.13332781  0.87843050  0.13087578  1
  O  O374  1  0.12529235  0.88548582  0.63207785  1
  O  O375  1  0.61850145  0.38832789  0.12400978  1
  O  O376  1  0.61938570  0.38622966  0.64106872  1
  O  O377  1  0.62829499  0.87264833  0.14140628  1
  O  O378  1  0.62812986  0.88782531  0.63003391  1
  O  O379  1  0.11427171  0.24795199  0.25171262  1
  O  O380  1  0.10082750  0.26357039  0.72866158  1
  O  O381  1  0.11649790  0.75762164  0.24885479  1
  O  O382  1  0.12102984  0.75157367  0.75604375  1
  O  O383  1  0.62094481  0.25626111  0.24257930  1
  O  O384  1  0.61406154  0.25895871  0.74776879  1
  O  O385  1  0.63084834  0.75906442  0.25218922  1
  O  O386  1  0.61473173  0.76134611  0.74398895  1
  O  O387  1  0.38233006  0.24050019  0.24080836  1
  O  O388  1  0.38844158  0.24312235  0.75341551  1
  O  O389  1  0.37434557  0.74076576  0.23922953  1
  O  O390  1  0.37969451  0.74296498  0.74722911  1
  O  O391  1  0.88307116  0.24532782  0.23945147  1
  O  O392  1  0.87697754  0.25159321  0.73948577  1
  O  O393  1  0.87978120  0.74152689  0.24399658  1
  O  O394  1  0.88365149  0.74674403  0.74399811  1
  O  O395  1  0.37981892  0.49162804  0.49457118  1
  O  O396  1  0.37986456  0.49625681  0.99494401  1
  O  O397  1  0.37889472  0.99179075  0.49678636  1
  O  O398  1  0.38270562  0.99030371  0.99854534  1
  O  O399  1  0.86970651  0.48747567  0.50170687  1
  O  O400  1  0.87134304  0.48680499  1.00473873  1
  O  O401  1  0.88220208  0.99241510  0.49980749  1
  O  O402  1  0.88208480  1.00031428  0.98805483  1
  O  O403  1  0.12569410  -0.00522607  0.01494104  1
  O  O404  1  0.11793129  0.00063741  0.51017651  1
  O  O405  1  0.13097581  0.50590334  0.00299305  1
  O  O406  1  0.13034454  0.50178188  0.51170082  1
  O  O407  1  0.62024775  0.01328348  -0.00223424  1
  O  O408  1  0.61498122  0.00005672  0.50460126  1
  O  O409  1  0.62130423  0.50553625  0.00643626  1
  O  O410  1  0.62189313  0.49418748  0.51545258  1
  O  O411  1  0.36984073  0.36845793  0.12346217  1
  O  O412  1  0.38279649  0.38028661  0.61434786  1
  O  O413  1  0.37077230  0.86745476  0.12277447  1
  O  O414  1  0.37266814  0.86825585  0.61710749  1
  O  O415  1  0.88063832  0.36481007  0.11257634  1
  O  O416  1  0.88006949  0.36809031  0.61389795  1
  O  O417  1  0.87377024  0.86790340  0.11760933  1
  O  O418  1  0.86869008  0.86983640  0.61894818  1
  O  O419  1  0.14086690  0.12143194  0.37643600  1
  O  O420  1  0.14594232  0.14925166  0.83154340  1
  O  O421  1  0.13689999  0.62459662  0.36973426  1
  O  O422  1  0.12326992  0.62846332  0.88740540  1
  O  O423  1  0.63815435  0.12149504  0.37506266  1
  O  O424  1  0.63682149  0.12356864  0.87966054  1
  O  O425  1  0.63704038  0.61420078  0.37185428  1
  O  O426  1  0.63269570  0.62126356  0.88518181  1
