# generated using pymatgen
data_V85Zn86O256
_symmetry_space_group_name_H-M   'P 1'
_cell_length_a   16.97080003
_cell_length_b   16.96351292
_cell_length_c   16.97728940
_cell_angle_alpha   90.01098281
_cell_angle_beta   90.04447883
_cell_angle_gamma   90.01277602
_symmetry_Int_Tables_number   1
_chemical_formula_structural   V85Zn86O256
_chemical_formula_sum   'V85 Zn86 O256'
_cell_volume   4887.49484173
_cell_formula_units_Z   1
loop_
 _symmetry_equiv_pos_site_id
 _symmetry_equiv_pos_as_xyz
  1  'x, y, z'
loop_
 _atom_site_type_symbol
 _atom_site_label
 _atom_site_symmetry_multiplicity
 _atom_site_fract_x
 _atom_site_fract_y
 _atom_site_fract_z
 _atom_site_occupancy
  V  V0  1  0.12480456  0.24503683  0.86731876  1
  V  V1  1  0.86259505  0.86758316  0.49613739  1
  V  V2  1  0.88212357  0.87387712  0.00222619  1
  V  V3  1  -0.00048061  0.24485328  0.24844601  1
  V  V4  1  0.74026948  0.37829990  0.12520160  1
  V  V5  1  0.49104427  0.51012867  0.50232856  1
  V  V6  1  -0.00088078  0.12089008  0.62421762  1
  V  V7  1  0.38235686  0.50074777  0.87983911  1
  V  V8  1  0.87567464  0.49915902  0.37173193  1
  V  V9  1  0.37310693  0.63497433  0.25131056  1
  V  V10  1  0.86189227  0.62458759  0.74593065  1
  V  V11  1  0.12728308  0.62180114  0.50436173  1
  V  V12  1  0.12543598  0.75014621  0.87339340  1
  V  V13  1  0.24798700  0.87500947  0.63644409  1
  V  V14  1  0.12476559  0.25055460  0.37679257  1
  V  V15  1  0.01439893  0.01642183  0.01328071  1
  V  V16  1  -0.00195959  0.37370776  0.37780475  1
  V  V17  1  0.62895282  0.12480556  0.00235734  1
  V  V18  1  0.12710194  -0.00305729  0.63710699  1
  V  V19  1  0.37442646  0.12559256  0.25169541  1
  V  V20  1  0.74456419  0.87642632  0.63924384  1
  V  V21  1  0.37756418  0.25030350  0.63521820  1
  V  V22  1  0.12472214  0.75459069  0.37547173  1
  V  V23  1  0.69040279  0.43651863  0.31490240  1
  V  V24  1  0.74716243  0.47812725  0.74705959  1
  V  V25  1  0.60336120  0.61763700  -0.01827944  1
  V  V26  1  0.49788546  0.75727701  0.23480745  1
  V  V27  1  0.37358708  0.87787775  0.00394847  1
  V  V28  1  0.75173677  0.25255821  0.50067421  1
  V  V29  1  0.42702953  0.44505207  0.32656887  1
  V  V30  1  0.22293982  0.23249897  0.02071326  1
  V  V31  1  0.50095321  0.62207975  0.12468014  1
  V  V32  1  0.38047808  0.25107171  0.12047941  1
  V  V33  1  0.25084008  0.75197999  0.49824031  1
  V  V34  1  0.75458553  0.86912923  0.12041413  1
  V  V35  1  0.87668751  0.12211002  0.24703973  1
  V  V36  1  0.25993591  0.12991543  0.86472161  1
  V  V37  1  0.00302245  -0.01243802  0.49939091  1
  V  V38  1  0.11956427  0.38760594  0.74312947  1
  V  V39  1  0.87911196  0.00365343  0.87678200  1
  V  V40  1  0.12498184  0.12302394  0.50166273  1
  V  V41  1  0.23760435  0.50136001  0.25234083  1
  V  V42  1  0.87076466  0.25339816  0.62448466  1
  V  V43  1  0.63213270  0.62622776  0.50186652  1
  V  V44  1  -0.00097240  0.75190539  0.25275251  1
  V  V45  1  0.50085693  0.12218643  0.12376027  1
  V  V46  1  0.63066145  0.75297702  0.37912775  1
  V  V47  1  0.24711593  0.62341175  0.87875513  1
  V  V48  1  0.74794495  0.24864380  -0.00649373  1
  V  V49  1  0.62305873  -0.00342785  0.11998823  1
  V  V50  1  0.50205159  0.63052118  0.62818972  1
  V  V51  1  0.69248107  0.05566190  0.82050637  1
  V  V52  1  0.38390666  0.37649745  0.49996418  1
  V  V53  1  0.00993019  0.87732626  0.87430326  1
  V  V54  1  -0.00241792  0.25031875  0.74719330  1
  V  V55  1  0.37458980  0.62778362  0.75230110  1
  V  V56  1  0.24294104  0.88890955  0.12570327  1
  V  V57  1  0.00458059  0.74886614  0.74646954  1
  V  V58  1  0.00724431  0.61635111  0.13037904  1
  V  V59  1  0.37492635  0.87601930  0.49770951  1
  V  V60  1  0.49719501  0.13355542  0.63165984  1
  V  V61  1  0.24627729  0.50210205  0.75067253  1
  V  V62  1  0.86741704  0.62372838  0.25144232  1
  V  V63  1  0.87397411  0.11509716  0.74982891  1
  V  V64  1  0.88113904  -0.00497259  0.37494225  1
  V  V65  1  0.37492835  0.75067431  0.62624312  1
  V  V66  1  0.37633301  0.37266229  -0.00408356  1
  V  V67  1  0.49957745  0.87656745  0.37263778  1
  V  V68  1  0.24693281  0.74956979  0.01215756  1
  V  V69  1  0.87733901  0.37255711  -0.00007574  1
  V  V70  1  0.75152574  -0.00053982  0.24817515  1
  V  V71  1  0.62505133  0.87620878  0.24747690  1
  V  V72  1  0.74783275  0.12326368  0.37445548  1
  V  V73  1  0.01175887  0.49232210  0.00635901  1
  V  V74  1  0.24196429  0.38129678  0.12254880  1
  V  V75  1  0.25162663  0.25196094  0.50057624  1
  V  V76  1  -0.00249707  0.37816527  0.87473263  1
  V  V77  1  0.62310393  0.12838047  0.49852560  1
  V  V78  1  0.50982447  0.76444786  0.76372678  1
  V  V79  1  0.11960363  0.88193530  0.25051869  1
  V  V80  1  0.24616577  0.38213935  0.62187299  1
  V  V81  1  0.00309914  0.49942079  0.50659797  1
  V  V82  1  0.50065663  0.00196587  0.50072960  1
  V  V83  1  0.50511221  0.36583999  0.86594737  1
  V  V84  1  0.87339055  0.24375690  0.12489949  1
  Zn  Zn85  1  0.86630900  0.37980745  0.50424560  1
  Zn  Zn86  1  0.85003695  0.53382152  0.90170868  1
  Zn  Zn87  1  0.25163118  0.12331234  0.37685018  1
  Zn  Zn88  1  0.37271426  0.00183675  0.37207876  1
  Zn  Zn89  1  0.62938350  0.50135505  0.12971158  1
  Zn  Zn90  1  0.25610320  0.62171565  0.37752043  1
  Zn  Zn91  1  0.53987646  -0.05649875  -0.04951370  1
  Zn  Zn92  1  0.62629479  -0.00149394  0.63539087  1
  Zn  Zn93  1  0.11935402  0.37924195  0.24432028  1
  Zn  Zn94  1  0.62631992  0.24640998  0.86239415  1
  Zn  Zn95  1  0.74947849  0.62675403  0.37646437  1
  Zn  Zn96  1  0.00281976  0.62426395  0.62479118  1
  Zn  Zn97  1  0.37459597  -0.00443123  0.88148485  1
  Zn  Zn98  1  0.24279993  0.00566362  0.25241948  1
  Zn  Zn99  1  0.62965442  0.49460745  0.62901401  1
  Zn  Zn100  1  0.27269832  0.00865271  0.74640791  1
  Zn  Zn101  1  0.12534230  0.61998392  0.00509562  1
  Zn  Zn102  1  0.87683444  0.74601781  0.12229859  1
  Zn  Zn103  1  0.75297663  0.70533024  -0.04978499  1
  Zn  Zn104  1  0.50594028  0.26020172  0.25499729  1
  Zn  Zn105  1  0.62044163  0.25610406  0.36573807  1
  Zn  Zn106  1  0.87162439  0.74809264  0.61790994  1
  Zn  Zn107  1  0.18879414  0.19157638  0.19013225  1
  Zn  Zn108  1  0.18771606  0.19115496  0.68600914  1
  Zn  Zn109  1  0.18455963  0.68824120  0.18976916  1
  Zn  Zn110  1  0.18554258  0.68877768  0.68880423  1
  Zn  Zn111  1  0.68558545  0.19248215  0.18916335  1
  Zn  Zn112  1  0.68740502  0.18376795  0.68443939  1
  Zn  Zn113  1  0.68554117  0.68995328  0.18568500  1
  Zn  Zn114  1  0.68728060  0.69706987  0.68615089  1
  Zn  Zn115  1  0.30740201  0.30646312  0.30549765  1
  Zn  Zn116  1  0.30837175  0.31464269  0.81255747  1
  Zn  Zn117  1  0.31143765  0.81421361  0.30885190  1
  Zn  Zn118  1  0.31576729  0.81128232  0.81739462  1
  Zn  Zn119  1  0.81508106  0.30720113  0.31522066  1
  Zn  Zn120  1  0.81292310  0.30924727  0.81315994  1
  Zn  Zn121  1  0.81288194  0.81266236  0.31128924  1
  Zn  Zn122  1  0.83021287  0.81511353  0.80508036  1
  Zn  Zn123  1  0.18941449  0.43890662  0.43354973  1
  Zn  Zn124  1  0.18890332  0.42877864  0.93471682  1
  Zn  Zn125  1  0.18958186  0.93701321  0.43660178  1
  Zn  Zn126  1  0.18808436  0.94370711  0.93672780  1
  Zn  Zn127  1  0.61703218  0.37787336  0.49764893  1
  Zn  Zn128  1  0.68796685  0.44210126  0.93570768  1
  Zn  Zn129  1  0.68609319  0.94120289  0.43797585  1
  Zn  Zn130  1  0.70733152  0.87855665  0.91240283  1
  Zn  Zn131  1  0.30676237  0.06444305  0.06376408  1
  Zn  Zn132  1  0.31437392  0.06382021  0.56152989  1
  Zn  Zn133  1  0.31469498  0.56363730  0.06489855  1
  Zn  Zn134  1  0.31152191  0.56365916  0.56358556  1
  Zn  Zn135  1  0.81298875  0.05846627  0.05931831  1
  Zn  Zn136  1  0.81089410  0.05736568  0.56322298  1
  Zn  Zn137  1  0.81775000  0.55813385  0.07179129  1
  Zn  Zn138  1  0.81268614  0.55920468  0.56554164  1
  Zn  Zn139  1  0.43250405  0.44794429  0.16361376  1
  Zn  Zn140  1  0.43418010  0.44208577  0.68787634  1
  Zn  Zn141  1  0.43238895  0.93924570  0.17918788  1
  Zn  Zn142  1  0.43653844  0.93449955  0.68242730  1
  Zn  Zn143  1  0.93368320  0.43343080  0.18778621  1
  Zn  Zn144  1  0.93039156  0.44006643  0.68732436  1
  Zn  Zn145  1  0.94380489  0.93904645  0.18513276  1
  Zn  Zn146  1  0.93773282  0.93106268  0.68550712  1
  Zn  Zn147  1  0.06069933  0.06442028  0.31552599  1
  Zn  Zn148  1  0.06314331  0.06387161  0.81558722  1
  Zn  Zn149  1  0.06286285  0.56645810  0.31867054  1
  Zn  Zn150  1  0.05511468  0.56448186  0.81860399  1
  Zn  Zn151  1  0.55948769  0.06419140  0.30893498  1
  Zn  Zn152  1  0.50323280  0.03724830  0.79114712  1
  Zn  Zn153  1  0.56158675  0.57517915  0.31123678  1
  Zn  Zn154  1  0.56136219  0.55600370  0.80475997  1
  Zn  Zn155  1  0.44107432  0.19455027  0.43459723  1
  Zn  Zn156  1  0.44118852  0.18481043  0.93886135  1
  Zn  Zn157  1  0.44032439  0.69322999  0.43238771  1
  Zn  Zn158  1  0.42824650  0.69652396  0.93942434  1
  Zn  Zn159  1  0.93683352  0.18181630  0.43882245  1
  Zn  Zn160  1  0.93767882  0.18698113  0.93469971  1
  Zn  Zn161  1  0.94076055  0.68624255  0.43475398  1
  Zn  Zn162  1  0.93305039  0.68056757  0.94242022  1
  Zn  Zn163  1  0.06541741  0.29341095  0.06534396  1
  Zn  Zn164  1  0.06026112  0.31271324  0.56283767  1
  Zn  Zn165  1  0.06173540  0.81224464  0.06378804  1
  Zn  Zn166  1  0.06427434  0.81325837  0.56350191  1
  Zn  Zn167  1  0.56069502  0.31310327  0.05660191  1
  Zn  Zn168  1  0.56995994  0.31571251  0.68494247  1
  Zn  Zn169  1  0.57951257  0.80222545  0.04573050  1
  Zn  Zn170  1  0.56648736  0.81289022  0.56607893  1
  O  O171  1  0.14290922  0.19687804  0.08822573  1
  O  O172  1  0.12009182  0.11835477  0.61976065  1
  O  O173  1  0.11159474  0.62536497  0.12581055  1
  O  O174  1  0.12592398  0.63094078  0.60840951  1
  O  O175  1  0.61976600  0.11883565  0.12174083  1
  O  O176  1  0.61497139  0.12191328  0.61331189  1
  O  O177  1  0.61114801  0.61961561  0.13630576  1
  O  O178  1  0.61628076  0.62620377  0.61843543  1
  O  O179  1  0.36648978  0.37946390  0.37968811  1
  O  O180  1  0.37928102  0.37956016  0.87817005  1
  O  O181  1  0.38209408  0.87585045  0.38018625  1
  O  O182  1  0.36521408  0.87620209  0.89731123  1
  O  O183  1  0.88174040  0.38043327  0.37842167  1
  O  O184  1  0.88520131  0.36362659  0.88699676  1
  O  O185  1  0.87138859  0.88288794  0.38456478  1
  O  O186  1  0.88990440  0.88693531  0.88193564  1
  O  O187  1  0.25379130  0.00438142  0.37169364  1
  O  O188  1  0.25002167  0.01829572  0.87098388  1
  O  O189  1  0.24899947  0.50387559  0.36044546  1
  O  O190  1  0.25517042  0.50292277  0.86927081  1
  O  O191  1  0.75961635  0.00507402  0.36938403  1
  O  O192  1  0.75336957  -0.01071635  0.87240152  1
  O  O193  1  0.75596252  0.49808167  0.36711233  1
  O  O194  1  0.75580849  0.48927103  0.85694105  1
  O  O195  1  0.25879169  0.49037254  0.13644893  1
  O  O196  1  0.25428791  0.48858744  0.63178512  1
  O  O197  1  0.24006484  0.99225111  0.12891703  1
  O  O198  1  0.24557344  0.99469328  0.62749205  1
  O  O199  1  0.75246352  0.48629984  0.12979858  1
  O  O200  1  0.74873622  0.50237071  0.64062030  1
  O  O201  1  0.74490108  0.99291503  0.13161620  1
  O  O202  1  0.74374870  0.98468507  0.61721838  1
  O  O203  1  -0.00108689  0.36538739  0.26179140  1
  O  O204  1  0.00231178  0.37233794  0.75184821  1
  O  O205  1  0.00700747  0.86447450  0.24619051  1
  O  O206  1  -0.00629230  0.86128073  0.76068698  1
  O  O207  1  0.47838162  0.39037547  0.25921645  1
  O  O208  1  0.49605660  0.37651215  0.76123822  1
  O  O209  1  0.50319313  0.87282093  0.24945079  1
  O  O210  1  0.49998643  0.86409097  0.74739173  1
  O  O211  1  0.49330303  0.12776231  0.23712144  1
  O  O212  1  0.50532541  0.13289065  0.72994764  1
  O  O213  1  0.49214129  0.63714178  0.24330693  1
  O  O214  1  0.49175743  0.62799351  0.74224231  1
  O  O215  1  0.99327905  0.13710413  0.25607267  1
  O  O216  1  0.99196272  0.12997527  0.74465733  1
  O  O217  1  0.99409436  0.62950117  0.24753958  1
  O  O218  1  1.00818243  0.63733219  0.74239609  1
  O  O219  1  0.36891366  0.25358777  0.00787324  1
  O  O220  1  0.36907074  0.26078810  0.50513857  1
  O  O221  1  0.35653862  0.76152236  0.00160299  1
  O  O222  1  0.37109296  0.75554236  0.50561699  1
  O  O223  1  0.87039808  0.25326317  0.00731899  1
  O  O224  1  0.86908500  0.24570096  0.50755984  1
  O  O225  1  0.88702717  0.76798617  0.00286225  1
  O  O226  1  0.88197341  0.76478488  0.49654059  1
  O  O227  1  0.12912332  0.24578014  0.49465503  1
  O  O228  1  0.13013150  0.27585361  0.97074473  1
  O  O229  1  0.12979358  0.74678422  0.49240237  1
  O  O230  1  0.12955284  0.74831155  0.99020522  1
  O  O231  1  0.63512974  0.23568565  0.48995200  1
  O  O232  1  0.63250454  0.24308517  0.99507572  1
  O  O233  1  0.61452994  0.73984120  0.48999674  1
  O  O234  1  0.65266872  0.70349988  1.01258635  1
  O  O235  1  0.49140148  0.24960960  0.12899977  1
  O  O236  1  0.49269839  0.24065842  0.61971093  1
  O  O237  1  0.51348344  0.74656965  0.13192755  1
  O  O238  1  0.49380065  0.74307529  0.63025406  1
  O  O239  1  0.98642550  0.25571489  0.13846400  1
  O  O240  1  0.99282803  0.24087469  0.62866845  1
  O  O241  1  0.99953842  0.74055103  0.13694789  1
  O  O242  1  0.99961969  0.75128146  0.63344990  1
  O  O243  1  0.00318562  0.25546711  0.37272415  1
  O  O244  1  0.00528741  0.25490116  0.86479799  1
  O  O245  1  0.00991156  0.74418701  0.36210820  1
  O  O246  1  0.00793091  0.75682180  0.87172495  1
  O  O247  1  0.50528509  0.25596483  0.36994668  1
  O  O248  1  0.50194377  0.26228989  0.87464863  1
  O  O249  1  0.50923701  0.75946387  0.36225153  1
  O  O250  1  0.49043675  0.74937391  0.86147278  1
  O  O251  1  0.24271091  0.13302564  0.50054542  1
  O  O252  1  0.25159388  0.13680400  0.98953963  1
  O  O253  1  0.24547933  0.63272206  0.49825910  1
  O  O254  1  0.24719704  0.63222250  0.99908513  1
  O  O255  1  0.74343056  0.12430720  0.49128828  1
  O  O256  1  0.73806232  0.13393410  1.01036377  1
  O  O257  1  0.73498803  0.61730955  0.49906286  1
  O  O258  1  0.81693817  0.62038257  0.97838874  1
  O  O259  1  0.25587866  0.36308830  0.00690601  1
  O  O260  1  0.25751312  0.37486852  0.50608289  1
  O  O261  1  0.24511924  0.87072597  0.01272639  1
  O  O262  1  0.25740753  0.86979427  0.50667953  1
  O  O263  1  0.75771562  0.36955377  0.00704265  1
  O  O264  1  0.74913195  0.35410641  0.49833077  1
  O  O265  1  0.76932539  0.88607947  0.01300025  1
  O  O266  1  0.76133687  0.87684953  0.49801868  1
  O  O267  1  0.13306134  0.49954936  0.25273468  1
  O  O268  1  0.12519774  0.49305331  0.75224860  1
  O  O269  1  0.12036352  0.98612306  0.25865460  1
  O  O270  1  0.12626154  1.00414453  0.73778611  1
  O  O271  1  0.62706948  0.49426954  0.25900570  1
  O  O272  1  0.64197272  0.49893299  0.74807483  1
  O  O273  1  0.62980627  0.99523500  0.24009598  1
  O  O274  1  0.62224015  1.00985229  0.76183760  1
  O  O275  1  0.37295012  0.01529860  0.24644047  1
  O  O276  1  0.38900727  0.00093782  0.76038439  1
  O  O277  1  0.37297796  0.50494213  0.25813101  1
  O  O278  1  0.36644951  0.50812170  0.75810294  1
  O  O279  1  0.87443835  0.00241002  0.25755413  1
  O  O280  1  0.88434720  0.00894730  0.75641032  1
  O  O281  1  0.88361866  0.50721267  0.26437282  1
  O  O282  1  0.86319730  0.51205079  0.74475467  1
  O  O283  1  0.11698591  0.36391653  0.37489327  1
  O  O284  1  0.11748124  0.37156329  0.85765866  1
  O  O285  1  0.12923337  0.86227052  0.36838828  1
  O  O286  1  0.11616283  0.87029613  0.87849171  1
  O  O287  1  0.63736361  0.38108532  0.38260737  1
  O  O288  1  0.60520086  0.37715615  0.88537691  1
  O  O289  1  0.61905074  0.87266949  0.36907453  1
  O  O290  1  0.60538392  0.85651968  0.94945908  1
  O  O291  1  0.38153294  0.13233317  0.12628929  1
  O  O292  1  0.38820029  0.13537249  0.61659781  1
  O  O293  1  0.38741829  0.61879616  0.13763945  1
  O  O294  1  0.37897894  0.63405722  0.63069252  1
  O  O295  1  0.86659979  0.13617871  0.13069434  1
  O  O296  1  0.88053542  0.12458834  0.63189692  1
  O  O297  1  0.88761562  0.62533008  0.13806155  1
  O  O298  1  0.88003102  0.62779238  0.63313658  1
  O  O299  1  0.26758366  0.26239887  0.12643964  1
  O  O300  1  0.25543073  0.26107688  0.61847673  1
  O  O301  1  0.23988700  0.75703304  0.11518252  1
  O  O302  1  0.25387999  0.75813332  0.62018247  1
  O  O303  1  0.75590190  0.25846612  0.11685650  1
  O  O304  1  0.76234535  0.23298616  0.61268450  1
  O  O305  1  0.75670291  0.76427307  0.13219396  1
  O  O306  1  0.75363129  0.76820814  0.62454492  1
  O  O307  1  0.23954140  0.24981051  0.38098396  1
  O  O308  1  0.24235284  0.24232744  0.87558294  1
  O  O309  1  0.24387792  0.74919923  0.38144127  1
  O  O310  1  0.24217761  0.74396449  0.88290201  1
  O  O311  1  0.75251178  0.23621903  0.38172179  1
  O  O312  1  0.74933544  0.25388570  0.89044573  1
  O  O313  1  0.73426908  0.75130559  0.37037981  1
  O  O314  1  0.75045985  0.78120139  0.87306991  1
  O  O315  1  -0.00128539  0.11521153  -0.00365590  1
  O  O316  1  0.00407848  0.11262349  0.50643881  1
  O  O317  1  0.00107014  0.61048073  0.01101204  1
  O  O318  1  0.00827947  0.61641384  0.49978436  1
  O  O319  1  0.51439501  0.13830000  0.01580104  1
  O  O320  1  0.50675585  0.11983822  0.50221585  1
  O  O321  1  0.50064752  0.63335409  0.00749080  1
  O  O322  1  0.49990251  0.62561483  0.50763671  1
  O  O323  1  0.48563830  0.39065952  0.49254100  1
  O  O324  1  0.48307456  0.37027017  0.98912650  1
  O  O325  1  0.49660658  0.88380080  0.49649082  1
  O  O326  1  0.47208534  0.87202256  1.02590689  1
  O  O327  1  0.99861044  0.37972237  0.48977447  1
  O  O328  1  0.99541803  0.37396732  0.99890276  1
  O  O329  1  0.99124131  0.88494996  0.50352052  1
  O  O330  1  0.99859370  0.88587390  0.99477196  1
  O  O331  1  0.49175159  0.50654613  0.37912986  1
  O  O332  1  0.48587872  0.49074142  0.86950212  1
  O  O333  1  0.49764710  0.99411506  0.38091212  1
  O  O334  1  0.48714622  1.02240775  0.89883594  1
  O  O335  1  0.99384346  0.49193134  0.38223065  1
  O  O336  1  0.99671247  0.49042559  0.88755573  1
  O  O337  1  0.98854805  1.00430433  0.38437599  1
  O  O338  1  0.99552843  0.99455782  0.87926819  1
  O  O339  1  0.00016342  0.00525038  0.11280679  1
  O  O340  1  0.00838854  0.00013120  0.61896490  1
  O  O341  1  -0.00364594  0.50284715  0.11971045  1
  O  O342  1  -0.00458509  0.49767783  0.60940100  1
  O  O343  1  0.50961790  0.00973584  0.12750214  1
  O  O344  1  0.50331300  0.01091527  0.61684477  1
  O  O345  1  0.50947345  0.51345891  0.12083726  1
  O  O346  1  0.49302864  0.51775562  0.61946391  1
  O  O347  1  0.24703599  0.38370014  0.24160762  1
  O  O348  1  0.23964830  0.38191316  0.74219609  1
  O  O349  1  0.24056573  0.87710462  0.23969695  1
  O  O350  1  0.25885811  0.87881478  0.73854743  1
  O  O351  1  0.74711229  0.37743368  0.24993097  1
  O  O352  1  0.75775162  0.37950236  0.74272675  1
  O  O353  1  0.74593455  0.88212412  0.24353087  1
  O  O354  1  0.76081301  0.88171529  0.73644991  1
  O  O355  1  0.25683096  0.12611035  0.25106511  1
  O  O356  1  0.25016354  0.12755868  0.75985712  1
  O  O357  1  0.25714782  0.61827114  0.24672824  1
  O  O358  1  0.25381250  0.62097473  0.75631409  1
  O  O359  1  0.75637908  0.11911265  0.25628811  1
  O  O360  1  0.75276317  0.11193280  0.75614300  1
  O  O361  1  0.76439862  0.63101328  0.25091055  1
  O  O362  1  0.76208973  0.63241881  0.75082581  1
  O  O363  1  0.37424552  0.12659096  0.36411582  1
  O  O364  1  0.36081478  0.13325559  0.87559363  1
  O  O365  1  0.37431294  0.63383216  0.35792509  1
  O  O366  1  0.36727482  0.61727099  0.87412947  1
  O  O367  1  0.86622467  0.11524871  0.37063504  1
  O  O368  1  0.87589841  0.11201576  0.86826695  1
  O  O369  1  0.87080311  0.61669332  0.37164369  1
  O  O370  1  0.89779626  0.62349874  0.84543373  1
  O  O371  1  0.13887132  0.36885189  0.12546393  1
  O  O372  1  0.13333298  0.37078924  0.63154268  1
  O  O373  1  0.13309386  0.86979658  0.13646793  1
  O  O374  1  0.13713863  0.88490026  0.61866316  1
  O  O375  1  0.63621774  0.37858257  0.11566855  1
  O  O376  1  0.60692737  0.38519013  0.60701275  1
  O  O377  1  0.63507082  0.88053197  0.12685933  1
  O  O378  1  0.63817621  0.87918895  0.62448918  1
  O  O379  1  0.11541184  0.25229847  0.26019313  1
  O  O380  1  0.11760543  0.26046478  0.75138587  1
  O  O381  1  0.11949551  0.75703897  0.25806792  1
  O  O382  1  0.12218651  0.74966959  0.76462026  1
  O  O383  1  0.62222666  0.25649739  0.25165579  1
  O  O384  1  0.63321757  0.25224313  0.75088572  1
  O  O385  1  0.61766714  0.75946451  0.25539247  1
  O  O386  1  0.60742463  0.74574314  0.74990813  1
  O  O387  1  0.37753936  0.24053033  0.24056865  1
  O  O388  1  0.36878457  0.25783666  0.73380438  1
  O  O389  1  0.38469298  0.74764466  0.24645571  1
  O  O390  1  0.37926086  0.74527984  0.74379698  1
  O  O391  1  0.88015149  0.24354560  0.24430745  1
  O  O392  1  0.87577038  0.23564920  0.74334034  1
  O  O393  1  0.88407487  0.74227178  0.25276107  1
  O  O394  1  0.88672786  0.73902975  0.74160094  1
  O  O395  1  0.38182785  0.49691535  0.50080784  1
  O  O396  1  0.36486782  0.48831688  0.98936696  1
  O  O397  1  0.38700948  0.99633676  0.49873783  1
  O  O398  1  0.35859741  0.98316428  1.00412599  1
  O  O399  1  0.88082393  0.49865922  0.48948239  1
  O  O400  1  0.88583193  0.48037913  1.00385026  1
  O  O401  1  0.88164084  0.99105250  0.49246857  1
  O  O402  1  0.88499267  0.99570960  0.99251449  1
  O  O403  1  0.11292907  0.00339938  -0.00202775  1
  O  O404  1  0.11762393  0.00318157  0.50505496  1
  O  O405  1  0.11501640  0.49408612  -0.00235800  1
  O  O406  1  0.11664760  0.50952897  0.49096217  1
  O  O407  1  0.62817005  0.01054241  0.01501070  1
  O  O408  1  0.61371761  0.01026160  0.49737018  1
  O  O409  1  0.64318564  0.52417049  0.00545333  1
  O  O410  1  0.60237000  0.51287338  0.50019764  1
  O  O411  1  0.36896317  0.36981741  0.11334321  1
  O  O412  1  0.36982830  0.37111820  0.61600734  1
  O  O413  1  0.35055987  0.87673755  0.12302517  1
  O  O414  1  0.36782393  0.86935743  0.61596095  1
  O  O415  1  0.86620649  0.36258848  0.12110290  1
  O  O416  1  0.88137275  0.35738907  0.62184636  1
  O  O417  1  0.87178087  0.87574248  0.11912734  1
  O  O418  1  0.86604243  0.87662458  0.61008944  1
  O  O419  1  0.12327300  0.13721570  0.38240886  1
  O  O420  1  0.13331331  0.13911375  0.86716453  1
  O  O421  1  0.12948472  0.63703259  0.38463295  1
  O  O422  1  0.13010234  0.63193768  0.88070176  1
  O  O423  1  0.63703960  0.11864001  0.37800571  1
  O  O424  1  0.63913399  0.11894477  0.88355283  1
  O  O425  1  0.62664378  0.63569138  0.38212492  1
  O  O426  1  0.61283209  0.62177308  0.88311594  1
