# generated using pymatgen
data_V85Zn86O256
_symmetry_space_group_name_H-M   'P 1'
_cell_length_a   16.93602614
_cell_length_b   16.93620229
_cell_length_c   16.92882613
_cell_angle_alpha   89.91929153
_cell_angle_beta   90.05822469
_cell_angle_gamma   89.96023961
_symmetry_Int_Tables_number   1
_chemical_formula_structural   V85Zn86O256
_chemical_formula_sum   'V85 Zn86 O256'
_cell_volume   4855.71995973
_cell_formula_units_Z   1
loop_
 _symmetry_equiv_pos_site_id
 _symmetry_equiv_pos_as_xyz
  1  'x, y, z'
loop_
 _atom_site_type_symbol
 _atom_site_label
 _atom_site_symmetry_multiplicity
 _atom_site_fract_x
 _atom_site_fract_y
 _atom_site_fract_z
 _atom_site_occupancy
  V  V0  1  0.12642845  0.38102250  0.75592534  1
  V  V1  1  0.00319390  0.37448539  0.37272686  1
  V  V2  1  0.75469548  0.87288913  0.62703549  1
  V  V3  1  0.25339050  0.13387451  0.37749039  1
  V  V4  1  0.87974488  0.24771167  0.12974296  1
  V  V5  1  0.62044818  0.37147970  0.25560461  1
  V  V6  1  0.62318526  0.37280207  0.74737512  1
  V  V7  1  0.37585187  0.62315760  0.25098764  1
  V  V8  1  0.50082195  0.49997850  -0.00128704  1
  V  V9  1  0.00120593  0.49747159  0.50749622  1
  V  V10  1  0.24743079  0.00210073  0.25025379  1
  V  V11  1  0.74948549  0.25014744  0.00058730  1
  V  V12  1  0.24462537  0.37522658  0.12330202  1
  V  V13  1  -0.00036038  0.00365152  0.49886463  1
  V  V14  1  0.87246971  0.76132930  0.12124998  1
  V  V15  1  -0.00172460  0.24904526  0.75459636  1
  V  V16  1  0.37368709  0.37296096  -0.00190560  1
  V  V17  1  0.87492309  0.62793087  0.74015740  1
  V  V18  1  0.74963565  -0.00126384  0.24025409  1
  V  V19  1  0.62440307  0.61841743  0.50301542  1
  V  V20  1  0.00281013  0.49944715  0.00547833  1
  V  V21  1  0.62721953  0.86937294  0.75790082  1
  V  V22  1  0.24904143  0.75123176  0.50051121  1
  V  V23  1  0.38385005  0.12161965  0.24483697  1
  V  V24  1  0.24538601  0.49856455  0.24640748  1
  V  V25  1  -0.00150363  0.75088386  0.25104113  1
  V  V26  1  0.49815409  0.12284967  0.64177614  1
  V  V27  1  -0.06867327  -0.06400732  -0.05876129  1
  V  V28  1  0.12549689  0.61981624  0.00225887  1
  V  V29  1  0.24875812  0.74629675  0.00039401  1
  V  V30  1  0.00186738  0.62391136  0.12767811  1
  V  V31  1  0.87568266  0.36471351  0.49990683  1
  V  V32  1  0.75032766  0.49880368  0.74812470  1
  V  V33  1  0.75118761  0.37736982  0.12660493  1
  V  V34  1  0.11360483  0.75065617  0.87670655  1
  V  V35  1  0.74990140  0.76082566  0.00146974  1
  V  V36  1  0.38248257  0.24383224  0.12329714  1
  V  V37  1  0.75488636  0.36696652  0.62520919  1
  V  V38  1  0.50354536  0.87606873  0.37958299  1
  V  V39  1  0.49954987  0.37516708  0.87450783  1
  V  V40  1  0.49386816  0.61910480  0.62369777  1
  V  V41  1  0.12584022  0.61924681  0.50693580  1
  V  V42  1  0.12447235  0.87530273  0.75327832  1
  V  V43  1  0.50210003  0.75012624  0.25279592  1
  V  V44  1  0.75127301  0.50045178  0.25025974  1
  V  V45  1  0.49838411  0.74352705  0.75513930  1
  V  V46  1  0.75848815  0.12436902  0.87626450  1
  V  V47  1  0.37589133  0.87750347  -0.00764560  1
  V  V48  1  0.62488719  0.63111568  -0.00379732  1
  V  V49  1  -0.00831131  0.13649981  0.62134563  1
  V  V50  1  0.24908831  0.88174543  0.62861746  1
  V  V51  1  0.62570700  0.24905870  0.87614406  1
  V  V52  1  0.73309408  0.24479014  0.49584461  1
  V  V53  1  0.25073991  0.62344780  0.37576023  1
  V  V54  1  0.13000409  0.13082523  0.49983321  1
  V  V55  1  0.75681270  0.74954804  0.50560234  1
  V  V56  1  0.50168903  0.62538109  0.12437448  1
  V  V57  1  0.38582290  0.49788856  0.38046056  1
  V  V58  1  0.87558206  0.37717543  0.00207601  1
  V  V59  1  0.87452641  0.87994545  0.50107859  1
  V  V60  1  -0.00553699  0.88036428  0.37421843  1
  V  V61  1  0.19227281  0.05903317  0.80577153  1
  V  V62  1  0.38438810  0.37177105  0.50306936  1
  V  V63  1  0.37559767  -0.00127967  0.37734716  1
  V  V64  1  0.36389048  0.24312033  0.62745611  1
  V  V65  1  0.62550139  0.00395655  0.62686274  1
  V  V66  1  -0.00429374  0.75371409  0.74061929  1
  V  V67  1  0.87773704  0.50138157  0.87518448  1
  V  V68  1  0.23974253  0.23844051  -0.01250425  1
  V  V69  1  0.12354558  0.87600130  0.25095796  1
  V  V70  1  0.37509573  0.01488234  0.85648447  1
  V  V71  1  0.50369501  0.01035893  0.50076399  1
  V  V72  1  0.24145712  0.38107758  0.61265506  1
  V  V73  1  0.75280605  0.62675250  0.37483874  1
  V  V74  1  0.75952846  0.00128969  0.75214007  1
  V  V75  1  0.72843036  0.12021461  0.37784534  1
  V  V76  1  0.37429121  0.74899341  0.12483975  1
  V  V77  1  0.00728715  0.11932575  0.11866175  1
  V  V78  1  0.74736364  0.63061214  0.87514448  1
  V  V79  1  0.62716865  0.75245485  0.37730182  1
  V  V80  1  0.37708635  0.87412147  0.50298533  1
  V  V81  1  0.62872923  0.87903566  0.23866050  1
  V  V82  1  0.25385834  0.62336687  0.86442249  1
  V  V83  1  0.24817578  0.87410917  0.12622888  1
  V  V84  1  0.87871152  0.12148717  0.26448264  1
  Zn  Zn85  1  0.62104614  0.49451798  0.61986279  1
  Zn  Zn86  1  0.12233030  0.74936844  0.37653264  1
  Zn  Zn87  1  0.49188811  0.24525359  0.75364647  1
  Zn  Zn88  1  0.51164299  0.23449445  0.25651322  1
  Zn  Zn89  1  0.00144015  0.62311377  0.62522384  1
  Zn  Zn90  1  0.50879579  0.36772619  0.38582402  1
  Zn  Zn91  1  0.49738866  0.00795578  0.00902085  1
  Zn  Zn92  1  0.12571505  0.37561376  0.24828529  1
  Zn  Zn93  1  0.00672581  0.37107041  0.87936175  1
  Zn  Zn94  1  0.50300494  0.87124500  0.87610624  1
  Zn  Zn95  1  0.37334892  0.74676559  0.63062690  1
  Zn  Zn96  1  0.87544011  0.13053908  0.74562560  1
  Zn  Zn97  1  0.37684225  0.50361186  0.86638654  1
  Zn  Zn98  1  0.13365499  0.25537854  0.37446864  1
  Zn  Zn99  1  0.00795933  0.24820118  0.25161884  1
  Zn  Zn100  1  0.61631263  0.12100678  0.01703549  1
  Zn  Zn101  1  0.12636934  0.00223548  0.11289565  1
  Zn  Zn102  1  0.12599491  0.00578840  0.62968617  1
  Zn  Zn103  1  0.62592555  0.49985487  0.12359241  1
  Zn  Zn104  1  0.25062263  0.50460993  0.73989257  1
  Zn  Zn105  1  0.87528896  0.62615225  0.24970721  1
  Zn  Zn106  1  0.87623961  0.49976046  0.37613488  1
  Zn  Zn107  1  0.19185314  0.19327039  0.18669563  1
  Zn  Zn108  1  0.17801035  0.19701538  0.68348036  1
  Zn  Zn109  1  0.18463033  0.68666090  0.18915769  1
  Zn  Zn110  1  0.18445256  0.69389655  0.68512710  1
  Zn  Zn111  1  0.69672179  0.19139140  0.19364630  1
  Zn  Zn112  1  0.68689441  0.18602742  0.68630855  1
  Zn  Zn113  1  0.68721458  0.68978396  0.18571558  1
  Zn  Zn114  1  0.68501851  0.68777315  0.68711829  1
  Zn  Zn115  1  0.32344426  0.31201019  0.31101212  1
  Zn  Zn116  1  0.30981471  0.31436170  0.80898814  1
  Zn  Zn117  1  0.31269555  0.81172489  0.31490146  1
  Zn  Zn118  1  0.31017844  0.80716573  0.81117705  1
  Zn  Zn119  1  0.81253393  0.30919902  0.31645500  1
  Zn  Zn120  1  0.81744817  0.31255978  0.81237664  1
  Zn  Zn121  1  0.81450721  0.81556562  0.31139267  1
  Zn  Zn122  1  0.81516131  0.81183484  0.81476912  1
  Zn  Zn123  1  0.19034192  0.43991370  0.43662848  1
  Zn  Zn124  1  0.18881365  0.43740469  0.93802970  1
  Zn  Zn125  1  0.18426814  0.94107558  0.43803987  1
  Zn  Zn126  1  0.19045176  0.93202516  0.93781479  1
  Zn  Zn127  1  0.69108882  0.43719919  0.43676239  1
  Zn  Zn128  1  0.68757067  0.44038521  0.93705885  1
  Zn  Zn129  1  0.68572062  0.94275067  0.43576871  1
  Zn  Zn130  1  0.69108864  0.94282163  0.93884992  1
  Zn  Zn131  1  0.31223890  0.06051552  0.05794123  1
  Zn  Zn132  1  0.31356068  0.06331472  0.56501948  1
  Zn  Zn133  1  0.31388926  0.55918871  0.06069026  1
  Zn  Zn134  1  0.31516725  0.55915323  0.56062819  1
  Zn  Zn135  1  0.81537755  0.06623628  0.06204201  1
  Zn  Zn136  1  0.81117506  0.06274306  0.55857154  1
  Zn  Zn137  1  0.81448803  0.56837669  0.06392679  1
  Zn  Zn138  1  0.81203076  0.55435002  0.56170666  1
  Zn  Zn139  1  0.43439932  0.43782256  0.18467043  1
  Zn  Zn140  1  0.43146626  0.43826644  0.68974986  1
  Zn  Zn141  1  0.43439190  0.93250179  0.18816919  1
  Zn  Zn142  1  0.43863060  0.93323503  0.69048873  1
  Zn  Zn143  1  0.93756410  0.43936557  0.18943975  1
  Zn  Zn144  1  0.93715603  0.43387407  0.68712207  1
  Zn  Zn145  1  0.93331569  0.94387684  0.18559220  1
  Zn  Zn146  1  0.94199302  0.94000532  0.68693869  1
  Zn  Zn147  1  0.06409132  0.06446872  0.31328935  1
  Zn  Zn148  1  0.06393590  0.06417736  0.94076974  1
  Zn  Zn149  1  0.06438289  0.56083509  0.31831560  1
  Zn  Zn150  1  0.06329020  0.56144159  0.81169346  1
  Zn  Zn151  1  0.56666638  0.05730766  0.17964633  1
  Zn  Zn152  1  0.57687937  0.04763137  0.84376364  1
  Zn  Zn153  1  0.56658842  0.56055100  0.31313922  1
  Zn  Zn154  1  0.56385303  0.56164612  0.81107970  1
  Zn  Zn155  1  0.44101370  0.18965639  0.43835088  1
  Zn  Zn156  1  0.43603396  0.18554617  0.93657616  1
  Zn  Zn157  1  0.43757880  0.68640373  0.44131032  1
  Zn  Zn158  1  0.43683791  0.69021286  0.93569698  1
  Zn  Zn159  1  0.93797068  0.19236918  0.43900400  1
  Zn  Zn160  1  0.93719207  0.19172328  0.93648686  1
  Zn  Zn161  1  0.93732289  0.68964934  0.43948978  1
  Zn  Zn162  1  0.93485875  0.69069799  0.93750886  1
  Zn  Zn163  1  0.06523537  0.30954480  0.06298999  1
  Zn  Zn164  1  0.06475550  0.31043443  0.56050345  1
  Zn  Zn165  1  0.05895411  0.81669521  0.06218900  1
  Zn  Zn166  1  0.06408364  0.81305769  0.56402702  1
  Zn  Zn167  1  0.56365268  0.30831132  0.06656638  1
  Zn  Zn168  1  0.55904782  0.30685930  0.56790768  1
  Zn  Zn169  1  0.56109409  0.81524641  0.06113931  1
  Zn  Zn170  1  0.56592502  0.80985790  0.56913627  1
  O  O171  1  0.10942478  0.12682232  0.13316648  1
  O  O172  1  0.11409811  0.12516518  0.61550148  1
  O  O173  1  0.11163587  0.63136126  0.11663580  1
  O  O174  1  0.12429700  0.62837366  0.61122695  1
  O  O175  1  0.62780702  0.13532542  0.12918881  1
  O  O176  1  0.61698596  0.11121814  0.62907476  1
  O  O177  1  0.61823137  0.62323286  0.11746572  1
  O  O178  1  0.61876339  0.62180885  0.61726938  1
  O  O179  1  0.37402181  0.38291316  0.38592580  1
  O  O180  1  0.38271192  0.37467666  0.88259056  1
  O  O181  1  0.38106411  0.87840211  0.38345354  1
  O  O182  1  0.36988695  0.87175771  0.88501916  1
  O  O183  1  0.88203580  0.37631016  0.38248978  1
  O  O184  1  0.87670520  0.38873412  0.88107323  1
  O  O185  1  0.88719088  0.87272059  0.38302487  1
  O  O186  1  0.87078573  0.88404557  0.87760790  1
  O  O187  1  0.25632759  0.00386976  0.36800825  1
  O  O188  1  0.25787092  0.00195524  0.86819903  1
  O  O189  1  0.26053995  0.50654702  0.36781745  1
  O  O190  1  0.24656979  0.51686195  0.87573500  1
  O  O191  1  0.74729714  0.01525658  0.37216322  1
  O  O192  1  0.74823039  0.01298331  0.86416501  1
  O  O193  1  0.75214362  0.50972642  0.36847385  1
  O  O194  1  0.75795384  0.50813660  0.86960011  1
  O  O195  1  0.25892076  0.48999546  0.13431920  1
  O  O196  1  0.25102087  0.48510846  0.62176262  1
  O  O197  1  0.25051531  0.99245383  0.13451390  1
  O  O198  1  0.24754498  0.98515006  0.61811313  1
  O  O199  1  0.75193270  0.49626223  0.13272341  1
  O  O200  1  0.74493441  0.48909665  0.63158018  1
  O  O201  1  0.75031901  1.00888247  0.14159821  1
  O  O202  1  0.74206726  0.99520921  0.62808181  1
  O  O203  1  0.00323173  0.37708198  0.25891112  1
  O  O204  1  0.00933227  0.37120650  0.75020163  1
  O  O205  1  0.00258960  0.87530366  0.25745971  1
  O  O206  1  0.01261969  0.86811261  0.74424445  1
  O  O207  1  0.51741359  0.38325728  0.24623451  1
  O  O208  1  0.50897047  0.37398583  0.75489338  1
  O  O209  1  0.50784898  0.86780547  0.25995209  1
  O  O210  1  0.51047418  0.86172543  0.74791010  1
  O  O211  1  0.48644753  0.11693375  0.24944524  1
  O  O212  1  0.50609771  0.12159533  0.74254068  1
  O  O213  1  0.49714100  0.63010693  0.24642936  1
  O  O214  1  0.50892425  0.63515010  0.73926189  1
  O  O215  1  0.99280665  0.12608165  0.24417213  1
  O  O216  1  0.99814121  0.14236019  0.73831956  1
  O  O217  1  1.00143357  0.62879817  0.24429397  1
  O  O218  1  0.99186557  0.62981890  0.74714508  1
  O  O219  1  0.37141461  0.26050833  0.00489152  1
  O  O220  1  0.37836070  0.25792055  0.51597676  1
  O  O221  1  0.36875362  0.75413566  0.00576908  1
  O  O222  1  0.36318621  0.75535926  0.50043712  1
  O  O223  1  0.87060399  0.25855990  0.00789348  1
  O  O224  1  0.86682802  0.26164339  0.49915585  1
  O  O225  1  0.86660831  0.74492982  0.01232198  1
  O  O226  1  0.86417050  0.76072581  0.49768845  1
  O  O227  1  0.12302893  0.23565257  0.49373101  1
  O  O228  1  0.14004270  0.25346407  1.00001674  1
  O  O229  1  0.13565759  0.74581628  0.49820589  1
  O  O230  1  0.12675059  0.74031639  0.99391826  1
  O  O231  1  0.63462954  0.25405211  0.49677186  1
  O  O232  1  0.63303602  0.25266263  0.99159464  1
  O  O233  1  0.63696012  0.74240767  0.49609798  1
  O  O234  1  0.63161546  0.73747408  1.00569878  1
  O  O235  1  0.48568216  0.25705399  0.13381202  1
  O  O236  1  0.49160159  0.23806795  0.63004564  1
  O  O237  1  0.49418777  0.74471199  0.13239036  1
  O  O238  1  0.49938370  0.73854571  0.63356320  1
  O  O239  1  0.99154164  0.24487760  0.12790615  1
  O  O240  1  1.00051707  0.24496064  0.62922060  1
  O  O241  1  0.99159703  0.74458555  0.13039169  1
  O  O242  1  1.00138190  0.74619536  0.63628547  1
  O  O243  1  0.00136646  0.26443318  0.37418746  1
  O  O244  1  -0.00069569  0.25331965  0.86058318  1
  O  O245  1  0.00002612  0.75849781  0.36823095  1
  O  O246  1  0.00938530  0.74123924  0.86500199  1
  O  O247  1  0.48755400  0.25802477  0.36501448  1
  O  O248  1  0.50827935  0.25749381  0.87205140  1
  O  O249  1  0.50609190  0.75465614  0.37292547  1
  O  O250  1  0.50150124  0.74792901  0.86021337  1
  O  O251  1  0.24237753  0.11631703  0.49005512  1
  O  O252  1  0.25356687  0.13971076  1.00103901  1
  O  O253  1  0.24519038  0.63081329  0.49718493  1
  O  O254  1  0.24107394  0.62792497  0.99749635  1
  O  O255  1  0.74993514  0.13472867  0.49086093  1
  O  O256  1  0.74887375  0.13382485  0.99247680  1
  O  O257  1  0.74770081  0.63185156  0.49601311  1
  O  O258  1  0.74290751  0.62917710  0.99323386  1
  O  O259  1  0.25870501  0.37486282  0.00588534  1
  O  O260  1  0.25670683  0.37520867  0.50914020  1
  O  O261  1  0.25735721  0.86409553  0.00630504  1
  O  O262  1  0.25391338  0.86799699  0.50316607  1
  O  O263  1  0.75552109  0.37211616  0.00651707  1
  O  O264  1  0.75395727  0.36469325  0.50351034  1
  O  O265  1  0.73900150  0.85979596  -0.00207746  1
  O  O266  1  0.75634129  0.87041143  0.50458697  1
  O  O267  1  0.14169870  0.50022058  0.25477470  1
  O  O268  1  0.12561876  0.48679319  0.74657451  1
  O  O269  1  0.13621354  0.99494442  0.24987956  1
  O  O270  1  0.13039202  0.99027978  0.75062477  1
  O  O271  1  0.63762263  0.49506393  0.24651577  1
  O  O272  1  0.63310629  0.48670637  0.75160655  1
  O  O273  1  0.63811786  0.99160368  0.25148027  1
  O  O274  1  0.63511882  0.99014664  0.74512185  1
  O  O275  1  0.36458235  0.00145214  0.25529398  1
  O  O276  1  0.36865641  -0.00667537  0.75838344  1
  O  O277  1  0.36875346  0.50605648  0.25667050  1
  O  O278  1  0.36383606  0.49703151  0.75466484  1
  O  O279  1  0.86275367  0.00848008  0.25065034  1
  O  O280  1  0.86202784  0.00223874  0.74078542  1
  O  O281  1  0.86318751  0.50361170  0.25293043  1
  O  O282  1  0.87116160  0.50526200  0.75762496  1
  O  O283  1  0.11796831  0.37515421  0.37515396  1
  O  O284  1  0.12561689  0.37906030  0.86047063  1
  O  O285  1  0.11358298  0.87428633  0.36946882  1
  O  O286  1  0.13474458  0.86011756  0.86552959  1
  O  O287  1  0.62478052  0.38350787  0.36030791  1
  O  O288  1  0.62232557  0.36737001  0.86895984  1
  O  O289  1  0.62039016  0.86895809  0.37165144  1
  O  O290  1  0.62728004  0.87476770  0.86048996  1
  O  O291  1  0.36751889  0.13180618  0.13321308  1
  O  O292  1  0.37933244  0.13616684  0.62421729  1
  O  O293  1  0.38113914  0.62980222  0.12941863  1
  O  O294  1  0.38980647  0.62711176  0.61776144  1
  O  O295  1  0.88402455  0.13261251  0.13383997  1
  O  O296  1  0.88801440  0.12149515  0.62146102  1
  O  O297  1  0.88848706  0.63291041  0.12707011  1
  O  O298  1  0.87244608  0.61989146  0.63752449  1
  O  O299  1  0.26136797  0.25885509  0.11645674  1
  O  O300  1  0.25908631  0.25948642  0.62430976  1
  O  O301  1  0.25368851  0.75307379  0.12084425  1
  O  O302  1  0.25257365  0.75810975  0.61627620  1
  O  O303  1  0.76412370  0.25663705  0.12151847  1
  O  O304  1  0.74537463  0.25388148  0.60976028  1
  O  O305  1  0.76464546  0.74265578  0.11801555  1
  O  O306  1  0.74583129  0.75927790  0.61647633  1
  O  O307  1  0.25698884  0.23655270  0.37275484  1
  O  O308  1  0.25561208  0.25496279  0.88893223  1
  O  O309  1  0.24893381  0.74225180  0.38289941  1
  O  O310  1  0.24051576  0.73779899  0.88048782  1
  O  O311  1  0.75175284  0.23900596  0.38739176  1
  O  O312  1  0.74522079  0.25042743  0.88099659  1
  O  O313  1  0.74707322  0.74464652  0.38133493  1
  O  O314  1  0.75757421  0.73673929  0.88446147  1
  O  O315  1  -0.00100907  0.13248875  0.01408891  1
  O  O316  1  0.00485794  0.12041437  0.50216161  1
  O  O317  1  0.00590183  0.61974312  0.00598503  1
  O  O318  1  0.00630447  0.61725514  0.49968679  1
  O  O319  1  0.50082298  0.12411262  0.00111958  1
  O  O320  1  0.49442524  0.11259992  0.51005748  1
  O  O321  1  0.50670041  0.62137796  0.00133440  1
  O  O322  1  0.51063427  0.63146559  0.51340573  1
  O  O323  1  0.48981175  0.37567832  0.50471969  1
  O  O324  1  0.49523549  0.38012996  0.99641634  1
  O  O325  1  0.49452257  0.87593442  0.49956593  1
  O  O326  1  0.48788454  0.87120968  0.99478121  1
  O  O327  1  0.99385134  0.37918705  0.49549588  1
  O  O328  1  0.99632326  0.38307997  1.00086517  1
  O  O329  1  0.99414899  0.88039684  0.49612407  1
  O  O330  1  0.99671664  0.87082791  0.98813877  1
  O  O331  1  0.48882272  0.49718521  0.37035326  1
  O  O332  1  0.50036780  0.49442451  0.88233566  1
  O  O333  1  0.49244907  0.98914848  0.38801511  1
  O  O334  1  0.48034278  0.98872069  0.86775375  1
  O  O335  1  0.99750340  0.49053597  0.38425671  1
  O  O336  1  0.99343876  0.50085084  0.88691867  1
  O  O337  1  1.00402093  0.99391733  0.38802203  1
  O  O338  1  0.98482739  1.00331336  0.88558547  1
  O  O339  1  0.00302232  0.01595790  0.12873251  1
  O  O340  1  0.00347205  0.00730355  0.61278904  1
  O  O341  1  -0.00478610  0.50805111  0.11402955  1
  O  O342  1  -0.00450046  0.50044167  0.61146198  1
  O  O343  1  0.50532628  -0.01581486  0.12199708  1
  O  O344  1  0.50513534  0.00363610  0.62218962  1
  O  O345  1  0.49975207  0.50731858  0.11507299  1
  O  O346  1  0.50359241  0.51508945  0.63210760  1
  O  O347  1  0.25537472  0.38272243  0.24170013  1
  O  O348  1  0.23681452  0.37435752  0.73824632  1
  O  O349  1  0.24447700  0.88087460  0.24810852  1
  O  O350  1  0.23730059  0.86190729  0.73930335  1
  O  O351  1  0.74476829  0.38205652  0.24806898  1
  O  O352  1  0.74591911  0.37575516  0.74154473  1
  O  O353  1  0.74483299  0.89070763  0.25840748  1
  O  O354  1  0.74676065  0.87824741  0.74321851  1
  O  O355  1  0.25620576  0.11631235  0.25678145  1
  O  O356  1  0.23948937  0.11879591  0.74096590  1
  O  O357  1  0.25635079  0.61960367  0.25402280  1
  O  O358  1  0.24163150  0.62713252  0.76135912  1
  O  O359  1  0.75688280  0.11927558  0.26379270  1
  O  O360  1  0.75433417  0.11867562  0.75310392  1
  O  O361  1  0.74885704  0.61899737  0.25845388  1
  O  O362  1  0.75533003  0.62236490  0.75692013  1
  O  O363  1  0.36977342  0.11569265  0.36933917  1
  O  O364  1  0.37751645  0.11413128  0.86486688  1
  O  O365  1  0.37125540  0.61794434  0.37231751  1
  O  O366  1  0.35664838  0.62650620  0.88120546  1
  O  O367  1  0.87592618  0.12862634  0.36589413  1
  O  O368  1  0.86174033  0.13706103  0.86891233  1
  O  O369  1  0.86326993  0.62576296  0.37457079  1
  O  O370  1  0.86912127  0.61512135  0.87001195  1
  O  O371  1  0.14053591  0.37375432  0.12571101  1
  O  O372  1  0.13815242  0.37218096  0.62574735  1
  O  O373  1  0.12951860  0.87604064  0.13444719  1
  O  O374  1  0.13209449  0.87737472  0.63230084  1
  O  O375  1  0.63506024  0.37769435  0.13372551  1
  O  O376  1  0.63236341  0.37430967  0.63143831  1
  O  O377  1  0.62865311  0.86265907  0.14029578  1
  O  O378  1  0.63633191  0.88284962  0.63199325  1
  O  O379  1  0.12613964  0.25595424  0.25556128  1
  O  O380  1  0.11014140  0.26758097  0.74279887  1
  O  O381  1  0.11663575  0.75807528  0.25239828  1
  O  O382  1  0.11463749  0.75442834  0.75666536  1
  O  O383  1  0.62711172  0.26796779  0.24929391  1
  O  O384  1  0.62582611  0.26178026  0.75498266  1
  O  O385  1  0.62290000  0.75471570  0.25952288  1
  O  O386  1  0.61497720  0.75834003  0.74360481  1
  O  O387  1  0.37259164  0.23633495  0.23953106  1
  O  O388  1  0.37587702  0.25832215  0.73198114  1
  O  O389  1  0.38059102  0.74330570  0.24638392  1
  O  O390  1  0.39272722  0.75310349  0.74801931  1
  O  O391  1  0.87611317  0.24149707  0.24377766  1
  O  O392  1  0.89218833  0.25691906  0.74589209  1
  O  O393  1  0.87942583  0.74787356  0.24031884  1
  O  O394  1  0.88369158  0.73996527  0.75606254  1
  O  O395  1  0.37271274  0.48962291  0.49030568  1
  O  O396  1  0.38228011  0.48961990  0.99510589  1
  O  O397  1  0.38284829  0.99182624  0.49866268  1
  O  O398  1  0.37205324  0.99001443  0.98724413  1
  O  O399  1  0.88082851  0.48749942  0.49682578  1
  O  O400  1  0.88127151  0.49790362  0.99438507  1
  O  O401  1  0.88127697  0.98773930  0.50158095  1
  O  O402  1  0.87438654  0.98833007  1.00878478  1
  O  O403  1  0.13354784  0.00100298  0.00125023  1
  O  O404  1  0.11627660  0.01072029  0.50170077  1
  O  O405  1  0.11761654  0.51137616  -0.00294413  1
  O  O406  1  0.11601681  0.50825865  0.49532510  1
  O  O407  1  0.60983384  0.01603153  -0.03836007  1
  O  O408  1  0.61362145  -0.00910861  0.51294609  1
  O  O409  1  0.61921921  0.51024801  0.00163983  1
  O  O410  1  0.63142361  0.51444427  0.49898748  1
  O  O411  1  0.36875755  0.36886846  0.11640519  1
  O  O412  1  0.36552606  0.36840858  0.61794564  1
  O  O413  1  0.36614787  0.86648318  0.11749226  1
  O  O414  1  0.36826615  0.87128582  0.61806053  1
  O  O415  1  0.87111689  0.36866122  0.12263611  1
  O  O416  1  0.86104931  0.37840517  0.61754303  1
  O  O417  1  0.87961428  0.85985892  0.12861621  1
  O  O418  1  0.86249019  0.87921756  0.61858680  1
  O  O419  1  0.13687427  0.12546684  0.38035783  1
  O  O420  1  0.13155749  0.11528699  0.86028491  1
  O  O421  1  0.13310343  0.62756973  0.38611937  1
  O  O422  1  0.13101837  0.63079754  0.88263504  1
  O  O423  1  0.63364877  0.12461350  0.37215249  1
  O  O424  1  0.63917053  0.14424509  0.86336727  1
  O  O425  1  0.63490017  0.63065491  0.38170371  1
  O  O426  1  0.63614516  0.62029303  0.88260148  1
