# generated using pymatgen
data_V85Zn86O256
_symmetry_space_group_name_H-M   'P 1'
_cell_length_a   16.94545285
_cell_length_b   16.95433848
_cell_length_c   16.94635135
_cell_angle_alpha   90.00288700
_cell_angle_beta   90.04384603
_cell_angle_gamma   90.02384506
_symmetry_Int_Tables_number   1
_chemical_formula_structural   V85Zn86O256
_chemical_formula_sum   'V85 Zn86 O256'
_cell_volume   4868.66698029
_cell_formula_units_Z   1
loop_
 _symmetry_equiv_pos_site_id
 _symmetry_equiv_pos_as_xyz
  1  'x, y, z'
loop_
 _atom_site_type_symbol
 _atom_site_label
 _atom_site_symmetry_multiplicity
 _atom_site_fract_x
 _atom_site_fract_y
 _atom_site_fract_z
 _atom_site_occupancy
  V  V0  1  0.50205196  0.12285717  0.12424830  1
  V  V1  1  -0.00256998  0.61551254  0.12129159  1
  V  V2  1  0.24407750  0.12553550  0.87558254  1
  V  V3  1  0.12411691  0.50163816  0.62865810  1
  V  V4  1  0.00210703  0.25526384  0.75573259  1
  V  V5  1  0.23715859  0.87451366  0.12112741  1
  V  V6  1  0.49949056  0.12716502  0.62721350  1
  V  V7  1  0.75083884  -0.00633871  0.75521774  1
  V  V8  1  -0.00390434  0.75717481  0.24748217  1
  V  V9  1  0.87565724  0.62474817  0.74985657  1
  V  V10  1  0.62921575  -0.00075082  0.12197265  1
  V  V11  1  0.75105222  0.37045907  0.12448218  1
  V  V12  1  0.37853803  0.12842333  0.75114120  1
  V  V13  1  0.74909295  0.37609093  0.62670828  1
  V  V14  1  0.37402879  -0.00233691  0.87423969  1
  V  V15  1  0.50163080  0.24774676  0.25052112  1
  V  V16  1  0.74947460  0.75097553  0.49913051  1
  V  V17  1  0.62615120  0.25367753  0.85840598  1
  V  V18  1  0.76120298  0.86264352  0.11941810  1
  V  V19  1  0.18901656  0.43674601  0.18305026  1
  V  V20  1  0.87628600  0.25166646  0.62534433  1
  V  V21  1  0.30667029  0.69557131  0.05888224  1
  V  V22  1  0.74484673  0.50133093  0.25091443  1
  V  V23  1  0.49874167  0.87427508  0.37359370  1
  V  V24  1  0.36692919  0.86969041  0.49955811  1
  V  V25  1  0.87340762  0.63269921  0.24381719  1
  V  V26  1  0.00133623  0.62762891  0.62225772  1
  V  V27  1  0.62416402  -0.00360010  0.63102664  1
  V  V28  1  0.12030764  0.62006202  0.00487926  1
  V  V29  1  0.62067973  0.50310117  0.12512937  1
  V  V30  1  0.62507083  0.37382597  0.24993250  1
  V  V31  1  0.25006668  0.63775410  0.87619306  1
  V  V32  1  0.49942413  0.00086426  0.50031236  1
  V  V33  1  0.87628339  0.12028317  0.75334369  1
  V  V34  1  0.37327772  0.12469451  0.25017336  1
  V  V35  1  0.50815358  0.87535780  0.87186754  1
  V  V36  1  0.75353201  0.12462906  0.37543097  1
  V  V37  1  0.50058257  0.49801854  -0.00298774  1
  V  V38  1  0.50457806  0.37088629  0.86001475  1
  V  V39  1  0.62631791  0.12523828  0.50091762  1
  V  V40  1  0.87852253  0.50066546  0.37213473  1
  V  V41  1  0.75262461  0.12352460  0.87523254  1
  V  V42  1  0.37881714  0.25210981  0.62763966  1
  V  V43  1  0.24660696  0.24372247  0.00541050  1
  V  V44  1  0.11820807  0.87855076  0.25983535  1
  V  V45  1  0.37263470  0.38239285  0.49785368  1
  V  V46  1  0.12389134  0.12686802  0.49712311  1
  V  V47  1  0.62346636  0.49499956  0.62782325  1
  V  V48  1  0.87993264  0.37544224  0.00399696  1
  V  V49  1  0.49998226  0.62617574  0.62457024  1
  V  V50  1  -0.00001344  -0.00598080  0.49617457  1
  V  V51  1  0.02462260  0.12387087  0.11726941  1
  V  V52  1  0.37448088  0.37218188  -0.00098001  1
  V  V53  1  0.24344587  -0.00092945  0.24439481  1
  V  V54  1  0.11468597  0.75699478  0.88470799  1
  V  V55  1  0.74948058  0.62867888  0.88151280  1
  V  V56  1  0.75196064  0.25154964  0.49990257  1
  V  V57  1  0.62218874  0.74812815  0.37049872  1
  V  V58  1  0.74782440  0.87385212  0.62691357  1
  V  V59  1  0.00511124  0.00011303  -0.00927050  1
  V  V60  1  0.87679081  0.13076323  0.23589070  1
  V  V61  1  0.50848394  0.75347128  0.74865171  1
  V  V62  1  0.87916617  -0.00588439  0.37310586  1
  V  V63  1  0.88067156  0.37717125  0.49516204  1
  V  V64  1  0.62320751  0.62330814  0.49724154  1
  V  V65  1  0.12742234  0.00025103  0.62689158  1
  V  V66  1  0.49483522  0.37808381  0.37455413  1
  V  V67  1  0.00744521  0.50280180  0.49452955  1
  V  V68  1  0.62388097  0.63001570  0.00179165  1
  V  V69  1  0.75085703  0.24962930  0.00124686  1
  V  V70  1  0.11853919  0.87401998  0.75272524  1
  V  V71  1  0.00028154  0.12737399  0.62527848  1
  V  V72  1  0.37314465  -0.00008702  0.37389005  1
  V  V73  1  0.74760867  0.49501302  0.75287339  1
  V  V74  1  0.24890988  0.25284483  0.49944285  1
  V  V75  1  0.88400766  0.50069329  0.88207383  1
  V  V76  1  0.49989106  0.00007647  -0.00032932  1
  V  V77  1  0.24854832  0.50147715  0.75702512  1
  V  V78  1  0.48651334  0.74834510  0.23729373  1
  V  V79  1  0.11639939  0.26464237  0.37199095  1
  V  V80  1  0.87797728  0.87448533  -0.01936766  1
  V  V81  1  0.37102137  0.87271321  0.00726383  1
  V  V82  1  0.75124394  -0.00099940  0.24770114  1
  V  V83  1  0.37486527  0.62958227  0.75000483  1
  V  V84  1  0.25556941  0.61217202  0.37315099  1
  Zn  Zn85  1  0.62634036  0.25009320  0.37657267  1
  Zn  Zn86  1  0.24806431  0.37651466  0.62961380  1
  Zn  Zn87  1  0.37085249  0.75020105  0.62190335  1
  Zn  Zn88  1  0.12906646  0.37638037  0.76397397  1
  Zn  Zn89  1  0.87333649  0.75010295  0.62478966  1
  Zn  Zn90  1  0.00453495  0.37619682  0.88801565  1
  Zn  Zn91  1  0.62960656  0.75380742  0.87595421  1
  Zn  Zn92  1  0.22183616  0.72818236  0.50447613  1
  Zn  Zn93  1  0.24700435  0.86768100  0.62479799  1
  Zn  Zn94  1  0.24657930  0.12734101  0.37183844  1
  Zn  Zn95  1  0.37466564  0.50019189  0.87492243  1
  Zn  Zn96  1  -0.00446822  0.75495442  0.75204114  1
  Zn  Zn97  1  0.37616635  0.25016004  0.12514645  1
  Zn  Zn98  1  0.11847846  0.74134645  0.37864170  1
  Zn  Zn99  1  0.62378419  0.12788822  -0.00416281  1
  Zn  Zn100  1  0.62507773  0.87463956  0.24558637  1
  Zn  Zn101  1  0.87558542  0.87175638  0.49645328  1
  Zn  Zn102  1  0.49570494  0.50271660  0.49806430  1
  Zn  Zn103  1  -0.00266949  0.25527037  0.25011420  1
  Zn  Zn104  1  0.74837759  0.62484752  0.37243023  1
  Zn  Zn105  1  0.12236519  0.25031288  0.88238729  1
  Zn  Zn106  1  0.24998999  -0.00214933  0.74905893  1
  Zn  Zn107  1  0.18935970  0.19545547  0.18907442  1
  Zn  Zn108  1  0.18947398  0.18910480  0.68954423  1
  Zn  Zn109  1  0.17657157  0.68414267  0.19706276  1
  Zn  Zn110  1  0.18435720  0.69095957  0.68782350  1
  Zn  Zn111  1  0.68849601  0.18625807  0.18622425  1
  Zn  Zn112  1  0.69046618  0.18468812  0.68598054  1
  Zn  Zn113  1  0.68059982  0.68677255  0.18788538  1
  Zn  Zn114  1  0.68782199  0.68319964  0.68833944  1
  Zn  Zn115  1  0.30800670  0.31765759  0.31119321  1
  Zn  Zn116  1  0.31338258  0.31248615  0.81542894  1
  Zn  Zn117  1  0.30307421  0.80164288  0.31489163  1
  Zn  Zn118  1  0.31038212  0.81487557  0.81018022  1
  Zn  Zn119  1  0.81468320  0.31340456  0.31290097  1
  Zn  Zn120  1  0.81654732  0.31277059  0.81562392  1
  Zn  Zn121  1  0.80896627  0.81389808  0.30965169  1
  Zn  Zn122  1  0.81101118  0.81010733  0.81268215  1
  Zn  Zn123  1  0.18906891  0.44483358  0.43502485  1
  Zn  Zn124  1  0.16511079  0.41529604  0.98155745  1
  Zn  Zn125  1  0.18777940  0.93892262  0.43496181  1
  Zn  Zn126  1  0.18659763  0.93741648  0.93977047  1
  Zn  Zn127  1  0.68597132  0.43768125  0.43566165  1
  Zn  Zn128  1  0.68733424  0.43790933  0.93643199  1
  Zn  Zn129  1  0.68689550  0.93704408  0.43829744  1
  Zn  Zn130  1  0.69152071  0.93799249  0.94114984  1
  Zn  Zn131  1  0.31009394  0.06100646  0.06437382  1
  Zn  Zn132  1  0.31109305  0.06318355  0.56068392  1
  Zn  Zn133  1  0.32570020  0.56945039  0.21045362  1
  Zn  Zn134  1  0.30880071  0.56473318  0.56367781  1
  Zn  Zn135  1  0.81610786  0.05650222  0.05558679  1
  Zn  Zn136  1  0.81417020  0.06068901  0.56371183  1
  Zn  Zn137  1  0.81020635  0.56228422  0.06452286  1
  Zn  Zn138  1  0.81235540  0.56272519  0.56163970  1
  Zn  Zn139  1  0.43556363  0.43129309  0.17843303  1
  Zn  Zn140  1  0.43373282  0.44103318  0.68590489  1
  Zn  Zn141  1  0.43515551  0.93348882  0.18739178  1
  Zn  Zn142  1  0.43542368  0.93619049  0.68800346  1
  Zn  Zn143  1  0.93591253  0.44126115  0.19207442  1
  Zn  Zn144  1  0.93715225  0.43926931  0.68827128  1
  Zn  Zn145  1  0.94035015  0.94367504  0.17997748  1
  Zn  Zn146  1  0.93651568  0.93765664  0.68616050  1
  Zn  Zn147  1  0.06088957  0.06595148  0.31003218  1
  Zn  Zn148  1  0.06108773  0.06189516  0.81411700  1
  Zn  Zn149  1  0.06979107  0.56103163  0.30724810  1
  Zn  Zn150  1  0.06402777  0.56706827  0.81488997  1
  Zn  Zn151  1  0.56562716  0.06090764  0.31199846  1
  Zn  Zn152  1  0.56364517  0.06466675  0.81128345  1
  Zn  Zn153  1  0.49888597  0.55176177  0.29398232  1
  Zn  Zn154  1  0.56329665  0.56111855  0.81308026  1
  Zn  Zn155  1  0.43638216  0.19084369  0.43697566  1
  Zn  Zn156  1  0.44000102  0.18912372  0.93379571  1
  Zn  Zn157  1  0.43189038  0.68698926  0.43103400  1
  Zn  Zn158  1  0.44416579  0.68559561  0.93490159  1
  Zn  Zn159  1  0.93817942  0.18520261  0.43523830  1
  Zn  Zn160  1  0.93713065  0.18623477  0.94352223  1
  Zn  Zn161  1  0.93897622  0.68599288  0.43460612  1
  Zn  Zn162  1  0.93455166  0.69202718  0.94245618  1
  Zn  Zn163  1  0.04538742  0.33508631  0.10640602  1
  Zn  Zn164  1  0.06320822  0.31791179  0.56516201  1
  Zn  Zn165  1  0.05108784  0.81236501  0.06681084  1
  Zn  Zn166  1  0.05982774  0.81360918  0.56649880  1
  Zn  Zn167  1  0.56445483  0.31139410  0.05740641  1
  Zn  Zn168  1  0.56105572  0.31264138  0.56279394  1
  Zn  Zn169  1  0.56545348  0.81699138  0.05905675  1
  Zn  Zn170  1  0.56142151  0.81325762  0.56134621  1
  O  O171  1  0.12300103  0.12149750  0.12763227  1
  O  O172  1  0.12115523  0.12201101  0.61597833  1
  O  O173  1  0.10988647  0.63191123  0.11775371  1
  O  O174  1  0.11382453  0.61307490  0.63256835  1
  O  O175  1  0.62115774  0.11384862  0.12288480  1
  O  O176  1  0.62024376  0.11836462  0.62014056  1
  O  O177  1  0.62873968  0.61411376  0.11528778  1
  O  O178  1  0.62032061  0.61600240  0.61781817  1
  O  O179  1  0.38301300  0.36596738  0.38473255  1
  O  O180  1  0.38968724  0.37296672  0.87979205  1
  O  O181  1  0.38105054  0.88084262  0.38133929  1
  O  O182  1  0.37896944  0.88154394  0.88293734  1
  O  O183  1  0.87188448  0.38863308  0.38137556  1
  O  O184  1  0.87767673  0.38368420  0.88520979  1
  O  O185  1  0.86701289  0.89046748  0.37553723  1
  O  O186  1  0.86957285  0.87940752  0.88109420  1
  O  O187  1  0.25755221  0.00429018  0.36559561  1
  O  O188  1  0.26138352  0.00606844  0.87685385  1
  O  O189  1  0.24928725  0.51008852  0.36745695  1
  O  O190  1  0.25075891  0.51868881  0.86225009  1
  O  O191  1  0.75442349  0.00672996  0.36949311  1
  O  O192  1  0.74194560  0.00913799  0.86453930  1
  O  O193  1  0.75523751  0.50161709  0.36690319  1
  O  O194  1  0.75586270  0.50656062  0.86759209  1
  O  O195  1  0.25535160  0.50209433  0.14454117  1
  O  O196  1  0.24114535  0.50369917  0.63850051  1
  O  O197  1  0.25420500  0.98908889  0.13475976  1
  O  O198  1  0.23534075  1.00337301  0.62457135  1
  O  O199  1  0.73806244  0.49231205  0.13060504  1
  O  O200  1  0.74382916  0.49629815  0.63178330  1
  O  O201  1  0.74361758  0.99739644  0.12879416  1
  O  O202  1  0.74330563  0.99431070  0.63099074  1
  O  O203  1  0.00558461  0.36026400  0.21193171  1
  O  O204  1  -0.00437234  0.36193524  0.75230593  1
  O  O205  1  0.00621638  0.87177899  0.24216928  1
  O  O206  1  0.01235584  0.87629324  0.74585569  1
  O  O207  1  0.50307981  0.36066716  0.25458680  1
  O  O208  1  0.49619746  0.37888627  0.76126447  1
  O  O209  1  0.50281806  0.87427086  0.26265601  1
  O  O210  1  0.49422924  0.86632329  0.75951894  1
  O  O211  1  0.49631375  0.13216735  0.24827100  1
  O  O212  1  0.48701710  0.12059294  0.74354981  1
  O  O213  1  0.50771431  0.64961907  0.24493543  1
  O  O214  1  0.49260259  0.63113116  0.74747403  1
  O  O215  1  0.98937577  0.12367435  0.23703463  1
  O  O216  1  0.99317479  0.13313321  0.74622809  1
  O  O217  1  0.99108749  0.62787254  0.23888680  1
  O  O218  1  0.99058249  0.62339333  0.74068172  1
  O  O219  1  0.37535412  0.25767472  -0.00157138  1
  O  O220  1  0.36558480  0.25517400  0.50634139  1
  O  O221  1  0.37311080  0.75370286  -0.00011159  1
  O  O222  1  0.38458369  0.76584640  0.50142752  1
  O  O223  1  0.85872600  0.25903633  -0.00710986  1
  O  O224  1  0.87251734  0.25820632  0.50253324  1
  O  O225  1  0.87933441  0.77337228  -0.00268521  1
  O  O226  1  0.86074536  0.74923585  0.49900900  1
  O  O227  1  0.12893320  0.24551171  0.49666413  1
  O  O228  1  0.14708826  0.24908551  1.00041930  1
  O  O229  1  0.11183102  0.75359423  0.49207965  1
  O  O230  1  0.11709259  0.74845397  0.98777983  1
  O  O231  1  0.63357718  0.24272418  0.50098845  1
  O  O232  1  0.63627814  0.24817752  0.98882595  1
  O  O233  1  0.63227886  0.74489086  0.49486153  1
  O  O234  1  0.61467413  0.73400822  0.99676232  1
  O  O235  1  0.50255002  0.24116453  0.13271207  1
  O  O236  1  0.48703018  0.24336409  0.61937383  1
  O  O237  1  0.50302396  0.76865183  0.13988473  1
  O  O238  1  0.49971404  0.74473597  0.63199941  1
  O  O239  1  1.00423132  0.22599032  0.12339114  1
  O  O240  1  0.99507867  0.24611919  0.63157295  1
  O  O241  1  0.99648533  0.74127287  0.14030436  1
  O  O242  1  0.99286677  0.74116797  0.63018740  1
  O  O243  1  0.01182904  0.24873543  0.37528293  1
  O  O244  1  0.00086252  0.24840726  0.86882831  1
  O  O245  1  -0.00462489  0.74260076  0.35444675  1
  O  O246  1  0.01221017  0.74520521  0.87065006  1
  O  O247  1  0.50393096  0.25546644  0.36733368  1
  O  O248  1  0.51116623  0.26137604  0.87458363  1
  O  O249  1  0.50578555  0.75906246  0.36976576  1
  O  O250  1  0.50172331  0.75957400  0.86698197  1
  O  O251  1  0.24125933  0.13393953  0.49824555  1
  O  O252  1  0.26388657  0.13526868  0.98954281  1
  O  O253  1  0.25096000  0.61835371  0.48531972  1
  O  O254  1  0.24297125  0.63942227  0.99462631  1
  O  O255  1  0.74808416  0.12904868  0.49368457  1
  O  O256  1  0.75013165  0.13040641  0.99074901  1
  O  O257  1  0.73897558  0.63268679  0.50080434  1
  O  O258  1  0.73946382  0.61855015  0.99154365  1
  O  O259  1  0.26912115  0.35864927  -0.01307469  1
  O  O260  1  0.25562825  0.36964663  0.50287347  1
  O  O261  1  0.25707241  0.87722319  0.00867811  1
  O  O262  1  0.26135575  0.88268678  0.50196901  1
  O  O263  1  0.75234555  0.36806966  0.00597928  1
  O  O264  1  0.76039084  0.37203260  0.50449680  1
  O  O265  1  0.76332224  0.88147651  0.01009329  1
  O  O266  1  0.75008914  0.86709916  0.50733145  1
  O  O267  1  0.12177848  0.48731471  0.23942091  1
  O  O268  1  0.13104762  0.49922521  0.74715182  1
  O  O269  1  0.13560889  0.99696529  0.25375268  1
  O  O270  1  0.12512260  0.99611833  0.74270974  1
  O  O271  1  0.62274793  0.49149113  0.24027430  1
  O  O272  1  0.63489229  0.50519809  0.73958358  1
  O  O273  1  0.63235296  0.99805884  0.24110273  1
  O  O274  1  0.63400674  1.00566568  0.73800979  1
  O  O275  1  0.36806018  0.00503045  0.25459159  1
  O  O276  1  0.37240553  0.00562029  0.75832278  1
  O  O277  1  0.40496118  0.50429701  0.25210868  1
  O  O278  1  0.36875406  0.51346451  0.75186318  1
  O  O279  1  0.87120657  0.01160006  0.25599472  1
  O  O280  1  0.86718390  0.01268202  0.74333461  1
  O  O281  1  0.86794869  0.50858120  0.25625923  1
  O  O282  1  0.86872673  0.50852415  0.75767080  1
  O  O283  1  0.12404946  0.36250781  0.38354750  1
  O  O284  1  0.11988557  0.37164070  0.88281934  1
  O  O285  1  0.12466819  0.87825769  0.36169198  1
  O  O286  1  0.12972640  0.86300860  0.86975906  1
  O  O287  1  0.61955279  0.37002145  0.36698854  1
  O  O288  1  0.61453783  0.36874495  0.87458825  1
  O  O289  1  0.61602419  0.86717194  0.37670619  1
  O  O290  1  0.61232116  0.87495311  0.88231383  1
  O  O291  1  0.38392660  0.12135133  0.13749930  1
  O  O292  1  0.37836173  0.13057293  0.63078106  1
  O  O293  1  0.36198075  0.63474617  0.11186447  1
  O  O294  1  0.38290009  0.62612778  0.63238274  1
  O  O295  1  0.86356632  0.12600773  0.13754642  1
  O  O296  1  0.87928134  0.13211611  0.63189229  1
  O  O297  1  0.88186914  0.62302993  0.13167451  1
  O  O298  1  0.87913960  0.62359379  0.63486251  1
  O  O299  1  0.25912654  0.23991503  0.10962550  1
  O  O300  1  0.25687471  0.25145773  0.61469567  1
  O  O301  1  0.24984983  0.75437447  0.12319261  1
  O  O302  1  0.25160301  0.74896760  0.61635200  1
  O  O303  1  0.74323075  0.25794843  0.11484702  1
  O  O304  1  0.75671952  0.25508212  0.61954451  1
  O  O305  1  0.74213060  0.76560307  0.12681943  1
  O  O306  1  0.74739942  0.75721177  0.61929833  1
  O  O307  1  0.24125567  0.24874673  0.38686985  1
  O  O308  1  0.25331537  0.23938116  0.88241475  1
  O  O309  1  0.24277994  0.74396561  0.38747201  1
  O  O310  1  0.23942656  0.74244376  0.86931528  1
  O  O311  1  0.75081760  0.24159151  0.38209538  1
  O  O312  1  0.74343867  0.24482954  0.87816344  1
  O  O313  1  0.74022158  0.75112531  0.38225507  1
  O  O314  1  0.74607516  0.73354166  0.86821286  1
  O  O315  1  -0.00214994  0.11565761  0.00972973  1
  O  O316  1  0.00598676  0.11890814  0.50655743  1
  O  O317  1  0.00377644  0.63207240  0.01311994  1
  O  O318  1  -0.01130180  0.61503274  0.51398042  1
  O  O319  1  0.50103766  0.11774747  0.00440079  1
  O  O320  1  0.50452892  0.11993128  0.50515656  1
  O  O321  1  0.50750318  0.60656336  -0.01014662  1
  O  O322  1  0.50914778  0.62622989  0.50304006  1
  O  O323  1  0.49074465  0.37158559  0.49115976  1
  O  O324  1  0.49685698  0.37893211  0.98839760  1
  O  O325  1  0.49588341  0.88262749  0.49029309  1
  O  O326  1  0.49136633  0.88036078  0.99166025  1
  O  O327  1  0.98648220  0.38514817  0.50627863  1
  O  O328  1  0.98249744  0.36722400  1.00929819  1
  O  O329  1  0.99336754  0.89148443  0.50785626  1
  O  O330  1  0.98803044  0.88682779  1.00487392  1
  O  O331  1  0.51011673  0.48168444  0.38203870  1
  O  O332  1  0.50184794  0.48675760  0.87820487  1
  O  O333  1  0.49528691  0.99420077  0.37883244  1
  O  O334  1  0.49210168  0.99463141  0.87674299  1
  O  O335  1  0.99186850  0.50830642  0.38399486  1
  O  O336  1  0.98687419  0.50047810  0.87137940  1
  O  O337  1  0.99084019  1.00899784  0.38387263  1
  O  O338  1  0.99522356  1.01189023  0.89048788  1
  O  O339  1  -0.00413291  0.01815345  0.11582361  1
  O  O340  1  0.00925424  0.00849526  0.61927882  1
  O  O341  1  -0.00568940  0.51691207  0.12270307  1
  O  O342  1  0.00498747  0.50575064  0.61983820  1
  O  O343  1  0.50835252  0.00186391  0.12151040  1
  O  O344  1  0.50781240  0.00403901  0.62197210  1
  O  O345  1  0.51412077  0.48945696  0.11105624  1
  O  O346  1  0.50819028  0.50593356  0.62274067  1
  O  O347  1  0.24122094  0.36487299  0.23576974  1
  O  O348  1  0.25153574  0.38732622  0.75125501  1
  O  O349  1  0.24237140  0.88109271  0.24283874  1
  O  O350  1  0.23725782  0.87865293  0.74629421  1
  O  O351  1  0.74546589  0.37842420  0.24329797  1
  O  O352  1  0.75844993  0.38777628  0.74491098  1
  O  O353  1  0.74754152  0.88266540  0.23843911  1
  O  O354  1  0.75273797  0.88597278  0.74419882  1
  O  O355  1  0.25838634  0.11846765  0.24947192  1
  O  O356  1  0.26165275  0.12214116  0.75655513  1
  O  O357  1  0.25552653  0.63991886  0.26240519  1
  O  O358  1  0.25771725  0.62579846  0.75601239  1
  O  O359  1  0.75760709  0.12107572  0.25740939  1
  O  O360  1  0.75773837  0.11615223  0.75403414  1
  O  O361  1  0.75474719  0.61842805  0.24810773  1
  O  O362  1  0.75658950  0.61382499  0.75516641  1
  O  O363  1  0.37521226  0.12059982  0.36387079  1
  O  O364  1  0.37348339  0.11739292  0.86680304  1
  O  O365  1  0.36189651  0.62452441  0.37287594  1
  O  O366  1  0.36770584  0.62636425  0.86836174  1
  O  O367  1  0.86563368  0.11662088  0.37123261  1
  O  O368  1  0.86105362  0.13159426  0.86648757  1
  O  O369  1  0.86931279  0.61400309  0.36809021  1
  O  O370  1  0.86902047  0.61897968  0.87266339  1
  O  O371  1  0.14323952  0.39230173  0.09604300  1
  O  O372  1  0.12600706  0.38918554  0.63169058  1
  O  O373  1  0.13440541  0.86969945  0.13075591  1
  O  O374  1  0.12543562  0.88533287  0.63237591  1
  O  O375  1  0.63298821  0.37875061  0.12888700  1
  O  O376  1  0.63093319  0.38743764  0.61780030  1
  O  O377  1  0.63591722  0.88758135  0.11998320  1
  O  O378  1  0.63554385  0.88395366  0.62027449  1
  O  O379  1  0.12457405  0.24204013  0.27048886  1
  O  O380  1  0.11623939  0.25318353  0.75278913  1
  O  O381  1  0.11239301  0.76267812  0.25329219  1
  O  O382  1  0.12059153  0.75806242  0.75976163  1
  O  O383  1  0.61792582  0.25366204  0.25142449  1
  O  O384  1  0.63195725  0.24989623  0.75852193  1
  O  O385  1  0.62191045  0.75618275  0.26063709  1
  O  O386  1  0.61216718  0.74361293  0.75255394  1
  O  O387  1  0.38258574  0.24136140  0.24883726  1
  O  O388  1  0.36895082  0.24162270  0.73881814  1
  O  O389  1  0.38771416  0.76111100  0.25037338  1
  O  O390  1  0.38296487  0.74162403  0.74863919  1
  O  O391  1  0.87713303  0.23308844  0.25920377  1
  O  O392  1  0.87989695  0.24040256  0.74562909  1
  O  O393  1  0.87371358  0.73717736  0.25417565  1
  O  O394  1  0.87385096  0.73626243  0.74953575  1
  O  O395  1  0.37664959  0.48517576  0.50932431  1
  O  O396  1  0.38615258  0.48225229  0.99196857  1
  O  O397  1  0.38141564  0.99617587  0.49372885  1
  O  O398  1  0.38031688  0.99250747  0.99303084  1
  O  O399  1  0.88008697  0.49495578  0.49230252  1
  O  O400  1  0.86467629  0.48990391  0.99085354  1
  O  O401  1  0.88282369  1.00229833  0.49155526  1
  O  O402  1  0.88493660  0.98617611  1.00327956  1
  O  O403  1  0.10614590  -0.00821725  -0.00244206  1
  O  O404  1  0.11870807  0.00740766  0.50448424  1
  O  O405  1  0.12703092  0.52303150  -0.01296569  1
  O  O406  1  0.11232346  0.49461258  0.50867620  1
  O  O407  1  0.61885623  0.00403636  0.00586678  1
  O  O408  1  0.62090735  0.00589860  0.50992903  1
  O  O409  1  0.62020991  0.50480988  0.00500001  1
  O  O410  1  0.62549013  0.50943924  0.50707156  1
  O  O411  1  0.38404661  0.36676927  0.10338889  1
  O  O412  1  0.37304344  0.36656423  0.61890593  1
  O  O413  1  0.36768767  0.87825916  0.11140335  1
  O  O414  1  0.37155262  0.87580587  0.61467822  1
  O  O415  1  0.85665095  0.38424190  0.11822691  1
  O  O416  1  0.86880725  0.37128991  0.61773945  1
  O  O417  1  0.86181666  0.87576318  0.12799785  1
  O  O418  1  0.86054492  0.87413233  0.62220148  1
  O  O419  1  0.12432734  0.12912958  0.38841836  1
  O  O420  1  0.14155636  0.12561484  0.86911277  1
  O  O421  1  0.14094849  0.62563111  0.36536311  1
  O  O422  1  0.13053401  0.63956260  0.87957603  1
  O  O423  1  0.63833864  0.12402024  0.38050919  1
  O  O424  1  0.63539614  0.13362884  0.87231888  1
  O  O425  1  0.62651247  0.63716716  0.38472421  1
  O  O426  1  0.63345886  0.62240987  0.88293309  1
