# generated using pymatgen
data_V85Zn86O256
_symmetry_space_group_name_H-M   'P 1'
_cell_length_a   16.93516150
_cell_length_b   16.92636293
_cell_length_c   16.92915571
_cell_angle_alpha   90.00371536
_cell_angle_beta   89.98329718
_cell_angle_gamma   89.87609775
_symmetry_Int_Tables_number   1
_chemical_formula_structural   V85Zn86O256
_chemical_formula_sum   'V85 Zn86 O256'
_cell_volume   4852.74259762
_cell_formula_units_Z   1
loop_
 _symmetry_equiv_pos_site_id
 _symmetry_equiv_pos_as_xyz
  1  'x, y, z'
loop_
 _atom_site_type_symbol
 _atom_site_label
 _atom_site_symmetry_multiplicity
 _atom_site_fract_x
 _atom_site_fract_y
 _atom_site_fract_z
 _atom_site_occupancy
  V  V0  1  0.11825013  0.12912596  0.00354014  1
  V  V1  1  0.87563646  0.12413240  0.25121838  1
  V  V2  1  0.24926803  0.75275139  0.49216933  1
  V  V3  1  -0.00346113  0.24824077  0.74217515  1
  V  V4  1  0.37745258  0.37572617  0.00120406  1
  V  V5  1  0.49529357  0.89446339  0.37175449  1
  V  V6  1  0.75495068  0.24731746  0.50482086  1
  V  V7  1  0.24634504  0.38616379  0.12829603  1
  V  V8  1  0.87633574  -0.00515858  0.88036629  1
  V  V9  1  0.70304333  0.80772187  0.55980969  1
  V  V10  1  0.87937727  0.63222235  0.75314058  1
  V  V11  1  0.74898818  0.50188112  0.25110302  1
  V  V12  1  0.12448717  0.63219844  0.48979156  1
  V  V13  1  0.87080356  0.49980932  0.37779274  1
  V  V14  1  0.74519513  0.75618221  0.00947472  1
  V  V15  1  0.62452015  0.25041224  0.37837445  1
  V  V16  1  0.62486101  0.37270948  0.74746878  1
  V  V17  1  0.12811307  0.24808253  0.37191513  1
  V  V18  1  0.00229616  0.63202070  0.62919641  1
  V  V19  1  0.24853763  0.50121917  0.74870748  1
  V  V20  1  0.50240647  0.87562028  0.87430379  1
  V  V21  1  0.74854943  0.63426099  0.38015898  1
  V  V22  1  0.37553574  0.88840122  0.49463408  1
  V  V23  1  0.12645929  0.36752068  0.75181926  1
  V  V24  1  0.75153903  0.49980721  0.75116414  1
  V  V25  1  0.12025792  0.86639634  0.75158796  1
  V  V26  1  -0.00163205  0.86971496  0.87719353  1
  V  V27  1  0.26096792  0.12143204  0.37318877  1
  V  V28  1  0.37328254  0.87547322  0.00192218  1
  V  V29  1  0.23703065  0.87719821  0.12396420  1
  V  V30  1  0.49755543  0.74378199  0.74571191  1
  V  V31  1  0.00384677  0.36768233  0.87520446  1
  V  V32  1  0.37453760  0.50305209  0.87402640  1
  V  V33  1  0.24594134  0.00251967  0.24660185  1
  V  V34  1  0.38428916  0.11930110  0.23978591  1
  V  V35  1  0.25328369  0.62861026  0.36117748  1
  V  V36  1  0.62304720  0.37531961  0.25086703  1
  V  V37  1  0.25136370  0.37257356  0.62225820  1
  V  V38  1  0.49528957  0.62859187  0.14042797  1
  V  V39  1  0.87336301  0.12546472  0.74348379  1
  V  V40  1  0.50301762  0.51186944  -0.00280451  1
  V  V41  1  0.00502793  0.24407711  0.24523843  1
  V  V42  1  0.87512785  0.37269892  -0.00006823  1
  V  V43  1  -0.00174253  0.50037544  0.49950386  1
  V  V44  1  0.25185389  0.87402703  0.62544637  1
  V  V45  1  0.62662061  0.50895776  0.11969107  1
  V  V46  1  0.49777307  0.00275351  0.00985278  1
  V  V47  1  0.00664981  0.49894437  0.01078213  1
  V  V48  1  0.75059106  -0.00555112  0.24148803  1
  V  V49  1  0.12566918  0.49868675  0.61990863  1
  V  V50  1  0.62026180  0.12581673  0.00855914  1
  V  V51  1  0.75022987  0.24744534  -0.00052741  1
  V  V52  1  0.24764097  0.24979131  -0.00642209  1
  V  V53  1  0.50161503  0.11050536  0.62372336  1
  V  V54  1  0.00087228  0.75503882  0.26608687  1
  V  V55  1  0.75908650  0.37200092  0.62656690  1
  V  V56  1  0.87841203  0.75816106  0.62532578  1
  V  V57  1  0.25132128  0.24832528  0.49811691  1
  V  V58  1  0.62241013  0.11128513  0.50288450  1
  V  V59  1  0.87597704  0.76938305  0.12245082  1
  V  V60  1  0.24758249  0.74919144  -0.00283313  1
  V  V61  1  0.25205215  0.00517855  0.75162224  1
  V  V62  1  0.61312731  0.75068173  0.37007254  1
  V  V63  1  0.62218176  0.87107009  0.24039320  1
  V  V64  1  0.87453010  0.62672068  0.24430707  1
  V  V65  1  0.37439166  0.74939042  0.13833952  1
  V  V66  1  0.87740406  0.50053089  0.87616341  1
  V  V67  1  0.87987980  0.24375206  0.12339075  1
  V  V68  1  0.12088062  0.87536280  0.26708977  1
  V  V69  1  0.49621412  0.50669835  0.50886646  1
  V  V70  1  0.37569764  0.00941912  0.87219620  1
  V  V71  1  0.62564357  0.62446442  0.50938287  1
  V  V72  1  0.62514397  0.24783158  0.87465751  1
  V  V73  1  0.37528639  0.50640358  0.36266709  1
  V  V74  1  0.74936585  0.37568323  0.12435898  1
  V  V75  1  0.00447322  -0.00253759  0.01174475  1
  V  V76  1  0.62487425  0.74198496  0.87970797  1
  V  V77  1  0.75012188  0.11993534  0.87529215  1
  V  V78  1  0.37434157  0.37544100  0.49626258  1
  V  V79  1  -0.00264362  -0.00548493  0.48975870  1
  V  V80  1  -0.00054090  0.37251193  0.37473559  1
  V  V81  1  0.49773121  0.24221699  0.74943321  1
  V  V82  1  0.37769352  0.24285814  0.62637318  1
  V  V83  1  0.11912521  0.00208470  0.62743472  1
  V  V84  1  0.74637694  -0.00872826  0.73829420  1
  Zn  Zn85  1  0.62682295  -0.00219749  0.12306548  1
  Zn  Zn86  1  0.62588927  0.87577098  0.74044311  1
  Zn  Zn87  1  0.38058398  0.24683695  0.12167522  1
  Zn  Zn88  1  0.24685225  0.62754383  0.87298547  1
  Zn  Zn89  1  0.00626268  0.62738573  0.12739331  1
  Zn  Zn90  1  0.74910817  0.62491878  0.88305029  1
  Zn  Zn91  1  0.12256588  0.38591459  0.23726973  1
  Zn  Zn92  1  0.87637776  -0.01184983  0.36869475  1
  Zn  Zn93  1  0.49907832  0.37523233  0.37547502  1
  Zn  Zn94  1  0.75068536  0.12272026  0.37473018  1
  Zn  Zn95  1  0.38047062  0.61829043  0.73992326  1
  Zn  Zn96  1  0.87904904  0.86372480  0.48778090  1
  Zn  Zn97  1  0.11967800  0.74407130  0.87345485  1
  Zn  Zn98  1  0.50383070  0.24338732  0.24307150  1
  Zn  Zn99  1  0.50190087  0.37525772  0.87530787  1
  Zn  Zn100  1  -0.00514515  0.12706232  0.62046063  1
  Zn  Zn101  1  0.24525143  0.13201043  0.87066252  1
  Zn  Zn102  1  0.62207901  0.50351404  0.62873415  1
  Zn  Zn103  1  0.37709848  0.74319646  0.61902917  1
  Zn  Zn104  1  0.13143642  0.61875343  0.00420231  1
  Zn  Zn105  1  0.12340443  0.12286172  0.49826632  1
  Zn  Zn106  1  0.87708281  0.36814837  0.50394078  1
  Zn  Zn107  1  0.19298334  0.19182980  0.17988596  1
  Zn  Zn108  1  0.18650142  0.18608129  0.68763382  1
  Zn  Zn109  1  0.18015137  0.69114329  0.18229071  1
  Zn  Zn110  1  0.19009964  0.68709555  0.68267816  1
  Zn  Zn111  1  0.69025068  0.18758519  0.18768429  1
  Zn  Zn112  1  0.68769461  0.18331087  0.68455276  1
  Zn  Zn113  1  0.68666982  0.68956055  0.18719255  1
  Zn  Zn114  1  0.68640265  0.68453908  0.69908684  1
  Zn  Zn115  1  0.31584108  0.31055369  0.30830350  1
  Zn  Zn116  1  0.31637682  0.31407294  0.81298836  1
  Zn  Zn117  1  0.31151851  0.81694833  0.31324257  1
  Zn  Zn118  1  0.31400012  0.81653558  0.81395730  1
  Zn  Zn119  1  0.81147008  0.31049385  0.31461096  1
  Zn  Zn120  1  0.81435859  0.30972207  0.81222638  1
  Zn  Zn121  1  0.80862007  0.81312585  0.31196477  1
  Zn  Zn122  1  0.81109902  0.81309098  0.81694216  1
  Zn  Zn123  1  0.17158621  0.45641789  0.39891635  1
  Zn  Zn124  1  0.18863608  0.43413554  0.93574653  1
  Zn  Zn125  1  0.18903503  0.94371448  0.43823780  1
  Zn  Zn126  1  0.18289082  0.94098089  0.93710157  1
  Zn  Zn127  1  0.68744254  0.43862880  0.44082847  1
  Zn  Zn128  1  0.68720585  0.43720174  0.93665840  1
  Zn  Zn129  1  0.68904805  0.93883144  0.42330331  1
  Zn  Zn130  1  0.68739599  0.93397808  0.93889469  1
  Zn  Zn131  1  0.30616967  0.06213397  0.06145877  1
  Zn  Zn132  1  0.31071872  0.06378819  0.56500503  1
  Zn  Zn133  1  0.31455180  0.56555936  0.06478098  1
  Zn  Zn134  1  0.31133918  0.56463374  0.55898936  1
  Zn  Zn135  1  0.81535506  0.05983715  0.06310420  1
  Zn  Zn136  1  0.81334846  0.05939227  0.55980280  1
  Zn  Zn137  1  0.81307670  0.56734843  0.05980114  1
  Zn  Zn138  1  0.81156055  0.56445527  0.56651770  1
  Zn  Zn139  1  0.44037328  0.43537518  0.18324109  1
  Zn  Zn140  1  0.43782054  0.43239315  0.68609523  1
  Zn  Zn141  1  0.43251473  0.93604676  0.19042368  1
  Zn  Zn142  1  0.43412433  0.93138419  0.69035418  1
  Zn  Zn143  1  0.93533269  0.43170768  0.19088673  1
  Zn  Zn144  1  0.93900488  0.44045254  0.68827669  1
  Zn  Zn145  1  0.94315654  0.93863035  0.19226728  1
  Zn  Zn146  1  0.93847412  0.93941436  0.69161668  1
  Zn  Zn147  1  0.06708192  0.06414986  0.30811562  1
  Zn  Zn148  1  0.06393958  0.06249852  0.81814301  1
  Zn  Zn149  1  0.06060650  0.56658114  0.30863072  1
  Zn  Zn150  1  0.06418645  0.56071438  0.81629512  1
  Zn  Zn151  1  0.56896448  0.06225462  0.31160657  1
  Zn  Zn152  1  0.56497305  0.06108705  0.81362295  1
  Zn  Zn153  1  0.56200672  0.56094339  0.31877086  1
  Zn  Zn154  1  0.56342673  0.56277004  0.81319661  1
  Zn  Zn155  1  0.44205336  0.18436698  0.43529771  1
  Zn  Zn156  1  0.43767033  0.18796048  0.93781487  1
  Zn  Zn157  1  0.43447755  0.68770121  0.43974349  1
  Zn  Zn158  1  0.43199337  0.68791809  0.93707291  1
  Zn  Zn159  1  0.93895838  0.18171234  0.43585750  1
  Zn  Zn160  1  0.94052359  0.18333660  0.93215835  1
  Zn  Zn161  1  0.93203053  0.68720365  0.44104724  1
  Zn  Zn162  1  0.93428795  0.68756172  0.94448057  1
  Zn  Zn163  1  0.06647739  0.30995134  0.06083778  1
  Zn  Zn164  1  0.06482674  0.31078841  0.55969144  1
  Zn  Zn165  1  0.06028537  0.81124777  0.06332900  1
  Zn  Zn166  1  0.06369002  0.81440348  0.56119747  1
  Zn  Zn167  1  0.55923069  0.31530363  0.06424234  1
  Zn  Zn168  1  0.56309190  0.31107401  0.56274314  1
  Zn  Zn169  1  0.55892045  0.80836002  0.06011357  1
  Zn  Zn170  1  0.54268747  0.81406910  0.55750702  1
  O  O171  1  0.13329221  0.12723812  0.10443589  1
  O  O172  1  0.12452793  0.11109798  0.62505231  1
  O  O173  1  0.11875458  0.62626460  0.11754015  1
  O  O174  1  0.11882390  0.61864386  0.61669416  1
  O  O175  1  0.62827569  0.12539426  0.11161899  1
  O  O176  1  0.61745339  0.12642878  0.61123962  1
  O  O177  1  0.61530393  0.61569572  0.12888126  1
  O  O178  1  0.63244232  0.62593498  0.61382265  1
  O  O179  1  0.37519732  0.38420404  0.38045482  1
  O  O180  1  0.37743641  0.38619479  0.88406723  1
  O  O181  1  0.38788483  0.87535683  0.37778023  1
  O  O182  1  0.38628756  0.88156949  0.88189937  1
  O  O183  1  0.88054399  0.38118923  0.37717636  1
  O  O184  1  0.88144147  0.38081733  0.87917868  1
  O  O185  1  0.87563598  0.87406629  0.37458798  1
  O  O186  1  0.88240519  0.88639266  0.87084871  1
  O  O187  1  0.24455121  0.01009744  0.36136204  1
  O  O188  1  0.25935615  -0.00442572  0.86714660  1
  O  O189  1  0.26900581  0.51409756  0.38368886  1
  O  O190  1  0.25742612  0.49854540  0.86577878  1
  O  O191  1  0.75388290  0.00495387  0.35819995  1
  O  O192  1  0.75839007  0.00364362  0.87464972  1
  O  O193  1  0.75257288  0.50821767  0.37033001  1
  O  O194  1  0.76308987  0.49960321  0.87273750  1
  O  O195  1  0.25426288  0.48535277  0.11935419  1
  O  O196  1  0.24468758  0.49181716  0.62904623  1
  O  O197  1  0.25413982  0.99021030  0.13644340  1
  O  O198  1  0.24374948  0.99098462  0.63074703  1
  O  O199  1  0.74344019  0.49830549  0.12798350  1
  O  O200  1  0.74666015  0.49164068  0.63343675  1
  O  O201  1  0.74836819  1.00214113  0.13532449  1
  O  O202  1  0.75360298  1.00003657  0.63996155  1
  O  O203  1  0.00147073  0.36257687  0.25703049  1
  O  O204  1  0.00594853  0.36944201  0.75436459  1
  O  O205  1  0.01302203  0.87157142  0.25171315  1
  O  O206  1  0.00948851  0.87968916  0.76163717  1
  O  O207  1  0.51477907  0.37838120  0.25246175  1
  O  O208  1  0.50947513  0.36383330  0.74961183  1
  O  O209  1  0.50507002  0.88080523  0.26319066  1
  O  O210  1  0.50489701  0.86649702  0.75759227  1
  O  O211  1  0.48712403  0.12042145  0.25396649  1
  O  O212  1  0.50947934  0.13604755  0.74214720  1
  O  O213  1  0.50229227  0.62097760  0.23883929  1
  O  O214  1  0.50083063  0.63960551  0.75341905  1
  O  O215  1  0.99445149  0.13624529  0.25052241  1
  O  O216  1  0.99321338  0.13205711  0.75153623  1
  O  O217  1  0.99109552  0.63384842  0.24985558  1
  O  O218  1  0.99318598  0.61564025  0.73986455  1
  O  O219  1  0.37117953  0.26044077  -0.00204411  1
  O  O220  1  0.37314732  0.25565417  0.50372260  1
  O  O221  1  0.36494696  0.75693257  0.00510035  1
  O  O222  1  0.36574573  0.76113711  0.50006661  1
  O  O223  1  0.87358152  0.25208657  0.00552065  1
  O  O224  1  0.85967518  0.24753335  0.49316993  1
  O  O225  1  0.86992277  0.75206825  0.01715169  1
  O  O226  1  0.87257900  0.74845911  0.51522056  1
  O  O227  1  0.13380503  0.24361006  0.49397634  1
  O  O228  1  0.13119492  0.24049556  0.99652854  1
  O  O229  1  0.13398565  0.74293290  0.50498934  1
  O  O230  1  0.13912364  0.75404129  0.99914535  1
  O  O231  1  0.63340669  0.24610170  0.49359973  1
  O  O232  1  0.62823551  0.24530647  0.99385751  1
  O  O233  1  0.63292408  0.75026641  0.49939799  1
  O  O234  1  0.63583579  0.75045057  0.99681471  1
  O  O235  1  0.49444569  0.25563556  0.13012708  1
  O  O236  1  0.49458448  0.24274406  0.63066715  1
  O  O237  1  0.49198386  0.73504340  0.11956188  1
  O  O238  1  0.49792864  0.75361620  0.64163596  1
  O  O239  1  0.99147811  0.25738434  0.13261271  1
  O  O240  1  1.00388920  0.24846059  0.63725613  1
  O  O241  1  0.98570969  0.75170127  0.13121045  1
  O  O242  1  0.99636568  0.73804470  0.62280130  1
  O  O243  1  0.00760675  0.25044014  0.36761697  1
  O  O244  1  -0.00433479  0.26220495  0.86485681  1
  O  O245  1  -0.00488360  0.74467071  0.36496423  1
  O  O246  1  -0.00165420  0.76495116  0.88733503  1
  O  O247  1  0.51299302  0.25299080  0.37084554  1
  O  O248  1  0.50505894  0.25156028  0.86599753  1
  O  O249  1  0.51136812  0.75242615  0.38154609  1
  O  O250  1  0.50430608  0.75567664  0.87124779  1
  O  O251  1  0.24966469  0.12942607  0.49009792  1
  O  O252  1  0.24413213  0.13337163  0.99569855  1
  O  O253  1  0.24186378  0.63519936  0.49316771  1
  O  O254  1  0.25329936  0.63528683  0.99668548  1
  O  O255  1  0.74025345  0.13017909  0.50096128  1
  O  O256  1  0.74424214  0.12928221  0.99472567  1
  O  O257  1  0.74108249  0.61762303  0.49046283  1
  O  O258  1  0.75955249  0.64438181  0.99665126  1
  O  O259  1  0.25752403  0.37056742  0.00386539  1
  O  O260  1  0.26314727  0.36848891  0.50405641  1
  O  O261  1  0.25313480  0.87363254  0.00734352  1
  O  O262  1  0.25224274  0.87047864  0.50450319  1
  O  O263  1  0.75582373  0.36794297  0.00376285  1
  O  O264  1  0.75029016  0.36804008  0.51032129  1
  O  O265  1  0.75082559  0.85713737  -0.00297493  1
  O  O266  1  0.75206735  0.87543378  0.50145015  1
  O  O267  1  0.12908546  0.48285169  0.29251572  1
  O  O268  1  0.13035337  0.48875714  0.74289219  1
  O  O269  1  0.12980712  0.98717190  0.24941981  1
  O  O270  1  0.13071020  0.99094133  0.74488627  1
  O  O271  1  0.63072258  0.49526488  0.24512103  1
  O  O272  1  0.63048961  0.49126814  0.75069568  1
  O  O273  1  0.63174881  0.99292043  0.24488666  1
  O  O274  1  0.64106477  0.99646610  0.75485299  1
  O  O275  1  0.36525546  0.01198734  0.24936151  1
  O  O276  1  0.36462155  -0.00813624  0.76001310  1
  O  O277  1  0.38186196  0.49526369  0.26463728  1
  O  O278  1  0.36754607  0.49516041  0.75561566  1
  O  O279  1  0.87118613  0.00863071  0.24723152  1
  O  O280  1  0.86531142  0.00515614  0.75864460  1
  O  O281  1  0.86966405  0.50669149  0.25575556  1
  O  O282  1  0.87262223  0.50727308  0.75823640  1
  O  O283  1  0.11704602  0.35531891  0.38475872  1
  O  O284  1  0.11565581  0.37953428  0.86380799  1
  O  O285  1  0.13005783  0.87475589  0.36538307  1
  O  O286  1  0.11703073  0.87397937  0.86703039  1
  O  O287  1  0.62565252  0.36977819  0.36814311  1
  O  O288  1  0.62623048  0.36817933  0.86319876  1
  O  O289  1  0.61273711  0.86930552  0.36866613  1
  O  O290  1  0.61210151  0.86636623  0.87757546  1
  O  O291  1  0.37148246  0.12349521  0.13685657  1
  O  O292  1  0.38342086  0.13602708  0.61864214  1
  O  O293  1  0.38680824  0.63153495  0.12625187  1
  O  O294  1  0.36659600  0.63071478  0.62850800  1
  O  O295  1  0.87118165  0.13794717  0.13268722  1
  O  O296  1  0.87481785  0.11976045  0.63946367  1
  O  O297  1  0.87844781  0.62553776  0.13801969  1
  O  O298  1  0.88310047  0.63117395  0.63345520  1
  O  O299  1  0.25825182  0.25969179  0.10901168  1
  O  O300  1  0.25834712  0.25164929  0.62073621  1
  O  O301  1  0.25750906  0.75832262  0.11861262  1
  O  O302  1  0.24864669  0.76331278  0.61664050  1
  O  O303  1  0.75698177  0.25625929  0.11832482  1
  O  O304  1  0.74538868  0.25826854  0.61713213  1
  O  O305  1  0.76043205  0.74754896  0.11855044  1
  O  O306  1  0.75708061  0.74923759  0.62670402  1
  O  O307  1  0.24531686  0.24469137  0.37747880  1
  O  O308  1  0.25646324  0.25166691  0.88682186  1
  O  O309  1  0.25562859  0.74514324  0.38521554  1
  O  O310  1  0.24969277  0.75030808  0.88275769  1
  O  O311  1  0.73915957  0.24811610  0.38186189  1
  O  O312  1  0.74603516  0.24197131  0.88039181  1
  O  O313  1  0.73828546  0.73805774  0.37156042  1
  O  O314  1  0.74100614  0.74964694  0.88367447  1
  O  O315  1  0.01046108  0.11817188  -0.00358281  1
  O  O316  1  0.00244711  0.11374428  0.50335658  1
  O  O317  1  -0.00591060  0.60617557  0.00303545  1
  O  O318  1  0.00612777  0.61939151  0.50588252  1
  O  O319  1  0.50874788  0.11509529  -0.00734852  1
  O  O320  1  0.51350704  0.12710035  0.50725292  1
  O  O321  1  0.49435216  0.61456443  0.00576292  1
  O  O322  1  0.50979210  0.61795304  0.49775324  1
  O  O323  1  0.48931186  0.37987451  0.49917461  1
  O  O324  1  0.49292379  0.38816162  0.99786900  1
  O  O325  1  0.48959668  0.87708397  0.48452455  1
  O  O326  1  0.49444253  0.88181887  0.99332436  1
  O  O327  1  0.99713640  0.38211413  0.49611546  1
  O  O328  1  0.99566677  0.37968089  0.99281481  1
  O  O329  1  0.99929787  0.89006022  0.50431523  1
  O  O330  1  1.00692383  0.88992943  0.99445441  1
  O  O331  1  0.48920060  0.49937649  0.38677133  1
  O  O332  1  0.49411646  0.49854450  0.88016209  1
  O  O333  1  0.50227519  0.99245655  0.37630080  1
  O  O334  1  0.49420059  0.99304967  0.87915985  1
  O  O335  1  0.98993175  0.49821067  0.38678708  1
  O  O336  1  0.99055630  0.48863632  0.88031111  1
  O  O337  1  1.00233282  1.00566569  0.38743548  1
  O  O338  1  0.99270009  0.99199899  0.88174617  1
  O  O339  1  -0.00543396  0.00004411  0.11014092  1
  O  O340  1  0.00611313  0.00237889  0.61949156  1
  O  O341  1  -0.00552787  0.49271438  0.11254981  1
  O  O342  1  0.00415927  0.50650460  0.61480982  1
  O  O343  1  0.49901951  -0.00445085  0.11218476  1
  O  O344  1  0.49439286  0.01145533  0.63417078  1
  O  O345  1  0.50577328  0.51044479  0.11873957  1
  O  O346  1  0.50218401  0.49502022  0.61362672  1
  O  O347  1  0.25214770  0.36800472  0.23088814  1
  O  O348  1  0.24414178  0.38140334  0.74523991  1
  O  O349  1  0.24020738  0.88141977  0.24580415  1
  O  O350  1  0.24502282  0.88198054  0.74172044  1
  O  O351  1  0.74142643  0.38034846  0.24546987  1
  O  O352  1  0.74501052  0.37761011  0.74550333  1
  O  O353  1  0.73504398  0.88200559  0.25284237  1
  O  O354  1  0.74784485  0.88703319  0.75302744  1
  O  O355  1  0.25474112  0.11909713  0.25232642  1
  O  O356  1  0.24581742  0.11029113  0.75120011  1
  O  O357  1  0.24376413  0.63645632  0.26276826  1
  O  O358  1  0.24580043  0.60946453  0.74953241  1
  O  O359  1  0.75899541  0.11929301  0.25012473  1
  O  O360  1  0.75449618  0.11677403  0.75600626  1
  O  O361  1  0.75551901  0.62076029  0.25652292  1
  O  O362  1  0.75962981  0.61646819  0.75731557  1
  O  O363  1  0.36495119  0.12902859  0.36635952  1
  O  O364  1  0.37223496  0.11215308  0.87688246  1
  O  O365  1  0.37028609  0.61538969  0.37588160  1
  O  O366  1  0.37253447  0.61242844  0.86761076  1
  O  O367  1  0.87296915  0.12366997  0.36015801  1
  O  O368  1  0.86997505  0.11600753  0.86565176  1
  O  O369  1  0.86568470  0.62179416  0.36656985  1
  O  O370  1  0.87929154  0.61691955  0.86886902  1
  O  O371  1  0.14036731  0.37406818  0.12180784  1
  O  O372  1  0.13135236  0.37973861  0.62907593  1
  O  O373  1  0.13548909  0.87147004  0.13106351  1
  O  O374  1  0.13048357  0.88409171  0.63167330  1
  O  O375  1  0.63086102  0.38683918  0.13136282  1
  O  O376  1  0.63283331  0.37449238  0.63660496  1
  O  O377  1  0.61472252  0.87322417  0.13721657  1
  O  O378  1  0.63564893  0.86028800  0.61605402  1
  O  O379  1  0.11976036  0.25192767  0.25393617  1
  O  O380  1  0.11998580  0.26133216  0.74658405  1
  O  O381  1  0.11452713  0.76552753  0.24820877  1
  O  O382  1  0.13106454  0.76252989  0.74991445  1
  O  O383  1  0.62754181  0.25780142  0.25758254  1
  O  O384  1  0.62092693  0.25454648  0.75423966  1
  O  O385  1  0.62568657  0.75751541  0.25844303  1
  O  O386  1  0.61544666  0.75428817  0.75938639  1
  O  O387  1  0.37663542  0.23279833  0.24819893  1
  O  O388  1  0.38566274  0.25514763  0.73999701  1
  O  O389  1  0.37313945  0.75642833  0.23744403  1
  O  O390  1  0.38987266  0.75125695  0.75319141  1
  O  O391  1  0.88110760  0.24492992  0.24298686  1
  O  O392  1  0.88408870  0.23954862  0.75404875  1
  O  O393  1  0.87767922  0.74437292  0.24016517  1
  O  O394  1  0.87014386  0.73732303  0.74668991  1
  O  O395  1  0.38058314  0.49244663  0.49559425  1
  O  O396  1  0.38149719  0.49642882  0.99184095  1
  O  O397  1  0.36469239  0.98771516  0.49975981  1
  O  O398  1  0.38005783  0.99597703  0.99349318  1
  O  O399  1  0.88248280  0.50003325  0.49752608  1
  O  O400  1  0.88099019  0.49193322  0.99404124  1
  O  O401  1  0.88753316  0.99829310  0.49710422  1
  O  O402  1  0.88931188  1.01010997  0.99023210  1
  O  O403  1  0.11199408  0.00870527  0.00040127  1
  O  O404  1  0.11534536  0.00040159  0.50841342  1
  O  O405  1  0.10841806  0.49510384  -0.00566903  1
  O  O406  1  0.11611780  0.50719006  0.49898927  1
  O  O407  1  0.61692760  0.00696172  0.00046181  1
  O  O408  1  0.63134892  0.01330544  0.49438558  1
  O  O409  1  0.61763162  0.49616966  0.00840644  1
  O  O410  1  0.61565681  0.50850937  0.50150971  1
  O  O411  1  0.36919541  0.37815828  0.11198554  1
  O  O412  1  0.37122418  0.36358754  0.61738499  1
  O  O413  1  0.36804438  0.86797404  0.11980324  1
  O  O414  1  0.36679820  0.87144870  0.61604046  1
  O  O415  1  0.86766395  0.36488296  0.12101895  1
  O  O416  1  0.86328945  0.37794602  0.62640914  1
  O  O417  1  0.87332237  0.86705550  0.13103053  1
  O  O418  1  0.88243646  0.86003043  0.62857845  1
  O  O419  1  0.13583439  0.13499348  0.37272578  1
  O  O420  1  0.13108841  0.11775906  0.89145521  1
  O  O421  1  0.13230298  0.62574231  0.38593832  1
  O  O422  1  0.12665819  0.62698899  0.88320847  1
  O  O423  1  0.62624882  0.13263880  0.38563818  1
  O  O424  1  0.63144825  0.12958481  0.88395069  1
  O  O425  1  0.62893539  0.63246305  0.38465393  1
  O  O426  1  0.62638515  0.63750305  0.87425571  1
