# generated using pymatgen
data_V85Zn86O256
_symmetry_space_group_name_H-M   'P 1'
_cell_length_a   16.98091189
_cell_length_b   16.98213005
_cell_length_c   16.96604513
_cell_angle_alpha   90.03173682
_cell_angle_beta   90.03321281
_cell_angle_gamma   90.05492941
_symmetry_Int_Tables_number   1
_chemical_formula_structural   V85Zn86O256
_chemical_formula_sum   'V85 Zn86 O256'
_cell_volume   4892.52946182
_cell_formula_units_Z   1
loop_
 _symmetry_equiv_pos_site_id
 _symmetry_equiv_pos_as_xyz
  1  'x, y, z'
loop_
 _atom_site_type_symbol
 _atom_site_label
 _atom_site_symmetry_multiplicity
 _atom_site_fract_x
 _atom_site_fract_y
 _atom_site_fract_z
 _atom_site_occupancy
  V  V0  1  0.50634573  0.73930445  0.24811222  1
  V  V1  1  0.50044424  0.50874438  0.00616162  1
  V  V2  1  0.13058548  0.50265780  0.13036037  1
  V  V3  1  0.74471881  0.12391788  0.37222397  1
  V  V4  1  0.75795866  0.62629737  0.87633751  1
  V  V5  1  0.62397050  0.37452996  0.75554644  1
  V  V6  1  -0.00814867  0.74957849  0.75232151  1
  V  V7  1  0.50282448  0.87830319  0.36385634  1
  V  V8  1  0.74793164  0.37466935  0.62517592  1
  V  V9  1  0.36290171  -0.00636300  0.87344253  1
  V  V10  1  0.75038460  0.26213273  -0.00095514  1
  V  V11  1  0.87880902  0.37590576  0.49689485  1
  V  V12  1  0.49725103  0.38088630  0.88128381  1
  V  V13  1  0.12887213  0.37462984  0.24659301  1
  V  V14  1  0.62323096  0.88481476  0.74326977  1
  V  V15  1  0.87778234  0.63543993  0.24986105  1
  V  V16  1  0.52340165  0.89290445  0.89389726  1
  V  V17  1  0.75269739  0.12835748  0.88109241  1
  V  V18  1  -0.00232946  0.12237398  0.62819093  1
  V  V19  1  0.88162626  0.49326058  0.86902639  1
  V  V20  1  -0.00101711  -0.00290653  0.50135422  1
  V  V21  1  -0.00172190  0.86807160  0.36802213  1
  V  V22  1  0.24503154  0.49569313  0.75029724  1
  V  V23  1  0.12853638  0.87940393  0.75341459  1
  V  V24  1  0.25115208  0.11758210  0.36370419  1
  V  V25  1  0.11670571  0.25896104  0.87609186  1
  V  V26  1  0.12442572  0.12357033  0.00008725  1
  V  V27  1  0.25898679  0.37826746  0.12517641  1
  V  V28  1  0.00215161  0.49443536  -0.00392876  1
  V  V29  1  -0.00055345  0.25082392  0.24996524  1
  V  V30  1  0.87228162  0.87484294  0.49839061  1
  V  V31  1  0.11951333  0.74312945  0.38131065  1
  V  V32  1  0.20155095  0.42192262  0.58398222  1
  V  V33  1  0.37717398  0.49925246  0.36262446  1
  V  V34  1  0.50195373  0.62686208  0.62554564  1
  V  V35  1  0.13151004  0.87121008  0.25373278  1
  V  V36  1  0.37855221  0.74604096  0.12869425  1
  V  V37  1  0.38173222  0.24298811  0.13798405  1
  V  V38  1  -0.00380690  0.87724775  0.88102354  1
  V  V39  1  0.25463347  0.25419500  0.00087589  1
  V  V40  1  0.74968460  0.49806153  0.23997098  1
  V  V41  1  0.12420429  0.75242943  0.87708247  1
  V  V42  1  0.00098857  0.63098286  0.12813082  1
  V  V43  1  0.86927300  0.12268424  0.24385590  1
  V  V44  1  0.62506627  0.62336591  0.49824074  1
  V  V45  1  0.24641300  0.62067332  0.37323135  1
  V  V46  1  0.37568575  0.87656689  -0.00088770  1
  V  V47  1  0.37223876  0.25665622  0.62558739  1
  V  V48  1  0.37423922  0.62597097  0.74926680  1
  V  V49  1  0.13499506  0.00127780  0.62957581  1
  V  V50  1  0.42548007  0.06076520  0.20017468  1
  V  V51  1  -0.00660139  -0.00111765  0.00386691  1
  V  V52  1  0.88138043  0.49906218  0.37329459  1
  V  V53  1  0.74337228  0.24871909  0.49877268  1
  V  V54  1  0.87398401  0.26043010  0.12445851  1
  V  V55  1  0.12531879  0.12179029  0.50039642  1
  V  V56  1  0.37494245  0.49970404  0.88062780  1
  V  V57  1  0.62841827  0.63273175  0.00626608  1
  V  V58  1  0.24488366  0.12392470  0.86825948  1
  V  V59  1  0.69304409  0.94285809  0.19404381  1
  V  V60  1  0.87176913  0.24868233  0.62639490  1
  V  V61  1  0.12410222  0.24505185  0.37385039  1
  V  V62  1  0.50390688  -0.00509349  0.50582720  1
  V  V63  1  0.36942745  -0.00248356  0.37262749  1
  V  V64  1  0.50009126  0.49754750  0.49817103  1
  V  V65  1  0.74917740  0.62300699  0.37626265  1
  V  V66  1  0.25193185  0.24358193  0.50294268  1
  V  V67  1  -0.00042305  0.12529030  0.12706659  1
  V  V68  1  0.75474392  0.50599152  0.74829264  1
  V  V69  1  0.50269657  0.36516760  0.37230668  1
  V  V70  1  0.74846117  0.75101693  0.49833391  1
  V  V71  1  0.74453993  0.88397740  0.62146024  1
  V  V72  1  0.63079832  0.74608538  0.87395256  1
  V  V73  1  0.25093135  0.62767409  0.87491828  1
  V  V74  1  0.13056841  -0.00207646  0.13269299  1
  V  V75  1  0.59755817  0.22671191  0.89836121  1
  V  V76  1  0.49720669  0.24964508  0.74684739  1
  V  V77  1  0.25145919  0.87055977  0.62649969  1
  V  V78  1  0.86945430  0.75747511  0.10894516  1
  V  V79  1  0.62667167  0.36664447  0.24155227  1
  V  V80  1  0.87448184  -0.00049670  0.87117585  1
  V  V81  1  0.87215689  0.00060983  0.37009127  1
  V  V82  1  0.37092555  0.11880101  0.74649985  1
  V  V83  1  0.24979215  0.75400954  0.00620609  1
  V  V84  1  0.12516725  0.62697620  0.00244689  1
  Zn  Zn85  1  0.37303720  0.86936903  0.49701130  1
  Zn  Zn86  1  0.87383360  0.12562771  0.74905772  1
  Zn  Zn87  1  0.24907532  0.74220545  0.50311611  1
  Zn  Zn88  1  0.11961932  0.38014791  0.75208747  1
  Zn  Zn89  1  0.37293145  0.74900776  0.62495408  1
  Zn  Zn90  1  0.37209813  0.62066206  0.24394974  1
  Zn  Zn91  1  0.62658830  0.11616684  0.51352581  1
  Zn  Zn92  1  0.62469628  0.75067589  0.36990311  1
  Zn  Zn93  1  0.74605264  0.00970702  0.74411316  1
  Zn  Zn94  1  0.50498282  0.11466269  0.63292922  1
  Zn  Zn95  1  0.62553824  0.50087448  0.12259840  1
  Zn  Zn96  1  0.62750464  0.49877011  0.62491782  1
  Zn  Zn97  1  0.06686007  0.54759872  0.54632215  1
  Zn  Zn98  1  0.62071828  0.24518986  0.36942655  1
  Zn  Zn99  1  0.00243364  0.37702002  0.37620681  1
  Zn  Zn100  1  0.26209933  0.88340405  0.13879796  1
  Zn  Zn101  1  0.87761320  0.37815257  0.00003441  1
  Zn  Zn102  1  -0.01156074  0.63295346  0.62776731  1
  Zn  Zn103  1  0.86497678  0.75284172  0.63605771  1
  Zn  Zn104  1  -0.00563753  0.25866968  0.75540987  1
  Zn  Zn105  1  0.37626765  0.37333707  0.49903920  1
  Zn  Zn106  1  0.50146153  0.75251895  0.75465246  1
  Zn  Zn107  1  0.18863587  0.18829476  0.18484491  1
  Zn  Zn108  1  0.18538690  0.19205169  0.68883435  1
  Zn  Zn109  1  0.18905989  0.69170679  0.19562297  1
  Zn  Zn110  1  0.17606474  0.68175898  0.68205326  1
  Zn  Zn111  1  0.69294970  0.18151271  0.16813269  1
  Zn  Zn112  1  0.68197570  0.18458599  0.69599406  1
  Zn  Zn113  1  0.69196755  0.68864178  0.18701584  1
  Zn  Zn114  1  0.68795319  0.68873631  0.68616773  1
  Zn  Zn115  1  0.31199952  0.31022950  0.31361891  1
  Zn  Zn116  1  0.30965428  0.31560841  0.81262489  1
  Zn  Zn117  1  0.31258020  0.80764738  0.31489688  1
  Zn  Zn118  1  0.30988382  0.80929373  0.80982039  1
  Zn  Zn119  1  0.80843869  0.31223736  0.31019549  1
  Zn  Zn120  1  0.81153712  0.31481443  0.81396431  1
  Zn  Zn121  1  0.81037335  0.81164727  0.30943520  1
  Zn  Zn122  1  0.80772399  0.81988057  0.81739572  1
  Zn  Zn123  1  0.19558474  0.43312901  0.41634313  1
  Zn  Zn124  1  0.19077547  0.43868985  0.94260011  1
  Zn  Zn125  1  0.18690302  0.93339215  0.44119522  1
  Zn  Zn126  1  0.18588142  0.93889199  0.94224295  1
  Zn  Zn127  1  0.68905306  0.43727285  0.43267858  1
  Zn  Zn128  1  0.68579312  0.43989351  0.93608213  1
  Zn  Zn129  1  0.68224347  0.93964854  0.42389622  1
  Zn  Zn130  1  0.69190834  0.93788579  0.92841422  1
  Zn  Zn131  1  0.31007204  0.06287957  0.05615000  1
  Zn  Zn132  1  0.31801665  0.06119813  0.55867023  1
  Zn  Zn133  1  0.31285906  0.56511275  0.06282611  1
  Zn  Zn134  1  0.31822472  0.56693854  0.55497980  1
  Zn  Zn135  1  0.78287614  0.02184405  0.04549202  1
  Zn  Zn136  1  0.81064179  0.06242069  0.55820377  1
  Zn  Zn137  1  0.81616072  0.56583813  0.05867998  1
  Zn  Zn138  1  0.85269280  0.54739536  0.57906069  1
  Zn  Zn139  1  0.44302077  0.43018509  0.18633223  1
  Zn  Zn140  1  0.43553036  0.44032545  0.68791561  1
  Zn  Zn141  1  0.51240778  0.88661082  0.14190748  1
  Zn  Zn142  1  0.43785879  0.93672315  0.69552427  1
  Zn  Zn143  1  0.94228475  0.44256387  0.18860018  1
  Zn  Zn144  1  0.94743555  0.43732085  0.68635300  1
  Zn  Zn145  1  0.93676762  0.93524937  0.18902648  1
  Zn  Zn146  1  0.93597533  0.93428569  0.68886200  1
  Zn  Zn147  1  0.05949068  0.05954934  0.31201910  1
  Zn  Zn148  1  0.06091971  0.06487461  0.81082541  1
  Zn  Zn149  1  0.06155029  0.56354137  0.31145617  1
  Zn  Zn150  1  0.06298134  0.56757950  0.80798848  1
  Zn  Zn151  1  0.59151905  0.08121126  0.25486327  1
  Zn  Zn152  1  0.55321657  0.06214321  0.90360142  1
  Zn  Zn153  1  0.56351773  0.55888479  0.31047177  1
  Zn  Zn154  1  0.56564801  0.56341862  0.81277939  1
  Zn  Zn155  1  0.43809675  0.17883761  0.43495183  1
  Zn  Zn156  1  0.42353402  0.19203285  0.93423847  1
  Zn  Zn157  1  0.43269857  0.68891456  0.43659434  1
  Zn  Zn158  1  0.44361788  0.69447674  0.93738110  1
  Zn  Zn159  1  0.93551752  0.18678488  0.43787403  1
  Zn  Zn160  1  0.93469903  0.18463428  0.94245368  1
  Zn  Zn161  1  0.93588034  0.68471662  0.44289516  1
  Zn  Zn162  1  0.93822391  0.68146298  0.93553420  1
  Zn  Zn163  1  0.06533434  0.31337060  0.06223036  1
  Zn  Zn164  1  0.05694408  0.30595173  0.56031493  1
  Zn  Zn165  1  0.05994946  0.81489279  0.06707232  1
  Zn  Zn166  1  0.06185198  0.80975096  0.56185557  1
  Zn  Zn167  1  0.55859640  0.31398562  0.06404586  1
  Zn  Zn168  1  0.56387787  0.30952617  0.56307021  1
  Zn  Zn169  1  0.69779649  0.82436624  0.05784047  1
  Zn  Zn170  1  0.56061968  0.81112742  0.55924668  1
  O  O171  1  0.11925650  0.11707909  0.12203575  1
  O  O172  1  0.11816566  0.11867982  0.62291904  1
  O  O173  1  0.12176621  0.62022208  0.12499438  1
  O  O174  1  0.10253672  0.61260281  0.63954526  1
  O  O175  1  0.61172682  0.11599742  0.15109256  1
  O  O176  1  0.61608042  0.13150846  0.62557154  1
  O  O177  1  0.63197425  0.62556637  0.10942610  1
  O  O178  1  0.61855084  0.62054883  0.61806872  1
  O  O179  1  0.38245601  0.38069181  0.37482658  1
  O  O180  1  0.38218923  0.38954776  0.86888946  1
  O  O181  1  0.38075918  0.87928512  0.37516100  1
  O  O182  1  0.36441660  0.88183979  0.87995450  1
  O  O183  1  0.87517129  0.38118589  0.37819293  1
  O  O184  1  0.87315506  0.38919534  0.87828590  1
  O  O185  1  0.87974154  0.88142339  0.37609218  1
  O  O186  1  0.88168618  0.88992159  0.87562534  1
  O  O187  1  0.25610643  0.00591968  0.38359989  1
  O  O188  1  0.25146253  0.01042582  0.87690647  1
  O  O189  1  0.26284878  0.50869492  0.37106089  1
  O  O190  1  0.25810910  0.50651174  0.87230271  1
  O  O191  1  0.76423335  0.00774398  0.37949977  1
  O  O192  1  0.76057010  0.01001499  0.86931224  1
  O  O193  1  0.75687945  0.50801052  0.36467220  1
  O  O194  1  0.75706681  0.50501157  0.86671483  1
  O  O195  1  0.24290652  0.49175852  0.11908291  1
  O  O196  1  0.25871779  0.49731860  0.63243561  1
  O  O197  1  0.23462776  0.99715365  0.11679928  1
  O  O198  1  0.23831856  0.99553460  0.62033922  1
  O  O199  1  0.75353939  0.50600744  0.13727098  1
  O  O200  1  0.75304707  0.49100713  0.63295863  1
  O  O201  1  0.74950747  1.01816905  0.15309332  1
  O  O202  1  0.75087047  0.98831163  0.62311650  1
  O  O203  1  0.01200797  0.36890835  0.24899665  1
  O  O204  1  0.00645462  0.37081159  0.74934972  1
  O  O205  1  0.00743384  0.87944235  0.26432104  1
  O  O206  1  0.00818188  0.87372650  0.76417908  1
  O  O207  1  0.51646221  0.37854644  0.25853514  1
  O  O208  1  0.50664430  0.37469175  0.75583504  1
  O  O209  1  0.49793674  0.86327246  0.26243346  1
  O  O210  1  0.51278591  0.87439194  0.76088990  1
  O  O211  1  0.48111627  0.11346468  0.26398647  1
  O  O212  1  0.48357903  0.13968324  0.75252107  1
  O  O213  1  0.49518671  0.63641919  0.25399725  1
  O  O214  1  0.49311569  0.62284559  0.74251675  1
  O  O215  1  0.99240540  0.13251663  0.24724617  1
  O  O216  1  0.99750181  0.13067258  0.73748482  1
  O  O217  1  0.98954141  0.61807537  0.24002305  1
  O  O218  1  0.99520240  0.64843280  0.76266356  1
  O  O219  1  0.35901268  0.24292568  0.01140846  1
  O  O220  1  0.36791395  0.24819184  0.50652440  1
  O  O221  1  0.36597854  0.75352756  0.00332008  1
  O  O222  1  0.36973046  0.75203044  0.50723234  1
  O  O223  1  0.87060344  0.25515884  0.00697970  1
  O  O224  1  0.86339797  0.25224957  0.50727267  1
  O  O225  1  0.87822943  0.74488420  0.01027779  1
  O  O226  1  0.85839459  0.75898301  0.49349269  1
  O  O227  1  0.13176348  0.24216887  0.49466043  1
  O  O228  1  0.13217877  0.24421877  0.99274378  1
  O  O229  1  0.12897500  0.75883825  0.48459432  1
  O  O230  1  0.13098254  0.74817166  0.99766518  1
  O  O231  1  0.63509265  0.24695047  0.49452207  1
  O  O232  1  0.63436112  0.26073172  0.99468461  1
  O  O233  1  0.63397624  0.74224431  0.49672865  1
  O  O234  1  0.63755073  0.74591977  0.98533470  1
  O  O235  1  0.47880476  0.25527757  0.11990087  1
  O  O236  1  0.49170316  0.25262171  0.63576320  1
  O  O237  1  0.49352707  0.76426318  0.14388884  1
  O  O238  1  0.50007841  0.73633000  0.62777986  1
  O  O239  1  0.99732982  0.24531505  0.12974160  1
  O  O240  1  0.98792835  0.23866291  0.62324133  1
  O  O241  1  0.99577469  0.73505703  0.11988450  1
  O  O242  1  0.99895130  0.76293764  0.64566867  1
  O  O243  1  0.00632258  0.24895224  0.36824178  1
  O  O244  1  0.01411249  0.24365764  0.87871349  1
  O  O245  1  0.00480353  0.75839987  0.37740752  1
  O  O246  1  0.00242155  0.76041319  0.87312733  1
  O  O247  1  0.49993432  0.26143424  0.38182777  1
  O  O248  1  0.49153550  0.26638995  0.86214451  1
  O  O249  1  0.49691882  0.75668698  0.36388096  1
  O  O250  1  0.51431209  0.76521966  0.87638000  1
  O  O251  1  0.24258052  0.12891640  0.49560039  1
  O  O252  1  0.24199226  0.13203519  0.98982067  1
  O  O253  1  0.25182151  0.62344316  0.48199385  1
  O  O254  1  0.24426667  0.63700297  0.99688151  1
  O  O255  1  0.74536604  0.13014572  0.49052727  1
  O  O256  1  0.75453266  0.12686546  0.98644908  1
  O  O257  1  0.74695338  0.63270832  0.48606226  1
  O  O258  1  0.74176725  0.61602210  0.98583489  1
  O  O259  1  0.24669696  0.36576135  0.01181856  1
  O  O260  1  0.25271429  0.36523082  0.50169683  1
  O  O261  1  0.25365807  0.86382804  0.00167400  1
  O  O262  1  0.25183436  0.87191982  0.51366617  1
  O  O263  1  0.75418589  0.36566306  -0.00520962  1
  O  O264  1  0.75400328  0.36517174  0.50242283  1
  O  O265  1  0.75299006  0.91322686  0.01569793  1
  O  O266  1  0.74868887  0.87006969  0.50178723  1
  O  O267  1  0.12055535  0.49127996  0.23775928  1
  O  O268  1  0.14070604  0.49949136  0.76090961  1
  O  O269  1  0.11793014  0.99064077  0.24120210  1
  O  O270  1  0.11818660  0.99249002  0.74068419  1
  O  O271  1  0.63351115  0.49483696  0.24476099  1
  O  O272  1  0.63191815  0.48919747  0.74969552  1
  O  O273  1  0.63587445  0.97783553  0.27024651  1
  O  O274  1  0.62735333  0.98296619  0.75376535  1
  O  O275  1  0.36648832  0.00127717  0.26249492  1
  O  O276  1  0.36895216  0.01326704  0.75146005  1
  O  O277  1  0.38525626  0.49985521  0.25918974  1
  O  O278  1  0.36818543  0.50978298  0.75848041  1
  O  O279  1  0.88541857  0.01155884  0.25878968  1
  O  O280  1  0.87361362  0.00252134  0.75801579  1
  O  O281  1  0.86838893  0.50583014  0.25555363  1
  O  O282  1  0.86460010  0.49448895  0.75694180  1
  O  O283  1  0.12281235  0.36449902  0.36352151  1
  O  O284  1  0.13052424  0.36033681  0.88055120  1
  O  O285  1  0.11667857  0.87043388  0.37063367  1
  O  O286  1  0.11879935  0.87337356  0.87051355  1
  O  O287  1  0.61783354  0.37275832  0.36602208  1
  O  O288  1  0.61472766  0.37085068  0.86877755  1
  O  O289  1  0.60588933  0.86647929  0.38060022  1
  O  O290  1  0.63317329  0.86262331  0.85884999  1
  O  O291  1  0.37184407  0.12730316  0.13125160  1
  O  O292  1  0.37776285  0.13334898  0.63200279  1
  O  O293  1  0.37290635  0.64065619  0.12371573  1
  O  O294  1  0.38321401  0.62394892  0.63343666  1
  O  O295  1  0.88492391  0.13819752  0.13402245  1
  O  O296  1  0.88053764  0.13044382  0.62321898  1
  O  O297  1  0.88268309  0.63182589  0.13039976  1
  O  O298  1  0.87347028  0.64279654  0.62872646  1
  O  O299  1  0.25488626  0.25560469  0.11859744  1
  O  O300  1  0.25618391  0.24256191  0.61216254  1
  O  O301  1  0.25575458  0.75446958  0.12015438  1
  O  O302  1  0.24512607  0.75686558  0.62614235  1
  O  O303  1  0.76235172  0.24808831  0.11231760  1
  O  O304  1  0.75437883  0.25351440  0.61868599  1
  O  O305  1  0.76336509  0.74818587  0.11913545  1
  O  O306  1  0.74570890  0.76248611  0.61446483  1
  O  O307  1  0.24560587  0.24136994  0.38543239  1
  O  O308  1  0.24397659  0.24472687  0.88322313  1
  O  O309  1  0.24187883  0.73764809  0.37769712  1
  O  O310  1  0.24391523  0.74519576  0.88347766  1
  O  O311  1  0.75215063  0.24135356  0.38478147  1
  O  O312  1  0.74934299  0.24413292  0.88470331  1
  O  O313  1  0.74647848  0.74267279  0.37793520  1
  O  O314  1  0.74769993  0.73595700  0.86599890  1
  O  O315  1  0.00679818  0.11877992  0.00764791  1
  O  O316  1  0.00451687  0.11963648  0.50999427  1
  O  O317  1  0.00856442  0.61678418  0.00663305  1
  O  O318  1  0.00775376  0.63581879  0.50778277  1
  O  O319  1  0.52781206  0.15875733  -0.04472798  1
  O  O320  1  0.50172507  0.10580949  0.49792501  1
  O  O321  1  0.51406456  0.61986255  -0.00927761  1
  O  O322  1  0.50377858  0.61780550  0.50513745  1
  O  O323  1  0.50181012  0.38220328  0.49319875  1
  O  O324  1  0.50359010  0.38561676  0.98621248  1
  O  O325  1  0.49543240  0.88019904  0.49284890  1
  O  O326  1  0.47978858  0.86559087  0.99185978  1
  O  O327  1  0.98290650  0.36518488  0.49531379  1
  O  O328  1  1.00370584  0.39108437  1.00440598  1
  O  O329  1  0.99265387  0.87835688  0.49204084  1
  O  O330  1  1.00700439  0.88374301  0.98848281  1
  O  O331  1  0.49591552  0.49116903  0.38106040  1
  O  O332  1  0.49324416  0.49784663  0.87976461  1
  O  O333  1  0.48881050  0.98349993  0.38215655  1
  O  O334  1  0.47307082  0.98879775  0.86075949  1
  O  O335  1  0.98625332  0.49777124  0.37134773  1
  O  O336  1  0.99255138  0.51025034  0.88263189  1
  O  O337  1  0.99007734  0.99417798  0.38246316  1
  O  O338  1  0.99533003  0.99624838  0.88110199  1
  O  O339  1  0.00566564  0.00353425  0.11900650  1
  O  O340  1  0.00475577  0.00522604  0.62110334  1
  O  O341  1  0.00906394  0.51023694  0.11763725  1
  O  O342  1  -0.03249196  0.50896608  0.60551928  1
  O  O343  1  0.47982224  -0.00235082  0.14499944  1
  O  O344  1  0.49051438  -0.00478775  0.60976601  1
  O  O345  1  0.49673928  0.49658954  0.10846225  1
  O  O346  1  0.50010968  0.50918000  0.61688990  1
  O  O347  1  0.23658066  0.36818125  0.24308996  1
  O  O348  1  0.24602446  0.38732189  0.75016820  1
  O  O349  1  0.23645083  0.87230832  0.25329598  1
  O  O350  1  0.23432319  0.87087972  0.74655668  1
  O  O351  1  0.73714431  0.38584319  0.25586845  1
  O  O352  1  0.73956670  0.38007748  0.74760145  1
  O  O353  1  0.75695831  0.87650168  0.23556371  1
  O  O354  1  0.73990365  0.87642390  0.73888575  1
  O  O355  1  0.24055074  0.12688350  0.26506681  1
  O  O356  1  0.25487098  0.13318640  0.76120025  1
  O  O357  1  0.25479928  0.62769846  0.26537651  1
  O  O358  1  0.25757838  0.61977954  0.75517579  1
  O  O359  1  0.76709700  0.14072866  0.25895067  1
  O  O360  1  0.75619038  0.12708397  0.76160720  1
  O  O361  1  0.75628358  0.61955975  0.25886892  1
  O  O362  1  0.74098566  0.61063511  0.75678430  1
  O  O363  1  0.36135968  0.11243858  0.38198029  1
  O  O364  1  0.36246072  0.11785923  0.86800354  1
  O  O365  1  0.36793951  0.61508311  0.37195757  1
  O  O366  1  0.37147928  0.62210549  0.86796135  1
  O  O367  1  0.86932730  0.11754660  0.36939790  1
  O  O368  1  0.87254772  0.11696725  0.87227847  1
  O  O369  1  0.86892442  0.61901285  0.36791347  1
  O  O370  1  0.86480132  0.61293544  0.87822465  1
  O  O371  1  0.13414686  0.38227091  0.12941878  1
  O  O372  1  0.13101979  0.36159931  0.62965269  1
  O  O373  1  0.12347517  0.88115781  0.13713655  1
  O  O374  1  0.13181369  0.88223028  0.63285209  1
  O  O375  1  0.62078527  0.37922888  0.13765830  1
  O  O376  1  0.63049572  0.37465471  0.63545106  1
  O  O377  1  0.62799059  0.88932081  0.12817537  1
  O  O378  1  0.62743946  0.86953665  0.63653620  1
  O  O379  1  0.11791208  0.25502962  0.25176323  1
  O  O380  1  0.12541918  0.25042016  0.76815438  1
  O  O381  1  0.12340708  0.75948359  0.26434725  1
  O  O382  1  0.11393686  0.76044899  0.76026693  1
  O  O383  1  0.63634855  0.26571980  0.25042538  1
  O  O384  1  0.61114667  0.25777849  0.76287426  1
  O  O385  1  0.61085495  0.74208040  0.25006511  1
  O  O386  1  0.62369459  0.75262333  0.75952512  1
  O  O387  1  0.36967975  0.24754504  0.23708289  1
  O  O388  1  0.37537292  0.24594863  0.74302461  1
  O  O389  1  0.38213827  0.74739502  0.24307564  1
  O  O390  1  0.37879556  0.73717884  0.74975367  1
  O  O391  1  0.88201927  0.24773283  0.24392166  1
  O  O392  1  0.87313014  0.25108205  0.73633040  1
  O  O393  1  0.87152375  0.73705921  0.24229793  1
  O  O394  1  0.88945891  0.76707558  0.75531692  1
  O  O395  1  0.38837863  0.49636485  0.49066262  1
  O  O396  1  0.38235835  0.51135337  0.98714903  1
  O  O397  1  0.38297466  0.99374451  0.49010389  1
  O  O398  1  0.36666161  0.98922126  0.98808624  1
  O  O399  1  0.85817127  0.48449853  0.48344548  1
  O  O400  1  0.88620458  0.49914386  0.99380007  1
  O  O401  1  0.88002685  0.99411801  0.49194112  1
  O  O402  1  0.89034283  1.00923787  0.99223918  1
  O  O403  1  0.11371932  0.00497124  0.00724009  1
  O  O404  1  0.11720896  0.00292674  0.50943264  1
  O  O405  1  0.12212877  0.50727898  0.00904001  1
  O  O406  1  0.14176217  0.47345168  0.51021187  1
  O  O407  1  0.58409864  -0.03470434  -0.04782799  1
  O  O408  1  0.60786464  -0.00206182  0.49255718  1
  O  O409  1  0.61744399  0.50884620  0.00072011  1
  O  O410  1  0.61590120  0.50407045  0.49974493  1
  O  O411  1  0.36301994  0.36527847  0.13245544  1
  O  O412  1  0.37788925  0.36141652  0.62335900  1
  O  O413  1  0.37390834  0.86259868  0.11297793  1
  O  O414  1  0.35869716  0.87343206  0.63662677  1
  O  O415  1  0.88355543  0.36383152  0.12559520  1
  O  O416  1  0.86668357  0.36470262  0.61480190  1
  O  O417  1  0.89092416  0.85387433  0.12505955  1
  O  O418  1  0.86418006  0.87284736  0.61637982  1
  O  O419  1  0.12786877  0.12650091  0.38182689  1
  O  O420  1  0.12965173  0.13187957  0.87916337  1
  O  O421  1  0.13438431  0.62890427  0.36993123  1
  O  O422  1  0.13153667  0.63326770  0.88209057  1
  O  O423  1  0.64057555  0.12555158  0.36281562  1
  O  O424  1  0.63938073  0.13237073  0.86394114  1
  O  O425  1  0.63306413  0.62422440  0.37967010  1
  O  O426  1  0.63368589  0.63020843  0.87992007  1
