# generated using pymatgen
data_V85Zn86O256
_symmetry_space_group_name_H-M   'P 1'
_cell_length_a   16.95412170
_cell_length_b   16.94402648
_cell_length_c   16.95041587
_cell_angle_alpha   90.02529206
_cell_angle_beta   90.05164383
_cell_angle_gamma   90.08402217
_symmetry_Int_Tables_number   1
_chemical_formula_structural   V85Zn86O256
_chemical_formula_sum   'V85 Zn86 O256'
_cell_volume   4869.35670060
_cell_formula_units_Z   1
loop_
 _symmetry_equiv_pos_site_id
 _symmetry_equiv_pos_as_xyz
  1  'x, y, z'
loop_
 _atom_site_type_symbol
 _atom_site_label
 _atom_site_symmetry_multiplicity
 _atom_site_fract_x
 _atom_site_fract_y
 _atom_site_fract_z
 _atom_site_occupancy
  V  V0  1  0.12191971  0.00597499  0.12563114  1
  V  V1  1  0.62199588  0.00198611  0.12159065  1
  V  V2  1  0.42727263  0.44462880  0.44599445  1
  V  V3  1  0.49850006  0.49847021  -0.00120977  1
  V  V4  1  0.25365003  0.87713456  0.12005813  1
  V  V5  1  0.36462596  0.25419087  0.62651669  1
  V  V6  1  0.62609268  0.87340761  0.25050302  1
  V  V7  1  -0.00103258  0.49921031  0.00032951  1
  V  V8  1  0.87599656  0.88163102  0.49849411  1
  V  V9  1  0.62557688  0.62368196  -0.00259093  1
  V  V10  1  0.38330274  0.63559024  0.75386292  1
  V  V11  1  0.88366425  0.37514801  0.49040175  1
  V  V12  1  0.87150057  0.00018270  0.86779786  1
  V  V13  1  0.61255066  0.36900816  0.25617521  1
  V  V14  1  0.36009362  0.36171635  0.00456576  1
  V  V15  1  0.00031435  0.87600283  0.87711497  1
  V  V16  1  0.13443135  0.25178982  0.87988701  1
  V  V17  1  0.49965611  0.87333596  0.37876873  1
  V  V18  1  0.36600773  0.24743753  0.14784738  1
  V  V19  1  0.87459533  0.74833382  0.12201029  1
  V  V20  1  0.62787807  0.12862115  -0.00026670  1
  V  V21  1  0.49973177  0.37363397  0.87747328  1
  V  V22  1  0.13827872  0.49130233  0.12732292  1
  V  V23  1  0.24658724  -0.00144886  0.73637872  1
  V  V24  1  -0.00178974  0.74297183  0.75326939  1
  V  V25  1  0.75355741  0.00087860  0.25022361  1
  V  V26  1  0.74925019  0.75070433  0.50144135  1
  V  V27  1  0.37369057  0.50002140  0.87785074  1
  V  V28  1  0.88334977  0.25533196  0.62374015  1
  V  V29  1  0.86755682  0.37004323  -0.00351785  1
  V  V30  1  -0.00005863  0.88278416  0.37429319  1
  V  V31  1  0.87353192  0.74644049  0.62985015  1
  V  V32  1  0.75224523  0.62506249  0.86542353  1
  V  V33  1  0.00291488  0.50318903  0.49372528  1
  V  V34  1  0.12891789  0.62778474  0.00668569  1
  V  V35  1  0.63541140  0.87440676  0.74883684  1
  V  V36  1  0.49224687  0.86721751  0.86718243  1
  V  V37  1  -0.00098284  0.37331481  0.87521363  1
  V  V38  1  -0.00236150  0.00549307  0.00285599  1
  V  V39  1  0.12846086  0.75265720  0.88313594  1
  V  V40  1  0.12534086  0.50853388  0.62023303  1
  V  V41  1  0.87591724  0.50238122  0.86567773  1
  V  V42  1  0.36507483  0.75331003  0.12102323  1
  V  V43  1  0.00083885  0.62191640  0.12452505  1
  V  V44  1  0.25237166  0.11501824  0.88007941  1
  V  V45  1  0.50266985  0.12552636  0.62641168  1
  V  V46  1  0.74664349  0.36680212  0.12255323  1
  V  V47  1  0.25097834  0.63089547  0.88139505  1
  V  V48  1  0.13899255  0.37274088  0.25091323  1
  V  V49  1  0.50003708  0.25069187  0.74922374  1
  V  V50  1  0.74802602  0.74784091  -0.00275649  1
  V  V51  1  0.74916038  0.87350957  0.12230589  1
  V  V52  1  0.37850897  0.01083623  0.37515104  1
  V  V53  1  0.12632299  0.87174326  0.24912534  1
  V  V54  1  0.74908815  0.12289052  0.86820345  1
  V  V55  1  0.49686163  0.75285385  0.24756362  1
  V  V56  1  0.88168054  0.12509934  0.24590746  1
  V  V57  1  0.11685355  0.24154354  0.37990276  1
  V  V58  1  0.49945865  0.62947999  0.62374560  1
  V  V59  1  0.25282699  0.00999368  0.25100504  1
  V  V60  1  0.87581639  0.24232395  0.11691593  1
  V  V61  1  0.62454002  0.49719281  0.12463753  1
  V  V62  1  0.37038517  0.86856998  0.50826115  1
  V  V63  1  0.87337440  0.62327416  0.24951962  1
  V  V64  1  0.12835487  0.37860626  0.74952410  1
  V  V65  1  0.37189963  0.61229830  0.25494229  1
  V  V66  1  0.00220559  0.11259390  0.60886029  1
  V  V67  1  0.74812363  0.49969566  0.74035273  1
  V  V68  1  0.62070359  0.61593447  0.50057596  1
  V  V69  1  0.74964578  0.62234193  0.37551754  1
  V  V70  1  0.50114021  0.62717876  0.12455834  1
  V  V71  1  0.63196426  0.25283085  0.87821749  1
  V  V72  1  -0.00007976  0.74863333  0.25691521  1
  V  V73  1  -0.00313212  0.26108805  0.24526121  1
  V  V74  1  0.00282486  0.63245569  0.61975063  1
  V  V75  1  0.74830367  0.49762174  0.24879431  1
  V  V76  1  0.75194209  0.24705179  0.49641045  1
  V  V77  1  0.49299147  0.00079608  -0.00910022  1
  V  V78  1  0.12690044  0.12979650  0.00378872  1
  V  V79  1  0.25057112  0.50291744  0.74969814  1
  V  V80  1  0.37611687  0.11671382  0.75842426  1
  V  V81  1  0.23112789  0.74526666  0.49428250  1
  V  V82  1  0.12756942  0.87738377  0.74481090  1
  V  V83  1  0.00260636  0.24459291  0.74798420  1
  V  V84  1  0.50662112  -0.00377121  0.50674411  1
  Zn  Zn85  1  0.24706144  0.12520553  0.38238716  1
  Zn  Zn86  1  0.15803201  0.05553941  0.55056713  1
  Zn  Zn87  1  0.87077041  0.12128786  0.74477760  1
  Zn  Zn88  1  0.88159506  0.49655877  0.37075232  1
  Zn  Zn89  1  0.62211045  0.74651002  0.37674866  1
  Zn  Zn90  1  0.63846388  0.00733813  0.63518663  1
  Zn  Zn91  1  0.49871997  0.14332473  0.15056374  1
  Zn  Zn92  1  0.60695883  0.24608288  0.36558496  1
  Zn  Zn93  1  0.37175216  0.87788623  -0.00355833  1
  Zn  Zn94  1  0.24226094  0.58724576  0.38202159  1
  Zn  Zn95  1  0.37105430  0.75524769  0.63130287  1
  Zn  Zn96  1  0.74376648  0.37254888  0.62149156  1
  Zn  Zn97  1  0.75567306  0.88439907  0.62875924  1
  Zn  Zn98  1  0.29025232  0.41112618  0.56910378  1
  Zn  Zn99  1  0.60536164  0.48608410  0.61405054  1
  Zn  Zn100  1  0.87589194  0.00509491  0.37976793  1
  Zn  Zn101  1  0.87290230  0.87769039  -0.00118446  1
  Zn  Zn102  1  0.74917843  0.12639570  0.37207291  1
  Zn  Zn103  1  0.62328454  0.37470356  0.74143132  1
  Zn  Zn104  1  0.62068124  0.12883649  0.49557903  1
  Zn  Zn105  1  0.61923111  0.74619109  0.86813672  1
  Zn  Zn106  1  0.23984058  0.24062412  0.50574099  1
  Zn  Zn107  1  0.19110977  0.19216699  0.18585798  1
  Zn  Zn108  1  0.18289061  0.18132501  0.69445891  1
  Zn  Zn109  1  0.17376364  0.66911005  0.22298203  1
  Zn  Zn110  1  0.19055217  0.69568283  0.68489212  1
  Zn  Zn111  1  0.68845955  0.18763940  0.18710839  1
  Zn  Zn112  1  0.68897134  0.19257100  0.68485894  1
  Zn  Zn113  1  0.68513063  0.68699320  0.18797947  1
  Zn  Zn114  1  0.68225998  0.69117512  0.68641398  1
  Zn  Zn115  1  0.30822723  0.32328764  0.32905295  1
  Zn  Zn116  1  0.31303742  0.31205618  0.81252606  1
  Zn  Zn117  1  0.31438758  0.81473157  0.31308647  1
  Zn  Zn118  1  0.30891686  0.81692346  0.81576691  1
  Zn  Zn119  1  0.81148326  0.31220034  0.31108275  1
  Zn  Zn120  1  0.81138239  0.31319663  0.80722974  1
  Zn  Zn121  1  0.81293606  0.81092835  0.31381818  1
  Zn  Zn122  1  0.81397017  0.81202373  0.81396019  1
  Zn  Zn123  1  0.18515365  0.42201506  0.43380499  1
  Zn  Zn124  1  0.18651401  0.44215511  0.93808689  1
  Zn  Zn125  1  0.19540847  0.92743101  0.42668604  1
  Zn  Zn126  1  0.18707890  0.94006958  0.93765517  1
  Zn  Zn127  1  0.69240582  0.43361172  0.43697726  1
  Zn  Zn128  1  0.68825003  0.43856499  0.93386730  1
  Zn  Zn129  1  0.68792676  0.93861013  0.43864727  1
  Zn  Zn130  1  0.68440609  0.93641879  0.93240591  1
  Zn  Zn131  1  0.31300785  0.07143238  0.06808572  1
  Zn  Zn132  1  0.32565099  0.06672343  0.56082573  1
  Zn  Zn133  1  0.31512397  0.56406750  0.06522609  1
  Zn  Zn134  1  0.30812019  0.58145186  0.56237987  1
  Zn  Zn135  1  0.80727685  0.06383360  0.05551246  1
  Zn  Zn136  1  0.81557459  0.06496989  0.56589337  1
  Zn  Zn137  1  0.81138623  0.55864101  0.05855316  1
  Zn  Zn138  1  0.81769528  0.56475437  0.56019603  1
  Zn  Zn139  1  0.43542628  0.43132533  0.18168452  1
  Zn  Zn140  1  0.43682855  0.44028501  0.68782564  1
  Zn  Zn141  1  0.44937432  0.96378683  0.19706000  1
  Zn  Zn142  1  0.43989575  0.93917091  0.69094552  1
  Zn  Zn143  1  0.93500850  0.43697671  0.18251365  1
  Zn  Zn144  1  0.94161045  0.43708550  0.68428951  1
  Zn  Zn145  1  0.93768499  0.93618839  0.18427065  1
  Zn  Zn146  1  0.93919228  0.93238629  0.68861455  1
  Zn  Zn147  1  0.05922784  0.06373394  0.30659220  1
  Zn  Zn148  1  0.06372367  0.06202918  0.81332925  1
  Zn  Zn149  1  0.06851859  0.55956642  0.31215922  1
  Zn  Zn150  1  0.06377081  0.56633747  0.81392947  1
  Zn  Zn151  1  0.56620331  0.06268824  0.31561486  1
  Zn  Zn152  1  0.56446961  0.05908904  0.81336954  1
  Zn  Zn153  1  0.55553346  0.55601392  0.31629913  1
  Zn  Zn154  1  0.56436802  0.56046207  0.80783908  1
  Zn  Zn155  1  0.43473760  0.19538556  0.44204873  1
  Zn  Zn156  1  0.44071661  0.18562628  0.93955447  1
  Zn  Zn157  1  0.43528373  0.68127388  0.43383325  1
  Zn  Zn158  1  0.43549444  0.69047345  0.94177948  1
  Zn  Zn159  1  0.93935630  0.18632642  0.43302402  1
  Zn  Zn160  1  0.94055116  0.18588477  0.93496339  1
  Zn  Zn161  1  0.93738748  0.68967176  0.43953683  1
  Zn  Zn162  1  0.93688974  0.68520618  0.93733020  1
  Zn  Zn163  1  0.06015146  0.31222588  0.06444452  1
  Zn  Zn164  1  0.07983357  0.32404180  0.55769031  1
  Zn  Zn165  1  0.06192866  0.81598760  0.06501687  1
  Zn  Zn166  1  0.08550930  0.86572862  0.54063836  1
  Zn  Zn167  1  0.55527469  0.30892166  0.06500381  1
  Zn  Zn168  1  0.55182142  0.31236830  0.54107018  1
  Zn  Zn169  1  0.56036023  0.81556307  0.05855311  1
  Zn  Zn170  1  0.56302787  0.80655486  0.56983052  1
  O  O171  1  0.12980174  0.11466668  0.11886938  1
  O  O172  1  0.10812253  0.12738909  0.62634949  1
  O  O173  1  0.11869121  0.61486609  0.12577055  1
  O  O174  1  0.11556959  0.61846221  0.63501063  1
  O  O175  1  0.62158846  0.11892051  0.11749988  1
  O  O176  1  0.61251491  0.12663496  0.62725708  1
  O  O177  1  0.62037465  0.61812638  0.11915190  1
  O  O178  1  0.61748531  0.62437032  0.61640842  1
  O  O179  1  0.38629010  0.36412477  0.39801320  1
  O  O180  1  0.38159149  0.37946760  0.88128663  1
  O  O181  1  0.38752130  0.88136902  0.38497515  1
  O  O182  1  0.38737494  0.87383209  0.87816611  1
  O  O183  1  0.87453437  0.37660065  0.38584925  1
  O  O184  1  0.87718837  0.37910523  0.88061434  1
  O  O185  1  0.88121205  0.87587221  0.38002321  1
  O  O186  1  0.88093243  0.88277830  0.87872141  1
  O  O187  1  0.25997589  0.00150781  0.36838701  1
  O  O188  1  0.24703556  0.01183650  0.86947398  1
  O  O189  1  0.26416071  0.47827439  0.38554112  1
  O  O190  1  0.25400309  0.51057262  0.87027161  1
  O  O191  1  0.75353916  -0.00070992  0.36222048  1
  O  O192  1  0.75932940  0.00951331  0.88083726  1
  O  O193  1  0.75384105  0.51021061  0.36969342  1
  O  O194  1  0.75670873  0.50534035  0.86420994  1
  O  O195  1  0.23683825  0.49920287  0.11771218  1
  O  O196  1  0.24102840  0.50566084  0.63401534  1
  O  O197  1  0.24597733  0.99558705  0.13262045  1
  O  O198  1  0.24869890  1.01112762  0.63491098  1
  O  O199  1  0.74394456  0.48973508  0.12746753  1
  O  O200  1  0.75775025  0.50226133  0.63633965  1
  O  O201  1  0.73974968  0.99515258  0.12535879  1
  O  O202  1  0.75103484  0.99809631  0.62525932  1
  O  O203  1  -0.00531003  0.36302554  0.24656433  1
  O  O204  1  0.00551744  0.36685333  0.75802244  1
  O  O205  1  0.00333759  0.86733861  0.25179006  1
  O  O206  1  0.00670473  0.86569721  0.75946631  1
  O  O207  1  0.51474878  0.37938396  0.24702273  1
  O  O208  1  0.49802852  0.36768573  0.76177354  1
  O  O209  1  0.50472907  0.87113918  0.25833064  1
  O  O210  1  0.50314731  0.87676283  0.76430273  1
  O  O211  1  0.49674458  0.06838013  0.23156182  1
  O  O212  1  0.49356705  0.13005380  0.75011659  1
  O  O213  1  0.49418870  0.63513495  0.24395774  1
  O  O214  1  0.48797981  0.62729667  0.75291159  1
  O  O215  1  0.98516746  0.12958254  0.24286445  1
  O  O216  1  1.00029368  0.13810297  0.75137020  1
  O  O217  1  0.99287802  0.63111221  0.24290416  1
  O  O218  1  1.00197543  0.63799687  0.74772778  1
  O  O219  1  0.37462050  0.26220699  -0.00727533  1
  O  O220  1  0.36351248  0.24329375  0.52392506  1
  O  O221  1  0.37853685  0.75655293  0.01681840  1
  O  O222  1  0.38200473  0.76437739  0.49982131  1
  O  O223  1  0.88031177  0.25873393  0.00330766  1
  O  O224  1  0.87497399  0.25692366  0.50417864  1
  O  O225  1  0.86668071  0.74913872  0.00647545  1
  O  O226  1  0.86376485  0.75449186  0.50552306  1
  O  O227  1  0.10483879  0.24183758  0.48057317  1
  O  O228  1  0.11778433  0.24171248  0.99252554  1
  O  O229  1  0.13397804  0.76472378  0.50172499  1
  O  O230  1  0.11750175  0.74488663  0.99129816  1
  O  O231  1  0.65173010  0.24605648  0.51683805  1
  O  O232  1  0.61574900  0.24135313  0.99033989  1
  O  O233  1  0.63694655  0.74188973  0.50019139  1
  O  O234  1  0.63346791  0.74233377  0.99898485  1
  O  O235  1  0.48076928  0.25147749  0.12550098  1
  O  O236  1  0.49062843  0.24468436  0.63326726  1
  O  O237  1  0.49412633  0.74953763  0.13127825  1
  O  O238  1  0.49446274  0.73608976  0.62916214  1
  O  O239  1  0.98635691  0.25095073  0.13007056  1
  O  O240  1  0.99925168  0.24705154  0.63116213  1
  O  O241  1  0.98679940  0.74585062  0.12686374  1
  O  O242  1  0.99446329  0.74128544  0.63514896  1
  O  O243  1  0.00652166  0.24242698  0.35752270  1
  O  O244  1  0.01038024  0.25427742  0.86794811  1
  O  O245  1  -0.00629469  0.75492265  0.35975845  1
  O  O246  1  0.00409221  0.75408777  0.87101247  1
  O  O247  1  0.52306065  0.25907597  0.43805159  1
  O  O248  1  0.50740739  0.25582094  0.86856979  1
  O  O249  1  0.50014792  0.75654809  0.36584203  1
  O  O250  1  0.50120732  0.76379409  0.88151259  1
  O  O251  1  0.24296226  0.12127004  0.50294406  1
  O  O252  1  0.23680458  0.11885839  0.99403328  1
  O  O253  1  0.24324327  0.63916574  0.48994325  1
  O  O254  1  0.24540376  0.62109923  0.98955524  1
  O  O255  1  0.75944664  0.13831684  0.49511833  1
  O  O256  1  0.73503256  0.12546956  0.98831769  1
  O  O257  1  0.74698897  0.63106972  0.49226002  1
  O  O258  1  0.74501014  0.62717987  0.98979314  1
  O  O259  1  0.26268491  0.37594618  -0.00879230  1
  O  O260  1  0.20640591  0.35169642  0.52302194  1
  O  O261  1  0.25151269  0.88334606  0.01495285  1
  O  O262  1  0.26848236  0.87195106  0.50228252  1
  O  O263  1  0.75982479  0.38038610  0.00548225  1
  O  O264  1  0.76301065  0.36541523  0.50247506  1
  O  O265  1  0.74900274  0.86574507  0.00406430  1
  O  O266  1  0.75679759  0.86489557  0.49805302  1
  O  O267  1  0.11525175  0.47890538  0.24041246  1
  O  O268  1  0.13157856  0.49759050  0.74886388  1
  O  O269  1  0.13020517  0.99346496  0.24165368  1
  O  O270  1  0.13283856  0.99060392  0.75595887  1
  O  O271  1  0.62877576  0.49231100  0.24436683  1
  O  O272  1  0.63589251  0.49573244  0.74558769  1
  O  O273  1  0.63958394  0.99237508  0.24031422  1
  O  O274  1  0.61860663  0.98196074  0.75062891  1
  O  O275  1  0.36169348  -0.01396148  0.26552128  1
  O  O276  1  0.36747964  0.01091441  0.74769233  1
  O  O277  1  0.38622046  0.51445244  0.24072972  1
  O  O278  1  0.36594797  0.50869544  0.75909602  1
  O  O279  1  0.86476609  0.00645151  0.24058769  1
  O  O280  1  0.88258502  0.00164560  0.76423996  1
  O  O281  1  0.86781423  0.50536536  0.24937478  1
  O  O282  1  0.87119286  0.49338411  0.76089761  1
  O  O283  1  0.11853560  0.35817769  0.35715325  1
  O  O284  1  0.12022539  0.37047296  0.87013121  1
  O  O285  1  0.11590380  0.87325664  0.35551041  1
  O  O286  1  0.11976442  0.86786672  0.87411898  1
  O  O287  1  0.63143850  0.37522554  0.35824589  1
  O  O288  1  0.61684099  0.36833386  0.87438905  1
  O  O289  1  0.61494464  0.87309417  0.37014664  1
  O  O290  1  0.61574037  0.87142980  0.86573888  1
  O  O291  1  0.37897619  0.14183251  0.12658468  1
  O  O292  1  0.38632333  0.13259315  0.63817543  1
  O  O293  1  0.38504223  0.63846956  0.12446506  1
  O  O294  1  0.38052735  0.62933142  0.63764468  1
  O  O295  1  0.86419855  0.13758697  0.12497658  1
  O  O296  1  0.88889828  0.13682125  0.62747076  1
  O  O297  1  0.87775858  0.62966452  0.12788256  1
  O  O298  1  0.88314975  0.63917550  0.62185384  1
  O  O299  1  0.26626438  0.24893380  0.12340168  1
  O  O300  1  0.26381409  0.24180883  0.64032925  1
  O  O301  1  0.26337703  0.75845666  0.13142281  1
  O  O302  1  0.25567177  0.74436089  0.60503892  1
  O  O303  1  0.75546703  0.26139447  0.12495445  1
  O  O304  1  0.76772618  0.24935730  0.61862282  1
  O  O305  1  0.75867896  0.75030425  0.11961604  1
  O  O306  1  0.75775929  0.75269289  0.61834420  1
  O  O307  1  0.23192838  0.24636132  0.38022475  1
  O  O308  1  0.23749632  0.24149914  0.86783496  1
  O  O309  1  0.25351873  0.76566778  0.39486076  1
  O  O310  1  0.24018074  0.74356377  0.87649616  1
  O  O311  1  0.75017595  0.25107178  0.38842314  1
  O  O312  1  0.73663772  0.24769172  0.87128983  1
  O  O313  1  0.74762856  0.73864128  0.38042529  1
  O  O314  1  0.75108554  0.74012467  0.88063230  1
  O  O315  1  0.01167686  0.11356853  -0.00580126  1
  O  O316  1  -0.00561624  0.11880310  0.50951118  1
  O  O317  1  0.00668609  0.61934337  0.00553577  1
  O  O318  1  -0.00213872  0.62102962  0.51056261  1
  O  O319  1  0.51039794  0.11138624  -0.00438020  1
  O  O320  1  0.49751710  0.11265656  0.51319802  1
  O  O321  1  0.50552928  0.61966830  0.00440684  1
  O  O322  1  0.50985557  0.62959118  0.50728354  1
  O  O323  1  0.49560867  0.40799686  0.51093458  1
  O  O324  1  0.49386611  0.37838834  0.98899932  1
  O  O325  1  0.50016175  0.87820727  0.49575736  1
  O  O326  1  0.50116029  0.88451868  0.98605299  1
  O  O327  1  0.99452607  0.38920818  0.50703564  1
  O  O328  1  0.98974796  0.37981903  0.99369588  1
  O  O329  1  0.98663302  0.85946548  0.48212723  1
  O  O330  1  0.99901440  0.88722713  0.99480318  1
  O  O331  1  0.47997818  0.50746559  0.38381677  1
  O  O332  1  0.49499388  0.49199272  0.87814924  1
  O  O333  1  0.49606296  0.99146919  0.38649471  1
  O  O334  1  0.50284754  0.99040619  0.88608216  1
  O  O335  1  1.00083959  0.50996728  0.38944988  1
  O  O336  1  0.99302267  0.49579036  0.87833488  1
  O  O337  1  0.99401456  0.98647817  0.36255997  1
  O  O338  1  0.99420974  0.99606386  0.88269581  1
  O  O339  1  0.00968530  -0.00393024  0.11615869  1
  O  O340  1  -0.00560444  0.01475211  0.63024696  1
  O  O341  1  0.00188779  0.50453598  0.11668285  1
  O  O342  1  0.00401777  0.51443120  0.62164166  1
  O  O343  1  0.51731966  -0.01686130  0.10391578  1
  O  O344  1  0.50251326  0.00809562  0.62135440  1
  O  O345  1  0.50659010  0.50394251  0.11657868  1
  O  O346  1  0.49927044  0.52120128  0.64049366  1
  O  O347  1  0.23701654  0.37093427  0.24949257  1
  O  O348  1  0.24177136  0.39098558  0.76017544  1
  O  O349  1  0.24126493  0.87965818  0.24076483  1
  O  O350  1  0.24172499  0.88771235  0.75736999  1
  O  O351  1  0.74598369  0.38036639  0.23959671  1
  O  O352  1  0.74680622  0.38422186  0.74445429  1
  O  O353  1  0.74767727  0.87960071  0.24284107  1
  O  O354  1  0.73920667  0.87445614  0.75255956  1
  O  O355  1  0.24634506  0.11179298  0.25197721  1
  O  O356  1  0.25566527  0.11691809  0.76007458  1
  O  O357  1  0.27616732  0.62268012  0.22735395  1
  O  O358  1  0.25222259  0.61810938  0.76200581  1
  O  O359  1  0.75837369  0.11654213  0.24740946  1
  O  O360  1  0.75090077  0.13214881  0.76339877  1
  O  O361  1  0.75217135  0.61948724  0.25629123  1
  O  O362  1  0.74487623  0.61963704  0.75978544  1
  O  O363  1  0.37581701  0.11420371  0.38425773  1
  O  O364  1  0.36547111  0.13064382  0.86961748  1
  O  O365  1  0.36535979  0.63097597  0.35783923  1
  O  O366  1  0.36868272  0.62271831  0.87311175  1
  O  O367  1  0.87208936  0.12244436  0.36106701  1
  O  O368  1  0.86599375  0.11951590  0.87429326  1
  O  O369  1  0.86655470  0.62483959  0.36748772  1
  O  O370  1  0.86550641  0.61351154  0.87949401  1
  O  O371  1  0.12047238  0.37956773  0.13497830  1
  O  O372  1  0.11258449  0.39130352  0.64613584  1
  O  O373  1  0.13164425  0.88654730  0.12892729  1
  O  O374  1  0.12279261  0.86481214  0.64693381  1
  O  O375  1  0.63072696  0.37682972  0.12966526  1
  O  O376  1  0.62429925  0.37304498  0.62167876  1
  O  O377  1  0.63177293  0.87924355  0.12945342  1
  O  O378  1  0.62648637  0.87504359  0.63896761  1
  O  O379  1  0.11496386  0.25773478  0.24571311  1
  O  O380  1  0.12070804  0.26001489  0.75728924  1
  O  O381  1  0.10819924  0.76271869  0.22805565  1
  O  O382  1  0.11990184  0.75418284  0.76504511  1
  O  O383  1  0.62540043  0.26213888  0.24977366  1
  O  O384  1  0.61288693  0.25092277  0.75671800  1
  O  O385  1  0.61360604  0.75548376  0.24959066  1
  O  O386  1  0.62505663  0.76550065  0.75256158  1
  O  O387  1  0.36755541  0.25844030  0.24703426  1
  O  O388  1  0.38467576  0.24098252  0.74949705  1
  O  O389  1  0.38488718  0.75003067  0.24101487  1
  O  O390  1  0.36261501  0.73886357  0.75129335  1
  O  O391  1  0.87772355  0.24402256  0.24014125  1
  O  O392  1  0.88571625  0.25112950  0.74185185  1
  O  O393  1  0.87941183  0.74433997  0.24005392  1
  O  O394  1  0.88508147  0.75657754  0.74225300  1
  O  O395  1  0.35967368  0.48865142  0.51788768  1
  O  O396  1  0.38080332  0.49137884  0.99642960  1
  O  O397  1  0.38691739  0.98838785  0.49555716  1
  O  O398  1  0.39130247  1.00131686  1.00802257  1
  O  O399  1  0.88460688  0.49262008  0.49869864  1
  O  O400  1  0.87878604  0.49102246  0.98926199  1
  O  O401  1  0.87240835  0.98496082  0.49856307  1
  O  O402  1  0.88293102  1.00181647  0.99264332  1
  O  O403  1  0.11803649  0.00725179  0.00668722  1
  O  O404  1  0.11983577  -0.03351812  0.49895038  1
  O  O405  1  0.11741492  0.50477018  0.00718132  1
  O  O406  1  0.11701342  0.49592949  0.51485669  1
  O  O407  1  0.62069884  0.00697995  0.00375746  1
  O  O408  1  0.61522177  0.00228352  0.50359158  1
  O  O409  1  0.61946918  0.50401498  0.00351765  1
  O  O410  1  0.63820246  0.51287999  0.50221980  1
  O  O411  1  0.37506783  0.36482375  0.11097032  1
  O  O412  1  0.37020147  0.35931596  0.63914204  1
  O  O413  1  0.36954443  0.86729771  0.12626590  1
  O  O414  1  0.38424515  0.87452093  0.61212588  1
  O  O415  1  0.86596364  0.36692947  0.11495441  1
  O  O416  1  0.87844121  0.36570685  0.61624102  1
  O  O417  1  0.86835462  0.86514458  0.12083979  1
  O  O418  1  0.87831204  0.86315282  0.61646716  1
  O  O419  1  0.12503912  0.13739690  0.36263113  1
  O  O420  1  0.13191580  0.13270242  0.88244498  1
  O  O421  1  0.15065830  0.63008530  0.32984406  1
  O  O422  1  0.13221380  0.63254013  0.88357769  1
  O  O423  1  0.63007511  0.12990434  0.37753748  1
  O  O424  1  0.62994967  0.13141420  0.87919443  1
  O  O425  1  0.63127158  0.62463384  0.38052165  1
  O  O426  1  0.63295270  0.62524718  0.87943979  1
