# generated using pymatgen
data_V85Zn86O256
_symmetry_space_group_name_H-M   'P 1'
_cell_length_a   16.92992132
_cell_length_b   16.94797186
_cell_length_c   16.94275185
_cell_angle_alpha   90.02871284
_cell_angle_beta   90.02784609
_cell_angle_gamma   89.98179241
_symmetry_Int_Tables_number   1
_chemical_formula_structural   V85Zn86O256
_chemical_formula_sum   'V85 Zn86 O256'
_cell_volume   4861.34559579
_cell_formula_units_Z   1
loop_
 _symmetry_equiv_pos_site_id
 _symmetry_equiv_pos_as_xyz
  1  'x, y, z'
loop_
 _atom_site_type_symbol
 _atom_site_label
 _atom_site_symmetry_multiplicity
 _atom_site_fract_x
 _atom_site_fract_y
 _atom_site_fract_z
 _atom_site_occupancy
  V  V0  1  0.87658609  0.62493088  0.75160569  1
  V  V1  1  0.25697410  0.50446470  0.75310077  1
  V  V2  1  0.24628932  0.50272773  0.24776943  1
  V  V3  1  0.25557863  0.87369775  0.62616108  1
  V  V4  1  0.24223646  0.25032473  -0.00287291  1
  V  V5  1  0.75096020  0.87171014  0.12669868  1
  V  V6  1  0.87845240  -0.00188907  0.37383536  1
  V  V7  1  0.87447639  0.86976078  -0.01306944  1
  V  V8  1  0.37575824  0.12112536  0.25307482  1
  V  V9  1  0.37844509  0.25118282  0.62568201  1
  V  V10  1  0.25230641  0.37772043  0.62549095  1
  V  V11  1  0.87493844  0.12729605  0.24371719  1
  V  V12  1  0.74906413  0.12605395  0.38386407  1
  V  V13  1  0.49748669  0.63410356  0.64301770  1
  V  V14  1  0.12764862  0.12492613  0.50007668  1
  V  V15  1  0.62751307  0.00254646  0.11836413  1
  V  V16  1  0.74929192  -0.00493621  0.74437698  1
  V  V17  1  0.37945600  0.12706405  0.75619035  1
  V  V18  1  -0.00085491  0.75432896  0.75571923  1
  V  V19  1  0.12433644  0.25095687  0.37601935  1
  V  V20  1  0.74995579  0.12322830  0.87625157  1
  V  V21  1  0.61641648  0.61391575  -0.00041884  1
  V  V22  1  0.62105138  0.24649950  0.38003446  1
  V  V23  1  0.37312565  0.62894530  0.24023912  1
  V  V24  1  0.25028521  0.75241388  0.50025906  1
  V  V25  1  0.88141592  0.74334804  0.12725829  1
  V  V26  1  0.12618018  -0.00110089  0.62047609  1
  V  V27  1  -0.00364956  0.25092155  0.24289876  1
  V  V28  1  0.00459111  0.86472444  0.37532251  1
  V  V29  1  0.12672543  0.50243102  0.62609387  1
  V  V30  1  0.00095749  0.62670700  0.62584232  1
  V  V31  1  0.82541597  0.43979193  0.43984234  1
  V  V32  1  0.62890563  -0.00914310  0.61620543  1
  V  V33  1  0.12165849  0.87751110  0.75943507  1
  V  V34  1  0.49464378  0.75676583  0.24420450  1
  V  V35  1  0.24633957  0.37812460  0.12420124  1
  V  V36  1  0.00150805  0.50016678  0.49584385  1
  V  V37  1  0.63193314  0.37350117  0.74648232  1
  V  V38  1  0.24642848  0.62290084  0.88489577  1
  V  V39  1  0.12253782  0.63391520  0.49889771  1
  V  V40  1  0.01177618  0.51325686  0.02162794  1
  V  V41  1  0.74773885  0.75115735  0.50206924  1
  V  V42  1  0.74599203  0.49559003  0.22930181  1
  V  V43  1  0.75341309  0.24782734  0.01490109  1
  V  V44  1  0.25115521  0.00338125  0.75053333  1
  V  V45  1  0.24427191  0.62817869  0.37439876  1
  V  V46  1  0.61918696  0.75838732  0.37283904  1
  V  V47  1  0.00148082  0.12677924  0.62373142  1
  V  V48  1  0.12760825  0.37362089  0.75747744  1
  V  V49  1  0.75024441  -0.00124218  0.24982915  1
  V  V50  1  -0.00266988  -0.00392364  -0.00973001  1
  V  V51  1  0.74612216  0.62550742  0.87490095  1
  V  V52  1  -0.00084643  0.37841630  0.87890150  1
  V  V53  1  0.61112595  0.62602932  0.49636616  1
  V  V54  1  0.25210694  -0.00010359  0.24887617  1
  V  V55  1  0.50630329  0.25012285  0.74893398  1
  V  V56  1  0.38526182  0.38170421  0.50080278  1
  V  V57  1  0.38309209  0.50513702  0.37754940  1
  V  V58  1  0.75171414  0.49777812  0.74519756  1
  V  V59  1  0.25217478  0.25308068  0.49998826  1
  V  V60  1  0.24260312  0.13040566  0.87451231  1
  V  V61  1  0.87159125  0.26297297  0.61833950  1
  V  V62  1  0.87226845  0.87446105  0.50477430  1
  V  V63  1  0.38381427  0.50346467  0.88099273  1
  V  V64  1  0.37217686  0.24894497  0.12610590  1
  V  V65  1  0.12259522  0.86883912  0.25076957  1
  V  V66  1  0.12492376  0.37792897  0.24985965  1
  V  V67  1  0.51000188  0.12306121  0.62080324  1
  V  V68  1  0.50137537  0.00237080  -0.00565619  1
  V  V69  1  0.00377045  0.25171554  0.75495112  1
  V  V70  1  0.25196372  0.12790550  0.37267818  1
  V  V71  1  0.61819526  0.49916873  0.62309678  1
  V  V72  1  0.12266336  0.74759433  0.88407559  1
  V  V73  1  0.87524172  0.12655655  0.74820582  1
  V  V74  1  0.37717937  0.86618100  0.00178547  1
  V  V75  1  0.50535581  0.85883401  0.86900060  1
  V  V76  1  0.63277210  0.24863667  0.87749142  1
  V  V77  1  0.12098899  0.00287770  0.12206316  1
  V  V78  1  0.87740232  0.61917286  0.25571242  1
  V  V79  1  0.87485504  0.37169742  0.01593685  1
  V  V80  1  0.74086655  0.74503181  0.00222796  1
  V  V81  1  -0.00021979  0.37466528  0.38136330  1
  V  V82  1  0.25271829  0.86833224  0.12299531  1
  V  V83  1  0.49449420  -0.00150273  0.48799373  1
  V  V84  1  0.50261578  0.12446423  0.12027095  1
  Zn  Zn85  1  0.49975307  0.37823272  0.37143469  1
  Zn  Zn86  1  0.50171658  0.25113993  0.24898967  1
  Zn  Zn87  1  0.49407158  0.62382911  0.11996116  1
  Zn  Zn88  1  0.74693695  0.62108049  0.37550015  1
  Zn  Zn89  1  0.24867879  0.74411133  0.00578543  1
  Zn  Zn90  1  0.61794375  0.86325078  0.74541691  1
  Zn  Zn91  1  0.87122932  0.75567438  0.62808079  1
  Zn  Zn92  1  0.61947056  0.87768344  0.25197150  1
  Zn  Zn93  1  0.00290882  -0.00258122  0.49820189  1
  Zn  Zn94  1  0.38367476  0.87301540  0.48009894  1
  Zn  Zn95  1  0.75207870  0.25744905  0.50153292  1
  Zn  Zn96  1  0.62225793  0.37143583  0.24266052  1
  Zn  Zn97  1  0.38115788  0.37977546  0.00333793  1
  Zn  Zn98  1  0.11782864  0.12799497  -0.00570179  1
  Zn  Zn99  1  0.00647350  0.73954513  0.24815352  1
  Zn  Zn100  1  0.60766445  0.48617154  0.11273607  1
  Zn  Zn101  1  0.87645067  -0.00953445  0.86772566  1
  Zn  Zn102  1  0.37735836  0.00104783  0.87637379  1
  Zn  Zn103  1  0.87687598  0.49798901  0.88016825  1
  Zn  Zn104  1  0.50729166  0.38277591  0.88111318  1
  Zn  Zn105  1  0.38347812  0.75168006  0.63295295  1
  Zn  Zn106  1  -0.00519703  0.12822643  0.11830911  1
  Zn  Zn107  1  0.18343431  0.18825689  0.18561280  1
  Zn  Zn108  1  0.18920944  0.19024769  0.68778625  1
  Zn  Zn109  1  0.17661727  0.68211528  0.17785730  1
  Zn  Zn110  1  0.22290376  0.70769832  0.71239534  1
  Zn  Zn111  1  0.68452039  0.18449593  0.19299646  1
  Zn  Zn112  1  0.69239247  0.18544471  0.68395907  1
  Zn  Zn113  1  0.68600614  0.68185692  0.18756944  1
  Zn  Zn114  1  0.68280982  0.68941799  0.68457104  1
  Zn  Zn115  1  0.31635554  0.31509562  0.31176546  1
  Zn  Zn116  1  0.31631361  0.31589329  0.81571968  1
  Zn  Zn117  1  0.31242143  0.81015090  0.31095396  1
  Zn  Zn118  1  0.31667902  0.81434470  0.81803915  1
  Zn  Zn119  1  0.80718612  0.30926638  0.30510341  1
  Zn  Zn120  1  0.81617831  0.31378829  0.81266822  1
  Zn  Zn121  1  0.81133705  0.80873535  0.31530823  1
  Zn  Zn122  1  0.78294639  0.79705453  0.79833107  1
  Zn  Zn123  1  0.19024769  0.44137370  0.43737568  1
  Zn  Zn124  1  0.18699247  0.43706840  0.93911971  1
  Zn  Zn125  1  0.21553767  0.92306712  0.41842578  1
  Zn  Zn126  1  0.19040625  0.94078627  0.93800848  1
  Zn  Zn127  1  0.66333072  0.43632934  0.43879393  1
  Zn  Zn128  1  0.69488570  0.43442394  0.93662799  1
  Zn  Zn129  1  0.68805341  0.93716725  0.43834891  1
  Zn  Zn130  1  0.68757162  0.93624426  0.93628787  1
  Zn  Zn131  1  0.31348563  0.06044691  0.06047168  1
  Zn  Zn132  1  0.31719981  0.06388968  0.56394730  1
  Zn  Zn133  1  0.31016198  0.55939252  0.06203725  1
  Zn  Zn134  1  0.31628143  0.56567889  0.56411218  1
  Zn  Zn135  1  0.81435471  0.06066687  0.05894742  1
  Zn  Zn136  1  0.81569347  0.06266573  0.56243845  1
  Zn  Zn137  1  0.81974928  0.56188499  0.06150080  1
  Zn  Zn138  1  0.80418651  0.57376809  0.56870410  1
  Zn  Zn139  1  0.43973320  0.43889606  0.18775809  1
  Zn  Zn140  1  0.44228006  0.43966483  0.69333157  1
  Zn  Zn141  1  0.43588097  0.93812669  0.18501496  1
  Zn  Zn142  1  0.43929944  0.93978653  0.68719853  1
  Zn  Zn143  1  0.93496735  0.43890111  0.19257863  1
  Zn  Zn144  1  0.93972238  0.43954395  0.68694565  1
  Zn  Zn145  1  0.93776080  0.93547017  0.18347830  1
  Zn  Zn146  1  0.93955866  0.93817899  0.68750946  1
  Zn  Zn147  1  0.06320175  0.06067511  0.31129920  1
  Zn  Zn148  1  0.06163451  0.06231414  0.81186858  1
  Zn  Zn149  1  0.06183342  0.56158535  0.31171206  1
  Zn  Zn150  1  0.06510033  0.56269309  0.81666387  1
  Zn  Zn151  1  0.56625447  0.06609264  0.30862771  1
  Zn  Zn152  1  0.56860285  0.06085365  0.80926886  1
  Zn  Zn153  1  0.56231776  0.56779574  0.30644405  1
  Zn  Zn154  1  0.56686391  0.56544754  0.81399391  1
  Zn  Zn155  1  0.43830673  0.18345108  0.43997434  1
  Zn  Zn156  1  0.44922804  0.21109595  0.94877314  1
  Zn  Zn157  1  0.43468916  0.69210256  0.43457729  1
  Zn  Zn158  1  0.43330640  0.68531290  0.93134577  1
  Zn  Zn159  1  0.93775688  0.18618866  0.43645780  1
  Zn  Zn160  1  0.93530186  0.18932721  0.93569895  1
  Zn  Zn161  1  0.93422353  0.68721773  0.43431567  1
  Zn  Zn162  1  0.93539967  0.68649565  0.93685707  1
  Zn  Zn163  1  0.06418861  0.31655786  0.06288579  1
  Zn  Zn164  1  0.06260779  0.31376526  0.56616068  1
  Zn  Zn165  1  0.05891378  0.81679199  0.06357236  1
  Zn  Zn166  1  0.06272036  0.81356758  0.56675482  1
  Zn  Zn167  1  0.56322041  0.31280371  0.06151759  1
  Zn  Zn168  1  0.56617615  0.31253681  0.56125433  1
  Zn  Zn169  1  0.56226886  0.81200880  0.06369688  1
  Zn  Zn170  1  0.55922627  0.81404737  0.55858738  1
  O  O171  1  0.12136692  0.11225022  0.12336140  1
  O  O172  1  0.12269079  0.11924090  0.62129865  1
  O  O173  1  0.11495561  0.61313331  0.12193279  1
  O  O174  1  0.11681985  0.61722940  0.61550451  1
  O  O175  1  0.61496888  0.11527522  0.12932904  1
  O  O176  1  0.61528144  0.11645737  0.63047501  1
  O  O177  1  0.62600972  0.62035421  0.10743757  1
  O  O178  1  0.61439893  0.62209475  0.61974758  1
  O  O179  1  0.37361611  0.38537947  0.38423617  1
  O  O180  1  0.37706675  0.39031988  0.87727156  1
  O  O181  1  0.32425933  0.88856166  0.38640397  1
  O  O182  1  0.38723682  0.87946433  0.88193308  1
  O  O183  1  0.88030549  0.37654502  0.37708915  1
  O  O184  1  0.88483931  0.37708888  0.88113536  1
  O  O185  1  0.88332405  0.88095050  0.38057237  1
  O  O186  1  0.86328293  0.86916675  0.88618490  1
  O  O187  1  0.23517407  0.01706118  0.35465030  1
  O  O188  1  0.25545546  0.01127123  0.86880870  1
  O  O189  1  0.25713768  0.51070067  0.37028148  1
  O  O190  1  0.25535750  0.50385201  0.87142152  1
  O  O191  1  0.75892654  0.00498778  0.37107666  1
  O  O192  1  0.75278160  0.00711184  0.86734726  1
  O  O193  1  0.75773305  0.49575393  0.38587738  1
  O  O194  1  0.75393280  0.50802284  0.86476635  1
  O  O195  1  0.25527466  0.49026739  0.13558139  1
  O  O196  1  0.24874958  0.49726947  0.63440225  1
  O  O197  1  0.24137646  0.99455003  0.13074809  1
  O  O198  1  0.24477101  0.99538109  0.62970205  1
  O  O199  1  0.74622401  0.49971121  0.12923223  1
  O  O200  1  0.73678029  0.50892370  0.63878571  1
  O  O201  1  0.74449008  0.99327256  0.12605255  1
  O  O202  1  0.73530094  1.01037429  0.62716610  1
  O  O203  1  0.00199840  0.37081458  0.26186463  1
  O  O204  1  0.00737069  0.37101426  0.75613394  1
  O  O205  1  0.00710530  0.87559439  0.25622869  1
  O  O206  1  0.00816734  0.86669107  0.74756710  1
  O  O207  1  0.49700877  0.36827153  0.25532377  1
  O  O208  1  0.51368501  0.36758924  0.75569358  1
  O  O209  1  0.49852403  0.86228715  0.24563177  1
  O  O210  1  0.49937611  0.87829733  0.76429564  1
  O  O211  1  0.49123440  0.12345829  0.23904712  1
  O  O212  1  0.49556249  0.12727761  0.74177422  1
  O  O213  1  0.48809226  0.63576641  0.24841504  1
  O  O214  1  0.50604483  0.63151087  0.74198261  1
  O  O215  1  0.99284603  0.13403594  0.25103680  1
  O  O216  1  0.99566804  0.13449994  0.74674322  1
  O  O217  1  0.98411563  0.62291910  0.25603976  1
  O  O218  1  0.99377309  0.62885521  0.74723668  1
  O  O219  1  0.35841282  0.24184698  0.01642080  1
  O  O220  1  0.37081649  0.25761683  0.50594631  1
  O  O221  1  0.37261837  0.76203507  -0.00395262  1
  O  O222  1  0.36465094  0.75550792  0.50597892  1
  O  O223  1  0.86635624  0.26028362  -0.00206619  1
  O  O224  1  0.87786655  0.24779841  0.51433436  1
  O  O225  1  0.86844982  0.75265626  0.00976939  1
  O  O226  1  0.86725483  0.75686504  0.49855295  1
  O  O227  1  0.13207397  0.24644044  0.49717723  1
  O  O228  1  0.13691922  0.24625233  1.00569199  1
  O  O229  1  0.12561197  0.73824517  0.50127965  1
  O  O230  1  0.12416142  0.76251986  0.98675652  1
  O  O231  1  0.63230709  0.25560227  0.48639650  1
  O  O232  1  0.64563901  0.25245706  0.98982221  1
  O  O233  1  0.62788648  0.74671866  0.49189739  1
  O  O234  1  0.63750966  0.74215724  1.00456325  1
  O  O235  1  0.48951679  0.23870073  0.12602571  1
  O  O236  1  0.49936426  0.24180949  0.62877432  1
  O  O237  1  0.50458472  0.74463094  0.13967726  1
  O  O238  1  0.50187052  0.74025407  0.62678853  1
  O  O239  1  1.00611499  0.24899640  0.13955451  1
  O  O240  1  0.99327259  0.24615271  0.63373450  1
  O  O241  1  0.98519931  0.75815509  0.13017412  1
  O  O242  1  1.00040005  0.74358012  0.63849294  1
  O  O243  1  0.00423140  0.25776053  0.37011013  1
  O  O244  1  -0.00400599  0.26007618  0.86220784  1
  O  O245  1  -0.00277106  0.76172925  0.36971747  1
  O  O246  1  0.00601171  0.74377917  0.86339937  1
  O  O247  1  0.51233625  0.24398505  0.37561804  1
  O  O248  1  0.52291014  0.23398520  0.86215778  1
  O  O249  1  0.50691069  0.74821272  0.36184170  1
  O  O250  1  0.49908094  0.76034609  0.87299965  1
  O  O251  1  0.24777909  0.13157202  0.49509845  1
  O  O252  1  0.24734957  0.12923882  0.99016422  1
  O  O253  1  0.24234329  0.63128675  0.49711202  1
  O  O254  1  0.25013534  0.62555907  0.99039167  1
  O  O255  1  0.75867940  0.12726415  0.48604617  1
  O  O256  1  0.76300032  0.13854396  0.98942587  1
  O  O257  1  0.73703424  0.63309596  0.49640815  1
  O  O258  1  0.74563341  0.62637876  0.99434754  1
  O  O259  1  0.25202879  0.36794478  0.00788508  1
  O  O260  1  0.25717347  0.37165421  0.50703009  1
  O  O261  1  0.25926931  0.87715502  0.00658830  1
  O  O262  1  0.23404958  0.86443266  0.51476641  1
  O  O263  1  0.76579865  0.36331057  -0.00334475  1
  O  O264  1  0.76035364  0.38186390  0.49234547  1
  O  O265  1  0.75303413  0.86490311  0.00644961  1
  O  O266  1  0.76115286  0.86690823  0.49321971  1
  O  O267  1  0.13841143  0.49363712  0.25872762  1
  O  O268  1  0.13054453  0.49089433  0.74523234  1
  O  O269  1  0.12817722  0.99324940  0.23948241  1
  O  O270  1  0.12866338  0.99666766  0.74125749  1
  O  O271  1  0.64022235  0.50194753  0.25112656  1
  O  O272  1  0.63203498  0.49284767  0.74696120  1
  O  O273  1  0.63139694  0.99750232  0.23902395  1
  O  O274  1  0.63349605  0.99329916  0.73846742  1
  O  O275  1  0.36401377  0.00811647  0.24372042  1
  O  O276  1  0.37031075  0.01070695  0.75104806  1
  O  O277  1  0.36260124  0.50928694  0.25897372  1
  O  O278  1  0.36475632  0.49408977  0.76112469  1
  O  O279  1  0.87096687  0.00304095  0.25708295  1
  O  O280  1  0.87517171  0.01252867  0.74877607  1
  O  O281  1  0.86261613  0.51108132  0.24559773  1
  O  O282  1  0.86816990  0.50644684  0.74830204  1
  O  O283  1  0.11859469  0.37095471  0.37152188  1
  O  O284  1  0.12001769  0.37529490  0.86383454  1
  O  O285  1  0.11682591  0.88391266  0.36278743  1
  O  O286  1  0.13121449  0.87230662  0.86369677  1
  O  O287  1  0.61937129  0.36178666  0.36855025  1
  O  O288  1  0.62699074  0.36594943  0.86790372  1
  O  O289  1  0.62901176  0.86290034  0.37112215  1
  O  O290  1  0.60744623  0.87969458  0.87591549  1
  O  O291  1  0.37828517  0.12837804  0.13409933  1
  O  O292  1  0.38280122  0.13188099  0.63642700  1
  O  O293  1  0.36722687  0.62697116  0.13758367  1
  O  O294  1  0.39526638  0.62424525  0.62245099  1
  O  O295  1  0.87611182  0.11670513  0.14000818  1
  O  O296  1  0.88262425  0.13054900  0.63290289  1
  O  O297  1  0.86818914  0.63372647  0.13833335  1
  O  O298  1  0.88122050  0.62819389  0.63694005  1
  O  O299  1  0.25370103  0.25596191  0.12181030  1
  O  O300  1  0.25865829  0.25795552  0.62127340  1
  O  O301  1  0.24181815  0.76458472  0.12398858  1
  O  O302  1  0.23854530  0.75916353  0.61049404  1
  O  O303  1  0.74872341  0.23934891  0.11288919  1
  O  O304  1  0.76610894  0.24733470  0.62112317  1
  O  O305  1  0.75593346  0.75501128  0.12129000  1
  O  O306  1  0.75293472  0.74452930  0.60627889  1
  O  O307  1  0.24507261  0.24727560  0.37944105  1
  O  O308  1  0.25679640  0.24349481  0.88485360  1
  O  O309  1  0.24904367  0.73624937  0.38664343  1
  O  O310  1  0.24085250  0.74024440  0.87973162  1
  O  O311  1  0.74306422  0.24327874  0.37717401  1
  O  O312  1  0.74554052  0.24285374  0.87365351  1
  O  O313  1  0.73969713  0.74647335  0.38275953  1
  O  O314  1  0.76373374  0.73133972  0.89129106  1
  O  O315  1  -0.00171611  0.11803409  -0.00004402  1
  O  O316  1  0.01002148  0.12284367  0.50459167  1
  O  O317  1  -0.00834955  0.61009985  0.00052343  1
  O  O318  1  0.00419838  0.61954153  0.50102167  1
  O  O319  1  0.49227623  0.11844297  0.01239801  1
  O  O320  1  0.49618063  0.11477903  0.51225056  1
  O  O321  1  0.51474315  0.63336659  -0.00356067  1
  O  O322  1  0.50908362  0.63246146  0.50411383  1
  O  O323  1  0.48839093  0.37304957  0.49686835  1
  O  O324  1  0.48521122  0.33041280  0.98200312  1
  O  O325  1  0.49731527  0.89092251  0.49946033  1
  O  O326  1  0.49553543  0.88025403  0.99276553  1
  O  O327  1  1.00490635  0.38147190  0.48981087  1
  O  O328  1  0.99124538  0.37388030  0.99475952  1
  O  O329  1  0.99699727  0.87566383  0.49141870  1
  O  O330  1  0.98667105  0.88296451  1.00199385  1
  O  O331  1  0.48640448  0.50342511  0.36998552  1
  O  O332  1  0.48757897  0.50160020  0.86979715  1
  O  O333  1  0.50722101  1.00957318  0.38985609  1
  O  O334  1  0.50171957  1.00562799  0.88739820  1
  O  O335  1  1.00058952  0.49295557  0.38761141  1
  O  O336  1  0.99963462  0.48667704  0.87629627  1
  O  O337  1  0.98983607  0.99398842  0.37529371  1
  O  O338  1  0.99667767  1.00218292  0.88493104  1
  O  O339  1  0.00559066  0.00070986  0.11319105  1
  O  O340  1  0.00985790  0.00830415  0.62341135  1
  O  O341  1  0.00179834  0.49563062  0.12014149  1
  O  O342  1  0.00417849  0.50438204  0.61392228  1
  O  O343  1  0.50724671  0.00316585  0.11505216  1
  O  O344  1  0.51165658  0.00567790  0.62013281  1
  O  O345  1  0.49583980  0.50989911  0.12460491  1
  O  O346  1  0.51187989  0.51280019  0.63473387  1
  O  O347  1  0.24716536  0.38377542  0.24540954  1
  O  O348  1  0.24393533  0.38097884  0.74654451  1
  O  O349  1  0.24210514  0.88317017  0.24046818  1
  O  O350  1  0.24116084  0.88601442  0.74439348  1
  O  O351  1  0.75265195  0.39394537  0.25191648  1
  O  O352  1  0.74144821  0.38284546  0.75342500  1
  O  O353  1  0.75079426  0.88053839  0.24207737  1
  O  O354  1  0.77078820  0.89717480  0.74413867  1
  O  O355  1  0.25570523  0.12003027  0.25004319  1
  O  O356  1  0.25823894  0.12420914  0.75493098  1
  O  O357  1  0.25191953  0.62284379  0.25724557  1
  O  O358  1  0.23801734  0.60703797  0.76429976  1
  O  O359  1  0.75812648  0.11822133  0.25929355  1
  O  O360  1  0.75933210  0.11736863  0.75324935  1
  O  O361  1  0.75488330  0.61108839  0.25332168  1
  O  O362  1  0.75727532  0.61833750  0.75658969  1
  O  O363  1  0.36930651  0.13164586  0.36083872  1
  O  O364  1  0.37166787  0.13024265  0.86252719  1
  O  O365  1  0.36542969  0.62077792  0.36967799  1
  O  O366  1  0.36492722  0.61209165  0.87511002  1
  O  O367  1  0.87217576  0.11572041  0.36707868  1
  O  O368  1  0.86760856  0.12709409  0.86129430  1
  O  O369  1  0.86761147  0.62824215  0.36009990  1
  O  O370  1  0.87125031  0.61888648  0.86417734  1
  O  O371  1  0.13815876  0.37033081  0.13447534  1
  O  O372  1  0.13150400  0.38215482  0.63343898  1
  O  O373  1  0.12937080  0.88635468  0.12933033  1
  O  O374  1  0.13003285  0.88381084  0.63582785  1
  O  O375  1  0.62356603  0.37513125  0.12798582  1
  O  O376  1  0.62039302  0.38561766  0.63270149  1
  O  O377  1  0.63618770  0.88058933  0.12630590  1
  O  O378  1  0.62178874  0.88784192  0.62585436  1
  O  O379  1  0.11803427  0.25655183  0.25801034  1
  O  O380  1  0.11542095  0.26070939  0.74184349  1
  O  O381  1  0.12444464  0.76440114  0.24459601  1
  O  O382  1  0.12116036  0.76016199  0.75981726  1
  O  O383  1  0.62459608  0.24977390  0.26433724  1
  O  O384  1  0.62839792  0.25712007  0.75204065  1
  O  O385  1  0.61460257  0.74883803  0.25566526  1
  O  O386  1  0.67474962  0.76813223  0.76043148  1
  O  O387  1  0.37228690  0.24146925  0.23945508  1
  O  O388  1  0.38413551  0.24743287  0.74477869  1
  O  O389  1  0.38488801  0.74414312  0.25449821  1
  O  O390  1  0.33181832  0.74614808  0.73379018  1
  O  O391  1  0.88358368  0.23977454  0.25634568  1
  O  O392  1  0.88202776  0.24535195  0.74017361  1
  O  O393  1  0.87247365  0.73730001  0.24406866  1
  O  O394  1  0.88120429  0.74274206  0.74960668  1
  O  O395  1  0.36812911  0.49238659  0.49104043  1
  O  O396  1  0.37305936  0.49761596  0.98593037  1
  O  O397  1  0.39073439  1.00038442  0.50355117  1
  O  O398  1  0.38511209  0.99061728  0.99862235  1
  O  O399  1  0.87867570  0.50235907  0.50440405  1
  O  O400  1  0.88493540  0.48583525  1.00172145  1
  O  O401  1  0.87749595  0.99305475  0.49125508  1
  O  O402  1  0.87956646  0.98860320  0.99523000  1
  O  O403  1  0.11604378  0.00092373  0.00446740  1
  O  O404  1  0.12841595  0.00450154  0.51271481  1
  O  O405  1  0.10833740  0.49280987  -0.00115746  1
  O  O406  1  0.11803445  0.50675440  0.50553767  1
  O  O407  1  0.61945122  -0.00332125  0.01071425  1
  O  O408  1  0.61856067  -0.00200409  0.51077173  1
  O  O409  1  0.62712937  0.50978821  -0.00560796  1
  O  O410  1  0.62409444  0.51152557  0.51162077  1
  O  O411  1  0.36399929  0.36520645  0.12480369  1
  O  O412  1  0.37389989  0.37330336  0.61962080  1
  O  O413  1  0.36413400  0.87952441  0.11589947  1
  O  O414  1  0.36172228  0.87749230  0.62345476  1
  O  O415  1  0.87976177  0.37091132  0.11455158  1
  O  O416  1  0.88038044  0.36128294  0.62741312  1
  O  O417  1  0.86295175  0.86880976  0.11877722  1
  O  O418  1  0.88412621  0.87470299  0.60876178  1
  O  O419  1  0.12864612  0.13264998  0.38058413  1
  O  O420  1  0.13865100  0.12532635  0.87135569  1
  O  O421  1  0.13261053  0.61815862  0.38526566  1
  O  O422  1  0.13141751  0.63579717  0.87483309  1
  O  O423  1  0.63566784  0.13498110  0.37193949  1
  O  O424  1  0.64320917  0.12997471  0.86754309  1
  O  O425  1  0.62468707  0.63328259  0.38186480  1
  O  O426  1  0.63483833  0.62360534  0.88632563  1
