# generated using pymatgen
data_V85Zn86O256
_symmetry_space_group_name_H-M   'P 1'
_cell_length_a   16.91596188
_cell_length_b   16.91867184
_cell_length_c   16.91664837
_cell_angle_alpha   89.99688566
_cell_angle_beta   89.98509936
_cell_angle_gamma   89.96921874
_symmetry_Int_Tables_number   1
_chemical_formula_structural   V85Zn86O256
_chemical_formula_sum   'V85 Zn86 O256'
_cell_volume   4841.46959484
_cell_formula_units_Z   1
loop_
 _symmetry_equiv_pos_site_id
 _symmetry_equiv_pos_as_xyz
  1  'x, y, z'
loop_
 _atom_site_type_symbol
 _atom_site_label
 _atom_site_symmetry_multiplicity
 _atom_site_fract_x
 _atom_site_fract_y
 _atom_site_fract_z
 _atom_site_occupancy
  V  V0  1  0.49757300  0.63426311  0.62535443  1
  V  V1  1  0.87662796  0.12200795  0.24706550  1
  V  V2  1  0.74960879  0.75087202  -0.00098576  1
  V  V3  1  0.87584544  0.87586171  -0.00028576  1
  V  V4  1  0.36060127  0.37682637  0.50483600  1
  V  V5  1  0.36922931  0.50016965  0.37615032  1
  V  V6  1  0.62426920  0.12113817  0.00825101  1
  V  V7  1  0.13718101  0.87131344  0.24634584  1
  V  V8  1  0.24829754  0.86140812  0.62548498  1
  V  V9  1  0.25497239  0.12494977  0.87469936  1
  V  V10  1  0.37165659  0.87558697  -0.00480951  1
  V  V11  1  0.25074238  0.49631263  0.24125959  1
  V  V12  1  0.87629229  0.87417701  0.49426488  1
  V  V13  1  -0.05691472  0.57612680  0.18386172  1
  V  V14  1  0.75208301  0.61889321  0.36181064  1
  V  V15  1  0.49661617  0.24572809  0.25152829  1
  V  V16  1  0.36871076  0.25396830  0.62886601  1
  V  V17  1  0.62534488  0.88048788  0.75340994  1
  V  V18  1  0.88107246  0.24201229  0.12194982  1
  V  V19  1  0.87411186  0.12297707  0.74403358  1
  V  V20  1  0.24526066  0.64054938  0.38070018  1
  V  V21  1  0.49891557  0.87562392  0.37571993  1
  V  V22  1  0.87414154  0.62481958  0.75131667  1
  V  V23  1  0.75473930  0.37495583  0.62050572  1
  V  V24  1  0.37308951  0.86347967  0.50725857  1
  V  V25  1  0.36992617  0.25601765  0.12581148  1
  V  V26  1  0.50235386  -0.00638269  0.00163120  1
  V  V27  1  0.61412408  0.75384790  0.87350448  1
  V  V28  1  0.75937874  0.25311320  0.49676883  1
  V  V29  1  0.00062193  0.25992122  0.74758682  1
  V  V30  1  0.87881651  -0.00226108  0.37375302  1
  V  V31  1  0.62258961  0.62416640  -0.00132595  1
  V  V32  1  0.13171648  0.37139299  0.24753240  1
  V  V33  1  0.01566746  0.12108242  0.62265022  1
  V  V34  1  0.00474944  0.75573079  0.24438117  1
  V  V35  1  0.63644331  0.00284900  0.62952384  1
  V  V36  1  0.01326046  0.00335123  0.49851904  1
  V  V37  1  0.37318649  0.62618646  0.25068143  1
  V  V38  1  0.62547141  0.62433078  0.49893464  1
  V  V39  1  0.12305726  0.25428726  0.87388555  1
  V  V40  1  -0.00066363  0.62197894  0.62280681  1
  V  V41  1  0.11313181  0.61903796  0.00686389  1
  V  V42  1  0.05497950  0.81578184  0.41458192  1
  V  V43  1  0.74324510  0.88285996  0.12719311  1
  V  V44  1  0.63160559  0.50164764  0.12878065  1
  V  V45  1  0.24858921  0.23353461  0.49864379  1
  V  V46  1  0.62877485  0.37736791  0.25042251  1
  V  V47  1  0.36621424  0.62909664  0.74467848  1
  V  V48  1  0.00137472  0.00250643  0.00729586  1
  V  V49  1  0.49545278  0.12589333  0.63223452  1
  V  V50  1  0.37273765  0.01482010  0.37703606  1
  V  V51  1  0.49776664  0.37859070  0.87760412  1
  V  V52  1  0.13643513  0.49494245  0.61936580  1
  V  V53  1  0.24876511  0.00590648  0.74154127  1
  V  V54  1  0.00487918  0.24114407  0.24726077  1
  V  V55  1  0.49333460  0.24874041  0.75285789  1
  V  V56  1  0.24661154  0.75177044  0.00280178  1
  V  V57  1  0.89081766  0.37436816  -0.00339984  1
  V  V58  1  0.74908947  0.12133832  0.86941156  1
  V  V59  1  0.36374400  0.50056798  0.87044263  1
  V  V60  1  0.74798957  0.49706525  0.75149983  1
  V  V61  1  0.62304220  0.24956245  0.87504987  1
  V  V62  1  0.49835029  0.62500746  0.12556199  1
  V  V63  1  0.49790764  0.49878829  0.50306938  1
  V  V64  1  -0.00123312  0.87755316  0.87275372  1
  V  V65  1  0.37857835  -0.00040797  0.87035057  1
  V  V66  1  0.49896376  0.37550234  0.37733237  1
  V  V67  1  0.62649517  0.12887164  0.50003066  1
  V  V68  1  0.74821033  0.62459966  0.87344514  1
  V  V69  1  0.37093908  0.75556443  0.12543500  1
  V  V70  1  0.88652283  0.49422202  0.87784925  1
  V  V71  1  -0.00256161  0.75070707  0.75123613  1
  V  V72  1  0.74971522  0.25294037  0.00081396  1
  V  V73  1  0.87618197  0.75059269  0.12926213  1
  V  V74  1  -0.00895969  0.49058126  0.49865184  1
  V  V75  1  0.49836038  0.00207291  0.50354449  1
  V  V76  1  0.12300325  0.12557392  0.00230200  1
  V  V77  1  0.49417259  0.11994138  0.13032502  1
  V  V78  1  0.12997963  0.23617155  0.37943651  1
  V  V79  1  0.14075052  0.38199914  0.74997335  1
  V  V80  1  0.87518343  0.00198460  0.87156192  1
  V  V81  1  0.12529071  0.74992511  0.87398009  1
  V  V82  1  0.74994161  0.75018019  0.50012488  1
  V  V83  1  0.13254506  -0.00236488  0.12510316  1
  V  V84  1  0.25672895  0.01358180  0.25163509  1
  Zn  Zn85  1  0.12438853  0.63751685  0.49699824  1
  Zn  Zn86  1  0.24705312  0.25545910  0.00523446  1
  Zn  Zn87  1  0.87471791  0.75250300  0.62516292  1
  Zn  Zn88  1  0.86854153  0.49740111  0.36715266  1
  Zn  Zn89  1  0.75143489  0.37604643  0.12699339  1
  Zn  Zn90  1  0.75377234  0.87871185  0.62712456  1
  Zn  Zn91  1  0.36242641  0.38405507  0.00614702  1
  Zn  Zn92  1  0.62448581  0.75346688  0.37203590  1
  Zn  Zn93  1  -0.00411939  0.36772282  0.37885519  1
  Zn  Zn94  1  0.12021680  0.49471608  0.11984101  1
  Zn  Zn95  1  0.62367619  0.49860378  0.62598748  1
  Zn  Zn96  1  0.62430434  0.37442267  0.74933087  1
  Zn  Zn97  1  0.49701128  0.49968577  -0.00106816  1
  Zn  Zn98  1  0.75014431  0.12497082  0.37374702  1
  Zn  Zn99  1  0.50032558  0.75224926  0.25144683  1
  Zn  Zn100  1  0.24550196  0.62225593  0.87206717  1
  Zn  Zn101  1  0.61609319  0.88208340  0.24404072  1
  Zn  Zn102  1  0.88035862  0.25199677  0.61798975  1
  Zn  Zn103  1  0.74415236  0.00339905  0.24984488  1
  Zn  Zn104  1  0.62524314  0.25094910  0.37542490  1
  Zn  Zn105  1  0.12367772  0.88129646  0.74723478  1
  Zn  Zn106  1  0.49442639  0.75686739  0.74810626  1
  Zn  Zn107  1  0.18666849  0.18231826  0.18667610  1
  Zn  Zn108  1  0.19154403  0.18947374  0.69030285  1
  Zn  Zn109  1  0.18793634  0.68354939  0.18699015  1
  Zn  Zn110  1  0.18315863  0.68467382  0.68738425  1
  Zn  Zn111  1  0.68687843  0.18816341  0.18805868  1
  Zn  Zn112  1  0.68671370  0.19131258  0.68646552  1
  Zn  Zn113  1  0.68244297  0.69712112  0.18772528  1
  Zn  Zn114  1  0.68529332  0.68983337  0.68583858  1
  Zn  Zn115  1  0.31259485  0.30941279  0.31368458  1
  Zn  Zn116  1  0.31197202  0.31285933  0.81704899  1
  Zn  Zn117  1  0.31729222  0.81932846  0.31285650  1
  Zn  Zn118  1  0.31220220  0.81318729  0.81185257  1
  Zn  Zn119  1  0.81291184  0.31177942  0.31420767  1
  Zn  Zn120  1  0.81449397  0.31115054  0.81175997  1
  Zn  Zn121  1  0.81330843  0.80884666  0.31241524  1
  Zn  Zn122  1  0.80647819  0.81423247  0.81056759  1
  Zn  Zn123  1  0.18352063  0.43592499  0.43142561  1
  Zn  Zn124  1  0.18512062  0.43535894  0.93807222  1
  Zn  Zn125  1  0.19707098  0.94061144  0.43870133  1
  Zn  Zn126  1  0.18981223  0.93595896  0.93456855  1
  Zn  Zn127  1  0.68741421  0.43804559  0.43752341  1
  Zn  Zn128  1  0.68728916  0.43708602  0.93815865  1
  Zn  Zn129  1  0.68824990  0.94113748  0.43697519  1
  Zn  Zn130  1  0.68721726  0.93818039  0.93688480  1
  Zn  Zn131  1  0.31236272  0.06543578  0.06418288  1
  Zn  Zn132  1  0.31692019  0.06246578  0.56545958  1
  Zn  Zn133  1  0.30990633  0.56668694  0.05731402  1
  Zn  Zn134  1  0.31181820  0.57053396  0.56033845  1
  Zn  Zn135  1  0.81310052  0.06406755  0.05931764  1
  Zn  Zn136  1  0.81817975  0.06527004  0.55889313  1
  Zn  Zn137  1  0.80927616  0.55827605  0.05593495  1
  Zn  Zn138  1  0.81181592  0.56280823  0.56289809  1
  Zn  Zn139  1  0.44133572  0.43793786  0.18968048  1
  Zn  Zn140  1  0.43492374  0.44052051  0.68919416  1
  Zn  Zn141  1  0.43285807  0.93822370  0.18646968  1
  Zn  Zn142  1  0.43890801  0.93690423  0.68909277  1
  Zn  Zn143  1  0.93103936  0.41343399  0.19950688  1
  Zn  Zn144  1  0.93558297  0.43824062  0.68554944  1
  Zn  Zn145  1  0.94153434  0.93328553  0.18925773  1
  Zn  Zn146  1  0.93720079  0.94120159  0.68339055  1
  Zn  Zn147  1  0.06239030  0.05826091  0.31173884  1
  Zn  Zn148  1  0.06434108  0.06563146  0.81176754  1
  Zn  Zn149  1  0.07093969  0.55896348  0.31811952  1
  Zn  Zn150  1  0.06549058  0.56191140  0.81115729  1
  Zn  Zn151  1  0.56383972  0.05865584  0.31303092  1
  Zn  Zn152  1  0.56157086  0.06209769  0.81401402  1
  Zn  Zn153  1  0.56200103  0.56256898  0.31367838  1
  Zn  Zn154  1  0.55814691  0.56397506  0.81024449  1
  Zn  Zn155  1  0.43908476  0.19116368  0.44251827  1
  Zn  Zn156  1  0.43596664  0.18651086  0.94311342  1
  Zn  Zn157  1  0.43623911  0.68784779  0.43679034  1
  Zn  Zn158  1  0.43397882  0.68444401  0.93579646  1
  Zn  Zn159  1  0.94151020  0.18286857  0.43509254  1
  Zn  Zn160  1  0.94074728  0.18789750  0.93392586  1
  Zn  Zn161  1  0.93136983  0.67778130  0.43805726  1
  Zn  Zn162  1  0.93581603  0.68647058  0.93758033  1
  Zn  Zn163  1  0.06605846  0.31142181  0.06684814  1
  Zn  Zn164  1  0.06703843  0.31223900  0.56345214  1
  Zn  Zn165  1  0.06374939  0.81443269  0.06394263  1
  Zn  Zn166  1  0.06323314  0.81740427  0.57841001  1
  Zn  Zn167  1  0.55850935  0.31246919  0.06331439  1
  Zn  Zn168  1  0.56468713  0.31432283  0.56515660  1
  Zn  Zn169  1  0.55957848  0.81111910  0.05972015  1
  Zn  Zn170  1  0.56513758  0.81568407  0.56218356  1
  O  O171  1  0.12752105  0.11188035  0.11542478  1
  O  O172  1  0.11429157  0.12632974  0.63048849  1
  O  O173  1  0.12621005  0.62119167  0.11073278  1
  O  O174  1  0.11565770  0.61419837  0.62323348  1
  O  O175  1  0.61693047  0.12985279  0.11309401  1
  O  O176  1  0.61821392  0.12172784  0.61899680  1
  O  O177  1  0.61770485  0.62147897  0.12179890  1
  O  O178  1  0.61865245  0.62308204  0.61371613  1
  O  O179  1  0.37993949  0.37987653  0.38419600  1
  O  O180  1  0.38098329  0.38479200  0.87383188  1
  O  O181  1  0.38102370  0.88289652  0.38893312  1
  O  O182  1  0.37184041  0.88330563  0.88605774  1
  O  O183  1  0.88533075  0.38659857  0.35133346  1
  O  O184  1  0.87147362  0.38139289  0.88385226  1
  O  O185  1  0.87261112  0.88038989  0.38477768  1
  O  O186  1  0.87691134  0.88176450  0.87935803  1
  O  O187  1  0.25887255  -0.00204288  0.36283702  1
  O  O188  1  0.25927315  0.00557361  0.86926595  1
  O  O189  1  0.25505866  0.50676320  0.36793329  1
  O  O190  1  0.26008985  0.50171746  0.87372237  1
  O  O191  1  0.76473595  0.00307576  0.37542519  1
  O  O192  1  0.75666986  0.01463540  0.88154133  1
  O  O193  1  0.74707941  0.51389080  0.37520617  1
  O  O194  1  0.75452237  0.50508767  0.86811387  1
  O  O195  1  0.25067572  0.50775303  0.13839967  1
  O  O196  1  0.23473978  0.50522946  0.61900202  1
  O  O197  1  0.24655185  1.00228427  0.13796618  1
  O  O198  1  0.25622232  0.99836677  0.63949704  1
  O  O199  1  0.73610663  0.49766526  0.12225715  1
  O  O200  1  0.74971279  0.49394700  0.63292901  1
  O  O201  1  0.75690455  0.98533313  0.12251112  1
  O  O202  1  0.73911548  1.00411208  0.62040163  1
  O  O203  1  0.01178870  0.35453110  0.25185296  1
  O  O204  1  0.00473423  0.36246523  0.74171058  1
  O  O205  1  0.01417020  0.86656223  0.25235035  1
  O  O206  1  0.00097464  0.87109667  0.75335765  1
  O  O207  1  0.50709899  0.36784382  0.25734952  1
  O  O208  1  0.50136539  0.36904781  0.76082154  1
  O  O209  1  0.49373983  0.87575862  0.26210115  1
  O  O210  1  0.51588701  0.87188130  0.74363044  1
  O  O211  1  0.50543422  0.13212851  0.24128419  1
  O  O212  1  0.50296376  0.13420553  0.74249731  1
  O  O213  1  0.49180253  0.62712385  0.24325481  1
  O  O214  1  0.49225944  0.62936350  0.74041135  1
  O  O215  1  0.99121539  0.13138341  0.25134929  1
  O  O216  1  0.99669677  0.13061894  0.73912321  1
  O  O217  1  1.00582005  0.63037102  0.24751112  1
  O  O218  1  0.99466480  0.62871348  0.74299268  1
  O  O219  1  0.37409972  0.25193564  0.01531211  1
  O  O220  1  0.36733676  0.25767768  0.50729971  1
  O  O221  1  0.36754967  0.75564605  0.00215825  1
  O  O222  1  0.37586656  0.76502180  0.50028917  1
  O  O223  1  0.87015548  0.25109552  0.00333835  1
  O  O224  1  0.86362431  0.24451035  0.49744169  1
  O  O225  1  0.87114736  0.75450848  0.00895464  1
  O  O226  1  0.86948272  0.75654383  0.49963469  1
  O  O227  1  0.13326162  0.25413244  0.48802870  1
  O  O228  1  0.12339775  0.24217755  0.99216204  1
  O  O229  1  0.10617103  0.75848540  0.48720094  1
  O  O230  1  0.12942954  0.74551374  0.99512052  1
  O  O231  1  0.63255441  0.24284752  0.50093682  1
  O  O232  1  0.63061701  0.24335635  0.99538640  1
  O  O233  1  0.63272859  0.74326764  0.49723500  1
  O  O234  1  0.62950942  0.74513440  0.99255930  1
  O  O235  1  0.49350169  0.24169058  0.13185412  1
  O  O236  1  0.49395270  0.24610504  0.63376776  1
  O  O237  1  0.49245028  0.73981062  0.12432616  1
  O  O238  1  0.50419071  0.73770628  0.62275517  1
  O  O239  1  0.99322496  0.24707977  0.13287421  1
  O  O240  1  1.00113785  0.23995491  0.62891972  1
  O  O241  1  0.99222189  0.75402310  0.13386822  1
  O  O242  1  0.99849521  0.74079267  0.63407288  1
  O  O243  1  0.01244285  0.24694480  0.36951982  1
  O  O244  1  0.01552152  0.24104446  0.86243159  1
  O  O245  1  -0.00687711  0.74656770  0.36274556  1
  O  O246  1  0.00393028  0.75645509  0.86982097  1
  O  O247  1  0.50056589  0.25625289  0.36853233  1
  O  O248  1  0.49994510  0.25402191  0.86964270  1
  O  O249  1  0.49918430  0.76043084  0.37457830  1
  O  O250  1  0.51166609  0.74779953  0.87605247  1
  O  O251  1  0.25333620  0.13401846  0.50232628  1
  O  O252  1  0.23924270  0.12812814  0.99351522  1
  O  O253  1  0.24641227  0.62861876  0.48678193  1
  O  O254  1  0.24077167  0.63755165  0.99388098  1
  O  O255  1  0.74275329  0.13352826  0.50031842  1
  O  O256  1  0.74304174  0.13333995  0.99446847  1
  O  O257  1  0.74188851  0.63019933  0.49606493  1
  O  O258  1  0.74180213  0.63087730  0.99446752  1
  O  O259  1  0.24987136  0.36830340  -0.00218880  1
  O  O260  1  0.25880128  0.37036226  0.49587115  1
  O  O261  1  0.25606860  0.86235827  -0.00294649  1
  O  O262  1  0.26166149  0.88054695  0.51411481  1
  O  O263  1  0.75294770  0.36109779  0.00010429  1
  O  O264  1  0.74573600  0.36640505  0.50700677  1
  O  O265  1  0.75651621  0.87146505  0.00768927  1
  O  O266  1  0.75748784  0.86729284  0.50037704  1
  O  O267  1  0.13352905  0.48999165  0.24887831  1
  O  O268  1  0.12094207  0.48885836  0.73905263  1
  O  O269  1  0.13437353  0.99585265  0.24369457  1
  O  O270  1  0.14439278  0.99779027  0.76027312  1
  O  O271  1  0.61618967  0.49086857  0.24064664  1
  O  O272  1  0.63756757  0.50114434  0.75054928  1
  O  O273  1  0.63133337  0.99357403  0.25375994  1
  O  O274  1  0.62204373  0.99519262  0.74251013  1
  O  O275  1  0.36305581  -0.00371217  0.25833492  1
  O  O276  1  0.36516507  -0.00481377  0.76047194  1
  O  O277  1  0.36965329  0.50491877  0.25557747  1
  O  O278  1  0.37944572  0.51511736  0.75776596  1
  O  O279  1  0.87679191  0.00527648  0.25496967  1
  O  O280  1  0.88060790  0.01392043  0.75549574  1
  O  O281  1  0.88381840  0.51442239  0.23967795  1
  O  O282  1  0.86465428  0.50343284  0.75617706  1
  O  O283  1  0.12058036  0.36457259  0.36327715  1
  O  O284  1  0.12532476  0.36970384  0.85928298  1
  O  O285  1  0.12742385  0.87498133  0.36704916  1
  O  O286  1  0.11871806  0.86433984  0.87397974  1
  O  O287  1  0.61628247  0.37563134  0.36819154  1
  O  O288  1  0.61700315  0.36767152  0.87435941  1
  O  O289  1  0.60758860  0.87713162  0.38439294  1
  O  O290  1  0.63065023  0.86629396  0.86770300  1
  O  O291  1  0.38748333  0.13553873  0.12154769  1
  O  O292  1  0.38779513  0.13697704  0.62153420  1
  O  O293  1  0.38121947  0.63349825  0.12764355  1
  O  O294  1  0.38061644  0.62288387  0.63624147  1
  O  O295  1  0.87346869  0.13361204  0.12874732  1
  O  O296  1  0.88283414  0.12842718  0.63226310  1
  O  O297  1  0.87827276  0.63007578  0.12008379  1
  O  O298  1  0.88565461  0.62513297  0.63079176  1
  O  O299  1  0.26725090  0.24292104  0.12996770  1
  O  O300  1  0.26134974  0.24673600  0.61914067  1
  O  O301  1  0.25962237  0.74438032  0.11616145  1
  O  O302  1  0.24743233  0.76228984  0.62852427  1
  O  O303  1  0.75709613  0.24885416  0.11509212  1
  O  O304  1  0.75232386  0.25707064  0.61640402  1
  O  O305  1  0.75775893  0.75713796  0.11839740  1
  O  O306  1  0.75293111  0.74946004  0.61134462  1
  O  O307  1  0.23917410  0.25010491  0.38193767  1
  O  O308  1  0.23975059  0.24102761  0.87230444  1
  O  O309  1  0.25650288  0.73859270  0.36985758  1
  O  O310  1  0.23911867  0.74989272  0.88010522  1
  O  O311  1  0.74557893  0.24707869  0.38231052  1
  O  O312  1  0.74629844  0.24035962  0.88144700  1
  O  O313  1  0.74913267  0.74081758  0.38445063  1
  O  O314  1  0.74352653  0.74334898  0.88150168  1
  O  O315  1  0.01359368  0.11607305  -0.00830036  1
  O  O316  1  -0.00176936  0.11843788  0.51388056  1
  O  O317  1  0.01457893  0.63135495  -0.00072586  1
  O  O318  1  0.00355274  0.61697197  0.50815834  1
  O  O319  1  0.50655181  0.11698970  0.00763586  1
  O  O320  1  0.50817325  0.12441755  0.51126757  1
  O  O321  1  0.50567171  0.62562812  0.00807967  1
  O  O322  1  0.50453785  0.61996070  0.50440897  1
  O  O323  1  0.49338172  0.38008048  0.49613709  1
  O  O324  1  0.49621530  0.37498800  0.98689507  1
  O  O325  1  0.48859197  0.88106862  0.50017315  1
  O  O326  1  0.49270493  0.88682623  1.00260639  1
  O  O327  1  1.00090582  0.38648677  0.50080102  1
  O  O328  1  0.99017969  0.36705963  1.00021854  1
  O  O329  1  0.99758127  0.87624591  0.49232227  1
  O  O330  1  0.99491383  0.88192241  0.99328576  1
  O  O331  1  0.49026952  0.49675095  0.38293155  1
  O  O332  1  0.49266492  0.49282954  0.87523139  1
  O  O333  1  0.49149741  0.99513224  0.38385456  1
  O  O334  1  0.48576409  1.00949733  0.88489231  1
  O  O335  1  1.00208315  0.50216200  0.39179063  1
  O  O336  1  0.98532649  0.50336940  0.86849506  1
  O  O337  1  0.98881070  1.00495585  0.38289545  1
  O  O338  1  0.99731192  0.99554698  0.88215668  1
  O  O339  1  0.00701230  -0.00459433  0.11200489  1
  O  O340  1  0.00071733  0.01241800  0.61676289  1
  O  O341  1  -0.00377918  0.50480597  0.13455904  1
  O  O342  1  0.00451482  0.50441788  0.61602095  1
  O  O343  1  0.49241261  0.00837763  0.11588163  1
  O  O344  1  0.50502197  0.01051251  0.62252229  1
  O  O345  1  0.50485055  0.51239796  0.12287230  1
  O  O346  1  0.50116186  0.50987539  0.61859679  1
  O  O347  1  0.24544538  0.38392821  0.25564887  1
  O  O348  1  0.23928704  0.37440055  0.74796625  1
  O  O349  1  0.24077871  0.88265139  0.25216668  1
  O  O350  1  0.25263058  0.88322119  0.73852786  1
  O  O351  1  0.73252235  0.36549943  0.24593070  1
  O  O352  1  0.74785056  0.38178652  0.74583392  1
  O  O353  1  0.75405868  0.87399951  0.23360599  1
  O  O354  1  0.73472982  0.87147867  0.74308941  1
  O  O355  1  0.25053183  0.11218333  0.25229964  1
  O  O356  1  0.25059577  0.11397870  0.75721991  1
  O  O357  1  0.25502331  0.61851658  0.25921224  1
  O  O358  1  0.26174849  0.62759893  0.75011541  1
  O  O359  1  0.76295557  0.12471344  0.24975739  1
  O  O360  1  0.75940508  0.13305497  0.75808230  1
  O  O361  1  0.74094516  0.63112887  0.26387741  1
  O  O362  1  0.75509257  0.61845836  0.75200568  1
  O  O363  1  0.38119297  0.11430255  0.38052584  1
  O  O364  1  0.36182164  0.11854722  0.88338945  1
  O  O365  1  0.36632650  0.61984388  0.37143357  1
  O  O366  1  0.37303732  0.61757286  0.86432037  1
  O  O367  1  0.87419136  0.11748453  0.36466186  1
  O  O368  1  0.86855596  0.12212636  0.86777102  1
  O  O369  1  0.85732079  0.61825041  0.37468876  1
  O  O370  1  0.86728964  0.61825950  0.87161997  1
  O  O371  1  0.12398108  0.37638639  0.13979740  1
  O  O372  1  0.12421688  0.38676515  0.63402067  1
  O  O373  1  0.12464368  0.88840344  0.13051095  1
  O  O374  1  0.14273410  0.88000812  0.62832354  1
  O  O375  1  0.62099970  0.38461885  0.13092479  1
  O  O376  1  0.63660630  0.37821051  0.62964388  1
  O  O377  1  0.64058348  0.87039984  0.11954055  1
  O  O378  1  0.62826020  0.88758006  0.62852345  1
  O  O379  1  0.12331173  0.24975008  0.25648822  1
  O  O380  1  0.12218798  0.26169290  0.75285763  1
  O  O381  1  0.11915919  0.75891063  0.24128237  1
  O  O382  1  0.11675813  0.75139949  0.75800830  1
  O  O383  1  0.61283405  0.25587820  0.25023487  1
  O  O384  1  0.61243588  0.25032719  0.75717557  1
  O  O385  1  0.61869797  0.76346894  0.25405225  1
  O  O386  1  0.62277716  0.75559674  0.75843173  1
  O  O387  1  0.38737091  0.25404393  0.24211064  1
  O  O388  1  0.38449135  0.25556845  0.74414438  1
  O  O389  1  0.37518979  0.74641841  0.24011148  1
  O  O390  1  0.37819304  0.73495402  0.75767188  1
  O  O391  1  0.88339693  0.24139362  0.24169596  1
  O  O392  1  0.88564067  0.24004156  0.75067282  1
  O  O393  1  0.88318902  0.75338693  0.23674155  1
  O  O394  1  0.87998094  0.74400245  0.75003246  1
  O  O395  1  0.37726066  0.49397268  0.49768075  1
  O  O396  1  0.37731547  0.50259285  0.98864979  1
  O  O397  1  0.38040013  0.99521919  0.49480385  1
  O  O398  1  0.37740577  0.99229640  0.99535394  1
  O  O399  1  0.88875048  0.50229927  0.50004761  1
  O  O400  1  0.87022396  0.48635659  0.99104227  1
  O  O401  1  0.88436741  0.99270375  0.49329920  1
  O  O402  1  0.88501709  0.99845214  0.99371213  1
  O  O403  1  0.12285011  0.00374508  0.00523066  1
  O  O404  1  0.11257711  -0.00478793  0.49216660  1
  O  O405  1  0.12521873  0.51432658  -0.00130981  1
  O  O406  1  0.11687216  0.49840674  0.51047468  1
  O  O407  1  0.61450110  0.00841616  -0.00615052  1
  O  O408  1  0.61910650  0.00876803  0.50911881  1
  O  O409  1  0.62154020  0.50699231  0.00707923  1
  O  O410  1  0.61692285  0.50834477  0.50120483  1
  O  O411  1  0.38513995  0.36058335  0.12410102  1
  O  O412  1  0.38122341  0.36607778  0.61694803  1
  O  O413  1  0.37954761  0.86264785  0.11303302  1
  O  O414  1  0.36714583  0.87878136  0.61526648  1
  O  O415  1  0.87081559  0.36008962  0.11697572  1
  O  O416  1  0.86077420  0.37032245  0.63040378  1
  O  O417  1  0.86964709  0.86787382  0.11836266  1
  O  O418  1  0.87502443  0.87534372  0.61027715  1
  O  O419  1  0.12421381  0.13727586  0.37117185  1
  O  O420  1  0.13562780  0.13089310  0.88017409  1
  O  O421  1  0.14051850  0.62766189  0.37678479  1
  O  O422  1  0.12380247  0.63508886  0.88096612  1
  O  O423  1  0.62424141  0.12561066  0.39046997  1
  O  O424  1  0.63134103  0.12980341  0.88297197  1
  O  O425  1  0.63031131  0.62691761  0.38529714  1
  O  O426  1  0.62889697  0.63189893  0.87819816  1
