# generated using pymatgen
data_V85Zn86O256
_symmetry_space_group_name_H-M   'P 1'
_cell_length_a   16.95363135
_cell_length_b   16.96956877
_cell_length_c   16.97452757
_cell_angle_alpha   89.97138323
_cell_angle_beta   90.07524011
_cell_angle_gamma   90.02195908
_symmetry_Int_Tables_number   1
_chemical_formula_structural   V85Zn86O256
_chemical_formula_sum   'V85 Zn86 O256'
_cell_volume   4883.49533460
_cell_formula_units_Z   1
loop_
 _symmetry_equiv_pos_site_id
 _symmetry_equiv_pos_as_xyz
  1  'x, y, z'
loop_
 _atom_site_type_symbol
 _atom_site_label
 _atom_site_symmetry_multiplicity
 _atom_site_fract_x
 _atom_site_fract_y
 _atom_site_fract_z
 _atom_site_occupancy
  V  V0  1  0.62422977  0.49555399  0.62482189  1
  V  V1  1  0.12840180  0.88112175  0.24467903  1
  V  V2  1  0.50270465  -0.00562601  0.50026870  1
  V  V3  1  0.50114125  0.75045745  0.75063370  1
  V  V4  1  0.37224482  0.62565802  0.25046803  1
  V  V5  1  0.37309300  -0.00289213  0.87206991  1
  V  V6  1  0.13021380  0.00645777  0.63206656  1
  V  V7  1  0.62279168  0.74890602  0.37383215  1
  V  V8  1  0.00754699  0.00015548  0.50147990  1
  V  V9  1  0.74960520  0.50457807  0.24496702  1
  V  V10  1  0.12506886  0.50101239  0.62551486  1
  V  V11  1  0.85577604  0.12252700  0.26014139  1
  V  V12  1  0.49711168  0.12378571  0.12682778  1
  V  V13  1  0.49263796  -0.00242686  0.00108354  1
  V  V14  1  0.75379116  0.25141808  -0.00036847  1
  V  V15  1  0.13330810  0.75152166  0.89046126  1
  V  V16  1  0.62674105  0.00010854  0.62673479  1
  V  V17  1  0.63340836  0.87568103  0.75301021  1
  V  V18  1  0.87294504  0.50381912  0.37547546  1
  V  V19  1  0.25524060  0.00913975  0.24421688  1
  V  V20  1  0.25566522  0.87705616  0.11436404  1
  V  V21  1  0.49669410  0.24661682  0.24900710  1
  V  V22  1  0.49680753  0.62379894  0.62524793  1
  V  V23  1  0.88940245  0.63329712  0.24204750  1
  V  V24  1  0.62828143  0.12249473  -0.00419388  1
  V  V25  1  0.37676110  0.00779940  0.37235743  1
  V  V26  1  0.87156061  0.37593513  0.50174452  1
  V  V27  1  0.75219886  0.24473911  0.49368635  1
  V  V28  1  0.75008283  0.62518563  0.37302232  1
  V  V29  1  0.87910946  0.74374123  0.62958302  1
  V  V30  1  0.12385227  0.37617859  0.24887486  1
  V  V31  1  0.00128798  0.37352546  0.37646287  1
  V  V32  1  0.63280402  0.00019348  0.12731301  1
  V  V33  1  -0.05711527  0.43062887  -0.06564089  1
  V  V34  1  0.37179995  0.12104778  0.74871800  1
  V  V35  1  0.24953912  0.87527114  0.63292740  1
  V  V36  1  0.74924320  0.37575182  0.62610669  1
  V  V37  1  0.49794790  0.87554986  0.87879176  1
  V  V38  1  0.75394624  0.51059602  0.76068427  1
  V  V39  1  -0.00535759  0.24545006  0.75128391  1
  V  V40  1  0.00543567  0.74635654  0.75445208  1
  V  V41  1  0.62504995  0.37533680  0.75247113  1
  V  V42  1  0.49614652  0.50386522  -0.00511322  1
  V  V43  1  0.00192514  0.24062806  0.24990211  1
  V  V44  1  0.37533301  0.24211711  0.12342704  1
  V  V45  1  0.24736190  0.62686805  0.37295081  1
  V  V46  1  0.37202093  0.87303112  0.49950718  1
  V  V47  1  0.24580941  0.11999174  0.87512786  1
  V  V48  1  0.37593211  0.62147753  0.75908336  1
  V  V49  1  0.62309251  0.62376722  0.49996924  1
  V  V50  1  0.12306484  0.62971384  0.50053518  1
  V  V51  1  0.12780583  0.61314265  0.01761848  1
  V  V52  1  0.75468427  0.75154845  0.00729168  1
  V  V53  1  -0.00156064  0.88494208  0.87613105  1
  V  V54  1  0.25519594  0.49824806  0.75565156  1
  V  V55  1  0.25067932  0.37699132  0.12485223  1
  V  V56  1  0.49389071  0.13475760  0.61409519  1
  V  V57  1  0.24792876  0.50385213  0.24492281  1
  V  V58  1  0.87269910  0.23973901  0.62807081  1
  V  V59  1  0.62452905  0.37568987  0.25142575  1
  V  V60  1  -0.00220483  0.50261099  0.50136801  1
  V  V61  1  0.75167580  0.37474483  0.12344077  1
  V  V62  1  0.86549913  0.00455147  0.37433827  1
  V  V63  1  0.24841326  0.24650330  -0.00299433  1
  V  V64  1  0.12181766  0.37439252  0.75124194  1
  V  V65  1  0.37368846  0.38120089  -0.00900639  1
  V  V66  1  0.87782407  0.88672551  0.00188635  1
  V  V67  1  0.25321817  0.37051465  0.60990921  1
  V  V68  1  0.12161345  0.75299359  0.36808174  1
  V  V69  1  0.49361179  0.37719065  0.37706034  1
  V  V70  1  0.63312869  0.11865471  0.48798478  1
  V  V71  1  0.75035716  0.74881659  0.50274148  1
  V  V72  1  0.24176160  0.12757776  0.38698113  1
  V  V73  1  0.87413599  0.24353139  0.12831792  1
  V  V74  1  0.00086545  0.87752496  0.36921491  1
  V  V75  1  0.62957079  0.74566539  0.87873076  1
  V  V76  1  0.62992488  0.87761381  0.25014736  1
  V  V77  1  0.49743525  0.75074500  0.24813866  1
  V  V78  1  0.87691935  0.87368546  0.50047206  1
  V  V79  1  0.75744854  0.01782589  0.75667423  1
  V  V80  1  0.63558535  0.62260884  0.00092558  1
  V  V81  1  0.12133420  0.25144304  0.87377952  1
  V  V82  1  0.49991860  0.24843943  0.75320553  1
  V  V83  1  0.62881415  0.24862992  0.87747540  1
  V  V84  1  0.36859705  0.75506517  0.11357599  1
  Zn  Zn85  1  0.49004833  0.49571008  0.50363973  1
  Zn  Zn86  1  0.75477511  0.87458066  0.62904352  1
  Zn  Zn87  1  0.06683829  0.43793965  0.07247634  1
  Zn  Zn88  1  0.36153671  0.24809445  0.61776171  1
  Zn  Zn89  1  0.89338393  0.76020873  0.12985888  1
  Zn  Zn90  1  0.62896389  0.24434748  0.37083907  1
  Zn  Zn91  1  0.49896259  0.62432201  0.12324461  1
  Zn  Zn92  1  -0.00214299  0.62097173  0.63666303  1
  Zn  Zn93  1  0.49488356  0.37967202  0.87239370  1
  Zn  Zn94  1  0.62087389  0.50100966  0.12419147  1
  Zn  Zn95  1  0.24790078  0.75298103  0.50028360  1
  Zn  Zn96  1  0.49657459  0.87367999  0.37275307  1
  Zn  Zn97  1  0.14099472  0.25356060  0.39455646  1
  Zn  Zn98  1  0.12916370  0.87546058  0.75265125  1
  Zn  Zn99  1  0.90625990  0.58013872  0.81653395  1
  Zn  Zn100  1  0.37288968  0.74948790  0.62526792  1
  Zn  Zn101  1  0.03588539  0.05634320  0.03285188  1
  Zn  Zn102  1  0.00183069  0.12359736  0.62575192  1
  Zn  Zn103  1  0.87522433  0.01777307  0.87313879  1
  Zn  Zn104  1  0.75361142  0.87819335  0.12984181  1
  Zn  Zn105  1  0.36882611  0.49511221  0.38029142  1
  Zn  Zn106  1  0.25367962  0.62761055  0.88340610  1
  Zn  Zn107  1  0.19346091  0.19497954  0.19769738  1
  Zn  Zn108  1  0.18829619  0.18721290  0.68753682  1
  Zn  Zn109  1  0.06971325  0.69278713  0.18465796  1
  Zn  Zn110  1  0.18945428  0.68887079  0.68841634  1
  Zn  Zn111  1  0.68321313  0.18684958  0.18611295  1
  Zn  Zn112  1  0.68016262  0.18953510  0.68058305  1
  Zn  Zn113  1  0.68718905  0.68706931  0.18381339  1
  Zn  Zn114  1  0.68697643  0.68726083  0.68786877  1
  Zn  Zn115  1  0.31453863  0.30845198  0.31055235  1
  Zn  Zn116  1  0.31072105  0.31072944  0.80720728  1
  Zn  Zn117  1  0.30974287  0.81411134  0.31182925  1
  Zn  Zn118  1  0.31563988  0.81078873  0.81196188  1
  Zn  Zn119  1  0.81460663  0.31302087  0.31326942  1
  Zn  Zn120  1  0.81161038  0.31042007  0.81445021  1
  Zn  Zn121  1  0.81159886  0.81181274  0.31466600  1
  Zn  Zn122  1  0.83645922  0.76774705  0.83820682  1
  Zn  Zn123  1  0.18553415  0.44271171  0.43485106  1
  Zn  Zn124  1  0.18908600  0.43688759  0.93421624  1
  Zn  Zn125  1  0.18878745  0.94206112  0.43749537  1
  Zn  Zn126  1  0.18648622  0.93911267  0.93398659  1
  Zn  Zn127  1  0.68342948  0.43620689  0.43671327  1
  Zn  Zn128  1  0.68722368  0.43638996  0.93821793  1
  Zn  Zn129  1  0.68894106  0.93079649  0.43698031  1
  Zn  Zn130  1  0.68947528  0.93585212  0.93731782  1
  Zn  Zn131  1  0.20373562  0.06532852  0.06363106  1
  Zn  Zn132  1  0.31145168  0.05767167  0.56148443  1
  Zn  Zn133  1  0.30984363  0.56622339  0.06305875  1
  Zn  Zn134  1  0.31096948  0.56008927  0.56253987  1
  Zn  Zn135  1  0.81501413  0.06671982  0.06285448  1
  Zn  Zn136  1  0.81267291  0.05875291  0.56432923  1
  Zn  Zn137  1  0.94211134  0.56642745  0.06589709  1
  Zn  Zn138  1  0.80988850  0.56318267  0.56618052  1
  Zn  Zn139  1  0.43507938  0.43811395  0.18342527  1
  Zn  Zn140  1  0.43458511  0.43454279  0.68554588  1
  Zn  Zn141  1  0.43856045  0.93685925  0.18776639  1
  Zn  Zn142  1  0.43958547  0.93747344  0.68814089  1
  Zn  Zn143  1  0.93119551  0.43351175  0.19132124  1
  Zn  Zn144  1  0.93641018  0.43255303  0.69147411  1
  Zn  Zn145  1  0.93707015  0.94235523  0.18717335  1
  Zn  Zn146  1  0.93913825  0.93262559  0.68963090  1
  Zn  Zn147  1  0.06836852  0.06460990  0.20057243  1
  Zn  Zn148  1  0.06332471  0.06432278  0.81070991  1
  Zn  Zn149  1  0.06345351  0.55704192  0.31092147  1
  Zn  Zn150  1  0.07303296  0.56308516  0.82024357  1
  Zn  Zn151  1  0.56097051  0.06040975  0.31036314  1
  Zn  Zn152  1  0.56249824  0.06367535  0.81149375  1
  Zn  Zn153  1  0.56029402  0.56232675  0.31004436  1
  Zn  Zn154  1  0.56453122  0.56179143  0.81492372  1
  Zn  Zn155  1  0.44091887  0.18497173  0.43533995  1
  Zn  Zn156  1  0.43576049  0.18507648  0.93875330  1
  Zn  Zn157  1  0.43583641  0.68523466  0.43725315  1
  Zn  Zn158  1  0.44219485  0.68651933  0.93766075  1
  Zn  Zn159  1  0.96894037  0.19776713  0.45124234  1
  Zn  Zn160  1  0.92427031  0.17638340  0.92522268  1
  Zn  Zn161  1  0.94002308  0.69045134  0.43496845  1
  Zn  Zn162  1  0.94968705  0.69951417  0.94994510  1
  Zn  Zn163  1  0.03611058  0.25814493  0.03678442  1
  Zn  Zn164  1  0.06189076  0.31295379  0.56516961  1
  Zn  Zn165  1  0.06574088  0.83025437  0.06134505  1
  Zn  Zn166  1  0.06330240  0.81381485  0.56471249  1
  Zn  Zn167  1  0.56205525  0.31596021  0.06188619  1
  Zn  Zn168  1  0.54442086  0.29604441  0.55106902  1
  Zn  Zn169  1  0.56079060  0.81314252  0.06403794  1
  Zn  Zn170  1  0.56286594  0.81157908  0.56464514  1
  O  O171  1  0.13540203  0.12715610  0.13137295  1
  O  O172  1  0.12654818  0.11010227  0.62656099  1
  O  O173  1  0.13322413  0.62485491  0.11623713  1
  O  O174  1  0.12388536  0.61777809  0.61737116  1
  O  O175  1  0.61667366  0.11788670  0.11888722  1
  O  O176  1  0.61931981  0.11187709  0.61353492  1
  O  O177  1  0.62076136  0.62264133  0.11565716  1
  O  O178  1  0.61461698  0.61666227  0.62337655  1
  O  O179  1  0.39045304  0.37324644  0.37006108  1
  O  O180  1  0.37310001  0.36954966  0.88719520  1
  O  O181  1  0.37440704  0.88327532  0.38440493  1
  O  O182  1  0.38796298  0.88177653  0.86808757  1
  O  O183  1  0.87827828  0.38593771  0.38059810  1
  O  O184  1  0.87860651  0.37217617  0.88463870  1
  O  O185  1  0.88167640  0.87788615  0.37979590  1
  O  O186  1  0.88615791  0.86949970  0.88377809  1
  O  O187  1  0.25860859  0.00777549  0.36884000  1
  O  O188  1  0.26208585  0.00737301  0.87493069  1
  O  O189  1  0.24919197  0.50653574  0.36340808  1
  O  O190  1  0.24518735  0.50408185  0.85854345  1
  O  O191  1  0.76617852  -0.00558089  0.38286946  1
  O  O192  1  0.74597694  -0.00282934  0.85761891  1
  O  O193  1  0.75234892  0.50502231  0.36584417  1
  O  O194  1  0.74532809  0.49575916  0.85911012  1
  O  O195  1  0.25705844  0.49174501  0.13759566  1
  O  O196  1  0.23916458  0.49263835  0.63043577  1
  O  O197  1  0.26297643  0.99199184  0.13788764  1
  O  O198  1  0.23700899  0.99203616  0.62024733  1
  O  O199  1  0.74813684  0.49032525  0.14001780  1
  O  O200  1  0.74080048  0.49568705  0.63137955  1
  O  O201  1  0.73522362  1.00141518  0.12160544  1
  O  O202  1  0.74188926  0.99566306  0.63501251  1
  O  O203  1  0.00817151  0.37208392  0.25877657  1
  O  O204  1  0.01508836  0.36532556  0.74241845  1
  O  O205  1  0.01521314  0.88710642  0.25934962  1
  O  O206  1  0.00423507  0.86567205  0.75931908  1
  O  O207  1  0.50683439  0.37035629  0.25461751  1
  O  O208  1  0.50514564  0.36751015  0.75135342  1
  O  O209  1  0.50860217  0.86623040  0.25145312  1
  O  O210  1  0.51037499  0.87033269  0.75576743  1
  O  O211  1  0.50542204  0.13627276  0.24235893  1
  O  O212  1  0.48951635  0.13024163  0.74514529  1
  O  O213  1  0.49084881  0.63183407  0.24682175  1
  O  O214  1  0.49500790  0.62715587  0.74435213  1
  O  O215  1  0.99732248  0.13991298  0.25713751  1
  O  O216  1  1.00642214  0.14114714  0.74452603  1
  O  O217  1  0.99325518  0.62920041  0.25554948  1
  O  O218  1  1.00052718  0.63152699  0.75487120  1
  O  O219  1  0.36709675  0.25818692  0.00398888  1
  O  O220  1  0.44117464  0.22897420  0.53899234  1
  O  O221  1  0.38040571  0.74566480  0.01547641  1
  O  O222  1  0.37577793  0.76225649  0.50150888  1
  O  O223  1  0.85827051  0.24687017  0.01300280  1
  O  O224  1  0.87005376  0.25550692  0.50843169  1
  O  O225  1  0.86785154  0.76470482  0.00886957  1
  O  O226  1  0.87268318  0.75842511  0.50374418  1
  O  O227  1  0.07533087  0.24043129  0.48364112  1
  O  O228  1  0.14181423  0.25786940  0.98786816  1
  O  O229  1  0.12362398  0.74402429  0.49085102  1
  O  O230  1  0.12775605  0.75183065  0.99104326  1
  O  O231  1  0.63266640  0.23504279  0.49761357  1
  O  O232  1  0.62816400  0.24367105  0.99516711  1
  O  O233  1  0.62901186  0.74408021  0.49577758  1
  O  O234  1  0.62756521  0.74512924  0.99614241  1
  O  O235  1  0.49535240  0.24733783  0.12983397  1
  O  O236  1  0.53365546  0.24100154  0.65172710  1
  O  O237  1  0.48953907  0.75118829  0.13518400  1
  O  O238  1  0.50128573  0.74007770  0.63276793  1
  O  O239  1  0.98378548  0.26377656  0.14004926  1
  O  O240  1  0.98840672  0.24900847  0.63282349  1
  O  O241  1  1.00610812  0.76228612  0.12741908  1
  O  O242  1  0.99695624  0.74676454  0.63421058  1
  O  O243  1  -0.01854825  0.26878428  0.36094402  1
  O  O244  1  0.01597580  0.24948426  0.86584608  1
  O  O245  1  0.00731024  0.76679265  0.37961354  1
  O  O246  1  0.01619574  0.76091986  0.87069218  1
  O  O247  1  0.50280867  0.25880540  0.36570276  1
  O  O248  1  0.50569216  0.24964449  0.86605374  1
  O  O249  1  0.50365232  0.74959538  0.36372246  1
  O  O250  1  0.50788101  0.75820466  0.87151509  1
  O  O251  1  0.25546597  0.12160885  0.48689783  1
  O  O252  1  0.25931631  0.13700216  0.98726446  1
  O  O253  1  0.23622353  0.62590345  0.49423318  1
  O  O254  1  0.23523927  0.62270397  0.99843028  1
  O  O255  1  0.74407154  0.13192313  0.50642245  1
  O  O256  1  0.73513792  0.13480792  1.00763207  1
  O  O257  1  0.74313327  0.62916551  0.49407452  1
  O  O258  1  0.73623783  0.63685701  1.00127698  1
  O  O259  1  0.25629147  0.37244709  0.00694419  1
  O  O260  1  0.24241755  0.37862070  0.51127728  1
  O  O261  1  0.25181678  0.88456407  0.01637702  1
  O  O262  1  0.25851038  0.87654150  0.50796026  1
  O  O263  1  0.73898003  0.36590618  0.01399463  1
  O  O264  1  0.75174295  0.36954858  0.50682261  1
  O  O265  1  0.75659480  0.86941614  0.00347698  1
  O  O266  1  0.75827108  0.86550495  0.50439660  1
  O  O267  1  0.13405265  0.48567849  0.25488672  1
  O  O268  1  0.13025164  0.49399739  0.74238280  1
  O  O269  1  0.14503011  0.99220132  0.25428395  1
  O  O270  1  0.12326842  0.99579142  0.73554541  1
  O  O271  1  0.63176484  0.49390781  0.24827917  1
  O  O272  1  0.63081922  0.49537364  0.74307726  1
  O  O273  1  0.61729147  0.98976728  0.24005413  1
  O  O274  1  0.63029229  0.99534871  0.74342736  1
  O  O275  1  0.36635710  -0.00740797  0.26035300  1
  O  O276  1  0.38395943  0.00788971  0.76226729  1
  O  O277  1  0.36882952  0.50904272  0.25233710  1
  O  O278  1  0.36677560  0.50764897  0.74389331  1
  O  O279  1  0.87543745  0.01509978  0.25932776  1
  O  O280  1  0.85841939  -0.00554142  0.74628211  1
  O  O281  1  0.86746298  0.51401504  0.25651354  1
  O  O282  1  0.86054435  0.50175029  0.74430980  1
  O  O283  1  0.11679114  0.37236025  0.37088117  1
  O  O284  1  0.13553300  0.36478904  0.86151633  1
  O  O285  1  0.12107842  0.87157795  0.36953952  1
  O  O286  1  0.12114499  0.86673111  0.87321819  1
  O  O287  1  0.61832816  0.37252920  0.36257247  1
  O  O288  1  0.61912520  0.36593550  0.87036758  1
  O  O289  1  0.62112014  0.86666514  0.36854387  1
  O  O290  1  0.61542640  0.87069542  0.86895818  1
  O  O291  1  0.38286050  0.14091996  0.11814294  1
  O  O292  1  0.37594903  0.12057630  0.63401381  1
  O  O293  1  0.37197340  0.63856131  0.13562306  1
  O  O294  1  0.38656838  0.62528982  0.63141873  1
  O  O295  1  0.86590581  0.13562333  0.14144517  1
  O  O296  1  0.87269120  0.13750082  0.62540969  1
  O  O297  1  0.87761136  0.63127386  0.14016926  1
  O  O298  1  0.88000025  0.63921036  0.61593507  1
  O  O299  1  0.25864869  0.25701852  0.11826808  1
  O  O300  1  0.24568868  0.26463903  0.62226547  1
  O  O301  1  0.26506489  0.76719496  0.12698490  1
  O  O302  1  0.25222765  0.75896878  0.61985448  1
  O  O303  1  0.75073432  0.25610634  0.12084988  1
  O  O304  1  0.75334825  0.25688782  0.61708245  1
  O  O305  1  0.74858310  0.75509455  0.11414271  1
  O  O306  1  0.75839896  0.74995203  0.62083211  1
  O  O307  1  0.25540931  0.23498048  0.37243474  1
  O  O308  1  0.24646109  0.24324171  0.87947947  1
  O  O309  1  0.24059344  0.74467491  0.37830147  1
  O  O310  1  0.23639274  0.75045406  0.86855177  1
  O  O311  1  0.74904051  0.25684653  0.39056273  1
  O  O312  1  0.73788348  0.25830012  0.88666559  1
  O  O313  1  0.74315762  0.74341302  0.38230115  1
  O  O314  1  0.73349041  0.76135838  0.88989640  1
  O  O315  1  -0.00197435  0.15669521  0.00285099  1
  O  O316  1  -0.01566675  0.10133792  0.50893546  1
  O  O317  1  0.01981065  0.62900692  0.00481181  1
  O  O318  1  0.01047729  0.62010267  0.49858299  1
  O  O319  1  0.50894306  0.11919900  0.00578992  1
  O  O320  1  0.51302392  0.10506240  0.49634021  1
  O  O321  1  0.50687812  0.61823120  0.00285005  1
  O  O322  1  0.50619201  0.62542447  0.50914122  1
  O  O323  1  0.51243158  0.37877988  0.48011590  1
  O  O324  1  0.49013123  0.38205229  0.99890241  1
  O  O325  1  0.49492772  0.88189869  0.50044693  1
  O  O326  1  0.50680944  0.88416126  0.98952174  1
  O  O327  1  0.99125847  0.38551534  0.49401007  1
  O  O328  1  1.00867218  0.37206337  0.99504852  1
  O  O329  1  0.99291889  0.87993528  0.49649743  1
  O  O330  1  0.99156680  0.87885780  0.98868788  1
  O  O331  1  0.49953840  0.48526515  0.37078630  1
  O  O332  1  0.50314278  0.49777966  0.88893753  1
  O  O333  1  0.49419927  0.99502392  0.38166034  1
  O  O334  1  0.49854603  0.99284280  0.87968802  1
  O  O335  1  0.99445223  0.49081217  0.37913561  1
  O  O336  1  0.98707869  0.49928933  0.86584933  1
  O  O337  1  0.98823292  0.98592048  0.38910191  1
  O  O338  1  0.99527519  0.98972535  0.86471525  1
  O  O339  1  0.00279467  0.00838908  0.12783753  1
  O  O340  1  0.01226772  -0.00406922  0.62114166  1
  O  O341  1  0.00027943  0.49966128  0.13657470  1
  O  O342  1  0.01029486  0.50035238  0.62256877  1
  O  O343  1  0.50414203  0.00356482  0.11687877  1
  O  O344  1  0.50615532  0.00621491  0.61666860  1
  O  O345  1  0.50089000  0.50097560  0.11278157  1
  O  O346  1  0.50793558  0.50498211  0.62531699  1
  O  O347  1  0.24589315  0.37879761  0.24471999  1
  O  O348  1  0.24259715  0.38127583  0.73967160  1
  O  O349  1  0.24551647  0.88475418  0.24627551  1
  O  O350  1  0.25278114  0.87277759  0.73646209  1
  O  O351  1  0.74173743  0.38116307  0.24899735  1
  O  O352  1  0.74269048  0.38108675  0.74286172  1
  O  O353  1  0.73445620  0.86788737  0.24980827  1
  O  O354  1  0.73516150  0.87377975  0.74876272  1
  O  O355  1  0.25571457  0.11157143  0.25848882  1
  O  O356  1  0.26491289  0.13230684  0.75741416  1
  O  O357  1  0.25625088  0.61564467  0.25548921  1
  O  O358  1  0.26053095  0.61632145  0.74653348  1
  O  O359  1  0.75691137  0.13083102  0.25710514  1
  O  O360  1  0.74240626  0.11477877  0.74312295  1
  O  O361  1  0.75410408  0.61887513  0.25407001  1
  O  O362  1  0.74504581  0.61018005  0.74891846  1
  O  O363  1  0.37502083  0.11172705  0.37846747  1
  O  O364  1  0.36971897  0.11803150  0.86820499  1
  O  O365  1  0.36761890  0.62898019  0.36241548  1
  O  O366  1  0.37351611  0.63038919  0.86302234  1
  O  O367  1  0.87824508  0.11896070  0.36452919  1
  O  O368  1  0.86000665  0.12759228  0.85758642  1
  O  O369  1  0.87051197  0.62231789  0.36794000  1
  O  O370  1  0.87109293  0.66378660  0.87797330  1
  O  O371  1  0.14137733  0.37142037  0.13399235  1
  O  O372  1  0.13192062  0.38227899  0.62862241  1
  O  O373  1  0.14478553  0.87465551  0.13481189  1
  O  O374  1  0.13458914  0.88159588  0.62693831  1
  O  O375  1  0.63191312  0.37537453  0.13711848  1
  O  O376  1  0.62762781  0.38536567  0.62923021  1
  O  O377  1  0.62449939  0.88376990  0.13247168  1
  O  O378  1  0.62337583  0.88609504  0.63260832  1
  O  O379  1  0.11783642  0.26229228  0.25812248  1
  O  O380  1  0.12165567  0.25767047  0.75329792  1
  O  O381  1  0.12657361  0.76102625  0.26285000  1
  O  O382  1  0.11640744  0.75057581  0.75439685  1
  O  O383  1  0.61576777  0.25765977  0.25059783  1
  O  O384  1  0.62657760  0.25418789  0.76406581  1
  O  O385  1  0.61547757  0.75349124  0.25249403  1
  O  O386  1  0.62131292  0.75537301  0.75874893  1
  O  O387  1  0.38840904  0.25670205  0.23804997  1
  O  O388  1  0.38560605  0.24392387  0.74259038  1
  O  O389  1  0.38084910  0.74557614  0.24559759  1
  O  O390  1  0.38396833  0.74099803  0.74631566  1
  O  O391  1  0.87685264  0.23913110  0.24780902  1
  O  O392  1  0.88434120  0.26308906  0.73989936  1
  O  O393  1  0.87036524  0.73551013  0.25085144  1
  O  O394  1  0.89136166  0.75656348  0.73823968  1
  O  O395  1  0.37812483  0.50782474  0.49224544  1
  O  O396  1  0.38094104  0.49277028  1.00446035  1
  O  O397  1  0.38478411  0.99073166  0.49492154  1
  O  O398  1  0.39177522  1.00431896  0.98460093  1
  O  O399  1  0.87820836  0.49815610  0.49600908  1
  O  O400  1  0.88986269  0.48987517  0.99624349  1
  O  O401  1  0.87766244  0.98554872  0.49964652  1
  O  O402  1  0.86561393  0.99156248  0.99261408  1
  O  O403  1  0.13141846  0.01551355  -0.00849829  1
  O  O404  1  0.11511272  -0.00765494  0.51142522  1
  O  O405  1  0.12729230  0.50787727  0.00069448  1
  O  O406  1  0.11860886  0.50810352  0.50654118  1
  O  O407  1  0.61872705  0.00691799  0.00421764  1
  O  O408  1  0.62301391  -0.00134137  0.50628368  1
  O  O409  1  0.61999784  0.50793329  0.00138522  1
  O  O410  1  0.62334264  0.50652149  0.50961440  1
  O  O411  1  0.36601475  0.36736275  0.11642407  1
  O  O412  1  0.35764954  0.37298688  0.62378094  1
  O  O413  1  0.36923704  0.86536319  0.12850414  1
  O  O414  1  0.36887421  0.87700628  0.61732105  1
  O  O415  1  0.85709216  0.36087298  0.13970734  1
  O  O416  1  0.86718891  0.37031557  0.61798667  1
  O  O417  1  0.87094203  0.87840146  0.11905228  1
  O  O418  1  0.87617775  0.86374567  0.61600475  1
  O  O419  1  0.14404840  0.12679274  0.37539683  1
  O  O420  1  0.14001805  0.13433464  0.86267171  1
  O  O421  1  0.12596574  0.63348692  0.37936573  1
  O  O422  1  0.12905430  0.63914109  0.88473383  1
  O  O423  1  0.62528030  0.12208690  0.38446611  1
  O  O424  1  0.61856355  0.13488325  0.88466692  1
  O  O425  1  0.62881287  0.62982602  0.37864134  1
  O  O426  1  0.61791192  0.63678596  0.88461080  1
