# generated using pymatgen
data_V85Zn86O256
_symmetry_space_group_name_H-M   'P 1'
_cell_length_a   16.93969604
_cell_length_b   16.93995783
_cell_length_c   16.93387641
_cell_angle_alpha   89.98716422
_cell_angle_beta   89.99257294
_cell_angle_gamma   89.97534603
_symmetry_Int_Tables_number   1
_chemical_formula_structural   V85Zn86O256
_chemical_formula_sum   'V85 Zn86 O256'
_cell_volume   4859.30623474
_cell_formula_units_Z   1
loop_
 _symmetry_equiv_pos_site_id
 _symmetry_equiv_pos_as_xyz
  1  'x, y, z'
loop_
 _atom_site_type_symbol
 _atom_site_label
 _atom_site_symmetry_multiplicity
 _atom_site_fract_x
 _atom_site_fract_y
 _atom_site_fract_z
 _atom_site_occupancy
  V  V0  1  0.76161624  0.49624577  0.25192502  1
  V  V1  1  0.75451200  0.00075165  0.76767685  1
  V  V2  1  0.49964907  0.00100277  0.00176868  1
  V  V3  1  0.13306183  0.62069721  0.49677821  1
  V  V4  1  0.49728910  0.38146292  0.37266076  1
  V  V5  1  0.87534363  0.87864475  0.49622756  1
  V  V6  1  0.00096984  0.87211456  0.37401841  1
  V  V7  1  0.13138394  0.74662931  0.37238926  1
  V  V8  1  0.73910030  0.37911573  0.62653768  1
  V  V9  1  0.63082335  0.87450272  0.24490685  1
  V  V10  1  0.75367770  0.24962317  0.49773681  1
  V  V11  1  0.37052730  0.87854843  0.50780371  1
  V  V12  1  -0.00614308  0.88492225  0.88162368  1
  V  V13  1  0.37388479  0.24193882  0.13189770  1
  V  V14  1  0.49988465  0.49738236  0.00009106  1
  V  V15  1  0.62573239  0.25462023  0.85614649  1
  V  V16  1  0.75958158  0.61911456  0.37660379  1
  V  V17  1  0.24685365  0.75449053  -0.00067118  1
  V  V18  1  0.37397886  -0.00173930  0.88094150  1
  V  V19  1  0.50195877  0.50336266  0.50451076  1
  V  V20  1  0.12521017  0.37851456  0.24650302  1
  V  V21  1  0.42993733  0.29709498  0.68100702  1
  V  V22  1  0.87173733  0.36961394  -0.00318059  1
  V  V23  1  -0.05195052  0.80034056  0.19536214  1
  V  V24  1  0.62749522  0.62057731  0.50667448  1
  V  V25  1  0.62345430  0.12476227  0.50559488  1
  V  V26  1  0.37346379  0.38142868  0.49557111  1
  V  V27  1  0.50039574  0.00334318  0.50823371  1
  V  V28  1  -0.00328359  0.38159351  0.37296869  1
  V  V29  1  0.49722519  0.87596654  0.37741788  1
  V  V30  1  0.12139795  0.25010714  0.87593713  1
  V  V31  1  0.11946412  0.37536263  0.74572697  1
  V  V32  1  0.37645018  0.75324931  0.11918683  1
  V  V33  1  0.63402809  0.13873420  -0.00438626  1
  V  V34  1  0.00803235  0.62314270  0.62489951  1
  V  V35  1  0.00320715  0.50026722  0.50311304  1
  V  V36  1  -0.00950488  0.62306509  0.12435767  1
  V  V37  1  0.49844106  0.74738652  0.25026193  1
  V  V38  1  0.38730342  0.12105584  0.74052025  1
  V  V39  1  0.24909237  -0.00379655  0.74058444  1
  V  V40  1  0.88351063  0.24457121  0.12275040  1
  V  V41  1  0.87778149  0.75055782  0.62523088  1
  V  V42  1  0.24413312  0.50137685  0.74637178  1
  V  V43  1  0.37395546  0.36991762  0.00124996  1
  V  V44  1  0.37694300  0.63355858  0.74940716  1
  V  V45  1  0.62626508  0.49705092  0.12553055  1
  V  V46  1  0.75379956  0.11350710  0.37353451  1
  V  V47  1  0.61976354  0.87425160  0.74967941  1
  V  V48  1  0.87432893  0.62294926  0.74861284  1
  V  V49  1  0.49472893  0.87011219  0.87795336  1
  V  V50  1  0.37221741  0.62197674  0.26391334  1
  V  V51  1  0.62553407  0.74700295  0.37742341  1
  V  V52  1  0.74915544  0.36431182  0.12140532  1
  V  V53  1  0.24042588  0.62316532  0.88252578  1
  V  V54  1  0.62661130  0.24849460  0.37091284  1
  V  V55  1  0.63214841  -0.00072334  0.12350995  1
  V  V56  1  0.49847482  0.62253739  0.12682958  1
  V  V57  1  0.87412837  0.24981971  0.62540607  1
  V  V58  1  0.12510621  0.12479190  0.49945134  1
  V  V59  1  0.74989257  0.87959915  0.62537106  1
  V  V60  1  0.62284440  0.74964321  0.87246858  1
  V  V61  1  0.24449132  0.37340968  0.62627634  1
  V  V62  1  -0.00277173  0.00148965  0.49376008  1
  V  V63  1  0.24962903  0.75473940  0.50725328  1
  V  V64  1  0.62382264  0.37375270  0.25004072  1
  V  V65  1  0.88244746  0.11958820  0.25074914  1
  V  V66  1  0.25150965  0.50518262  0.26370625  1
  V  V67  1  0.62531676  0.62479939  0.00097719  1
  V  V68  1  0.13367357  0.87024837  0.24609955  1
  V  V69  1  0.26017632  0.00636623  0.25123319  1
  V  V70  1  0.87417183  0.38113620  0.49705608  1
  V  V71  1  0.12290818  0.00328639  0.12183694  1
  V  V72  1  0.24968059  0.12295378  0.87463835  1
  V  V73  1  0.87287642  0.49882772  0.87482713  1
  V  V74  1  -0.00119200  0.12257510  0.62689554  1
  V  V75  1  0.74957398  0.62558908  0.87577474  1
  V  V76  1  0.75583663  0.75605603  0.01383080  1
  V  V77  1  0.73449387  0.49693088  0.74684869  1
  V  V78  1  0.87166437  0.12182089  0.76192786  1
  V  V79  1  0.12498762  0.87130313  0.74745493  1
  V  V80  1  0.37425258  0.49885116  0.87721281  1
  V  V81  1  0.11153730  0.12095719  0.00130860  1
  V  V82  1  0.12944567  0.50916020  0.11626361  1
  V  V83  1  0.25503810  0.24868716  0.50446590  1
  V  V84  1  0.12513976  0.24936584  0.37412425  1
  Zn  Zn85  1  0.24787252  0.24745604  0.00230339  1
  Zn  Zn86  1  0.49910987  0.12162822  0.13308435  1
  Zn  Zn87  1  0.25911549  0.87962327  0.11842088  1
  Zn  Zn88  1  0.75687512  -0.00684062  0.24909028  1
  Zn  Zn89  1  0.11747864  0.74608470  0.87907250  1
  Zn  Zn90  1  0.12834273  -0.00612341  0.62081900  1
  Zn  Zn91  1  0.48337676  0.23611247  0.26426233  1
  Zn  Zn92  1  0.25722358  0.13031414  0.37041673  1
  Zn  Zn93  1  -0.00224611  0.37624877  0.87374708  1
  Zn  Zn94  1  0.88163011  0.62495961  0.25496365  1
  Zn  Zn95  1  0.00332080  0.50551022  -0.00559008  1
  Zn  Zn96  1  0.24982865  0.37588373  0.12430125  1
  Zn  Zn97  1  0.00435071  0.24624995  0.24594366  1
  Zn  Zn98  1  0.37846945  0.75651611  0.63000135  1
  Zn  Zn99  1  0.00075367  0.75025447  0.75436332  1
  Zn  Zn100  1  0.49869081  0.36696143  0.86163815  1
  Zn  Zn101  1  -0.00424221  0.24978786  0.75086145  1
  Zn  Zn102  1  0.50922667  0.63183344  0.63316764  1
  Zn  Zn103  1  0.38625500  0.01799926  0.36882187  1
  Zn  Zn104  1  0.86990521  0.88325168  -0.00626983  1
  Zn  Zn105  1  0.75063212  0.74874223  0.50125788  1
  Zn  Zn106  1  0.62367968  0.00702100  0.63114721  1
  Zn  Zn107  1  0.18950903  0.18771829  0.18489987  1
  Zn  Zn108  1  0.18787974  0.18639593  0.68863045  1
  Zn  Zn109  1  0.18977928  0.68536041  0.18547037  1
  Zn  Zn110  1  0.18896415  0.68961290  0.68742933  1
  Zn  Zn111  1  0.68648062  0.18213022  0.18741993  1
  Zn  Zn112  1  0.69218898  0.18720424  0.68894061  1
  Zn  Zn113  1  0.68815573  0.68244384  0.19176958  1
  Zn  Zn114  1  0.69085116  0.69149131  0.68922740  1
  Zn  Zn115  1  0.30862033  0.31701394  0.31404204  1
  Zn  Zn116  1  0.30653631  0.31237621  0.81795254  1
  Zn  Zn117  1  0.31311181  0.81164509  0.31509933  1
  Zn  Zn118  1  0.30770545  0.81454403  0.81677292  1
  Zn  Zn119  1  0.81446727  0.30800173  0.30968248  1
  Zn  Zn120  1  0.80416087  0.30938708  0.81206134  1
  Zn  Zn121  1  0.80914074  0.81205170  0.31935496  1
  Zn  Zn122  1  0.81277881  0.81195442  0.81465002  1
  Zn  Zn123  1  0.18393507  0.43717854  0.43820434  1
  Zn  Zn124  1  0.18868849  0.43480417  0.93606711  1
  Zn  Zn125  1  0.18855149  0.93850874  0.43310726  1
  Zn  Zn126  1  0.18391636  0.93444425  0.93392014  1
  Zn  Zn127  1  0.68695690  0.43882737  0.43739472  1
  Zn  Zn128  1  0.68563339  0.42862897  0.93337966  1
  Zn  Zn129  1  0.68439201  0.93631822  0.43821425  1
  Zn  Zn130  1  0.68326035  0.93475994  0.94238538  1
  Zn  Zn131  1  0.30794519  0.06271372  0.06007958  1
  Zn  Zn132  1  0.31547066  0.06351535  0.55920021  1
  Zn  Zn133  1  0.31260762  0.56582248  0.06585616  1
  Zn  Zn134  1  0.31029414  0.56151394  0.56333940  1
  Zn  Zn135  1  0.80691817  0.06790364  0.05496664  1
  Zn  Zn136  1  0.81361321  0.06153736  0.56416737  1
  Zn  Zn137  1  0.81099619  0.56036441  0.06177492  1
  Zn  Zn138  1  0.81447920  0.56011412  0.56292626  1
  Zn  Zn139  1  0.43400692  0.43503951  0.18869190  1
  Zn  Zn140  1  0.43440624  0.46126752  0.68325544  1
  Zn  Zn141  1  0.44223765  0.93521698  0.18696991  1
  Zn  Zn142  1  0.43880290  0.93894616  0.68929859  1
  Zn  Zn143  1  0.94022544  0.43622743  0.18176605  1
  Zn  Zn144  1  0.93277495  0.43820181  0.68586469  1
  Zn  Zn145  1  0.91601445  0.97620310  0.13527705  1
  Zn  Zn146  1  0.94001010  0.93827308  0.69051891  1
  Zn  Zn147  1  0.06601775  0.05752045  0.30930007  1
  Zn  Zn148  1  0.06229433  0.06006888  0.81153478  1
  Zn  Zn149  1  0.06233026  0.56360311  0.31061035  1
  Zn  Zn150  1  0.06045155  0.56045989  0.81063319  1
  Zn  Zn151  1  0.56439322  0.06131462  0.31335668  1
  Zn  Zn152  1  0.56596873  0.06324886  0.81786967  1
  Zn  Zn153  1  0.56600786  0.56084755  0.31494771  1
  Zn  Zn154  1  0.55883423  0.56171837  0.81597165  1
  Zn  Zn155  1  0.43795647  0.19080403  0.44321375  1
  Zn  Zn156  1  0.44234420  0.18643652  0.93603072  1
  Zn  Zn157  1  0.43773167  0.69022058  0.44303725  1
  Zn  Zn158  1  0.43460295  0.68632509  0.93725827  1
  Zn  Zn159  1  0.93769372  0.18991314  0.43298350  1
  Zn  Zn160  1  0.93602356  0.18880388  0.93886962  1
  Zn  Zn161  1  0.94144907  0.69038905  0.43815611  1
  Zn  Zn162  1  0.93814204  0.69070919  0.94098005  1
  Zn  Zn163  1  0.05962276  0.31629388  0.05894568  1
  Zn  Zn164  1  0.06231150  0.31055187  0.56297870  1
  Zn  Zn165  1  0.06933004  0.81566036  0.05679450  1
  Zn  Zn166  1  0.06369983  0.81145096  0.56345440  1
  Zn  Zn167  1  0.55446963  0.31086164  0.06380063  1
  Zn  Zn168  1  0.56484400  0.31267878  0.55567738  1
  Zn  Zn169  1  0.56329662  0.81320874  0.06016735  1
  Zn  Zn170  1  0.55938301  0.80953149  0.56512814  1
  O  O171  1  0.13461119  0.11381549  0.11465376  1
  O  O172  1  0.11530654  0.12430699  0.61878638  1
  O  O173  1  0.11802487  0.61212481  0.12869915  1
  O  O174  1  0.11350016  0.62994845  0.61729753  1
  O  O175  1  0.62244713  0.11834509  0.11431178  1
  O  O176  1  0.63529839  0.12540355  0.60934022  1
  O  O177  1  0.61849318  0.61727713  0.12133725  1
  O  O178  1  0.62972559  0.63406741  0.61035051  1
  O  O179  1  0.38337736  0.37256672  0.38416073  1
  O  O180  1  0.37572429  0.38151584  0.88055880  1
  O  O181  1  0.38873056  0.87461601  0.38161079  1
  O  O182  1  0.38615614  0.88350771  0.86732713  1
  O  O183  1  0.88569667  0.36689393  0.38292309  1
  O  O184  1  0.87182161  0.38014187  0.87976909  1
  O  O185  1  0.88331965  0.86847074  0.38818835  1
  O  O186  1  0.88804212  0.87317072  0.87418816  1
  O  O187  1  0.25264289  0.00164800  0.36033324  1
  O  O188  1  0.25703712  0.00426769  0.86895305  1
  O  O189  1  0.24464752  0.49816580  0.36323924  1
  O  O190  1  0.25698208  0.50497909  0.87037112  1
  O  O191  1  0.74756044  0.01042003  0.37395373  1
  O  O192  1  0.74936973  -0.00635247  0.86594206  1
  O  O193  1  0.74528509  0.50750071  0.36487577  1
  O  O194  1  0.75352073  0.50472705  0.86798841  1
  O  O195  1  0.23878892  0.50049368  0.13036626  1
  O  O196  1  0.25470681  0.48610768  0.63475703  1
  O  O197  1  0.24768156  0.99730255  0.13460800  1
  O  O198  1  0.24954209  1.00468742  0.63714912  1
  O  O199  1  0.74504016  0.49038760  0.13263236  1
  O  O200  1  0.75616768  0.49167293  0.63459481  1
  O  O201  1  0.73490248  1.00176621  0.12821984  1
  O  O202  1  0.74835522  0.98761996  0.62722035  1
  O  O203  1  0.00965698  0.37701979  0.25673063  1
  O  O204  1  0.00717546  0.37363245  0.74895901  1
  O  O205  1  0.00810558  0.86486077  0.25545542  1
  O  O206  1  0.00644966  0.87305540  0.75797510  1
  O  O207  1  0.50509018  0.37278828  0.25857020  1
  O  O208  1  0.48122596  0.36641638  0.73690095  1
  O  O209  1  0.50872277  0.86742007  0.25905491  1
  O  O210  1  0.51344599  0.88273738  0.75880547  1
  O  O211  1  0.50580230  0.12727981  0.24709170  1
  O  O212  1  0.48619220  0.11567871  0.75117478  1
  O  O213  1  0.49632889  0.62829293  0.24652713  1
  O  O214  1  0.48124498  0.61821788  0.75235888  1
  O  O215  1  0.98689224  0.12660979  0.25885230  1
  O  O216  1  0.99252070  0.12392652  0.74141203  1
  O  O217  1  0.99818054  0.62073172  0.23527999  1
  O  O218  1  0.99368109  0.62397327  0.73986695  1
  O  O219  1  0.37396679  0.25568434  0.00676371  1
  O  O220  1  0.36122465  0.26324397  0.50026292  1
  O  O221  1  0.36527903  0.74410558  0.00858095  1
  O  O222  1  0.36548533  0.76008342  0.49813960  1
  O  O223  1  0.87514933  0.25709089  0.00806917  1
  O  O224  1  0.87246112  0.25873422  0.50412971  1
  O  O225  1  0.85825376  0.75251879  -0.00011678  1
  O  O226  1  0.87523374  0.75766603  0.51094488  1
  O  O227  1  0.13387609  0.24767532  0.49348407  1
  O  O228  1  0.12521341  0.24388405  0.99284001  1
  O  O229  1  0.13177824  0.74474112  0.49477197  1
  O  O230  1  0.14199820  0.74659303  0.99927911  1
  O  O231  1  0.63171488  0.24387924  0.48864968  1
  O  O232  1  0.62123861  0.23936237  1.00510048  1
  O  O233  1  0.62705017  0.74501604  0.48900397  1
  O  O234  1  0.63175724  0.74528703  0.99062664  1
  O  O235  1  0.48291995  0.24885617  0.12977364  1
  O  O236  1  0.49252653  0.24945758  0.62062656  1
  O  O237  1  0.49581342  0.74314690  0.12852299  1
  O  O238  1  0.49112051  0.74260390  0.62044070  1
  O  O239  1  0.98816948  0.25565042  0.12754968  1
  O  O240  1  0.99377039  0.23802034  0.62438988  1
  O  O241  1  1.00506556  0.74252255  0.12834617  1
  O  O242  1  0.99290965  0.74178522  0.62664100  1
  O  O243  1  0.01211283  0.26137931  0.37534224  1
  O  O244  1  0.01061938  0.25223789  0.87186352  1
  O  O245  1  0.01459089  0.76282614  0.38408940  1
  O  O246  1  0.00089147  0.75553628  0.87207637  1
  O  O247  1  0.50916515  0.26257973  0.37913060  1
  O  O248  1  0.51400430  0.25289341  0.87910252  1
  O  O249  1  0.50780490  0.75558613  0.37200659  1
  O  O250  1  0.50731888  0.75902561  0.88213267  1
  O  O251  1  0.24340643  0.13466789  0.50201724  1
  O  O252  1  0.24359689  0.12504298  0.98484820  1
  O  O253  1  0.23832066  0.62998792  0.50388018  1
  O  O254  1  0.25557841  0.63289083  0.99094903  1
  O  O255  1  0.74935077  0.12972996  0.49183705  1
  O  O256  1  0.73285970  0.12772227  0.99680404  1
  O  O257  1  0.74535070  0.62307085  0.49361712  1
  O  O258  1  0.74313334  0.63110366  0.99554769  1
  O  O259  1  0.26215913  0.37251696  -0.00021713  1
  O  O260  1  0.25494869  0.37361879  0.50768847  1
  O  O261  1  0.25121474  0.85967311  -0.00267865  1
  O  O262  1  0.25899970  0.86979799  0.49489913  1
  O  O263  1  0.76069851  0.38077476  0.00937335  1
  O  O264  1  0.75896818  0.37181757  0.50203767  1
  O  O265  1  0.74896628  0.86036233  -0.00097789  1
  O  O266  1  0.75854302  0.87514319  0.50580187  1
  O  O267  1  0.13100424  0.49534343  0.24134570  1
  O  O268  1  0.13526949  0.48878283  0.75540621  1
  O  O269  1  0.13827081  0.98996174  0.24409411  1
  O  O270  1  0.13409325  0.99357026  0.74788657  1
  O  O271  1  0.63232237  0.49240015  0.24382285  1
  O  O272  1  0.63498073  0.50516663  0.75263076  1
  O  O273  1  0.62644819  0.98950087  0.24261458  1
  O  O274  1  0.63646846  0.99470904  0.75061867  1
  O  O275  1  0.36398385  -0.00751358  0.25086871  1
  O  O276  1  0.36909096  0.00679982  0.75779594  1
  O  O277  1  0.36348712  0.50857875  0.24409508  1
  O  O278  1  0.36240857  0.50691329  0.75976331  1
  O  O279  1  0.87409888  0.01538232  0.23895426  1
  O  O280  1  0.86130498  0.00492226  0.74577517  1
  O  O281  1  0.86421279  0.49590857  0.24772858  1
  O  O282  1  0.86858589  0.50422414  0.75993068  1
  O  O283  1  0.11799933  0.36954737  0.36754930  1
  O  O284  1  0.12376888  0.36667131  0.86746131  1
  O  O285  1  0.12051243  0.86952810  0.36482745  1
  O  O286  1  0.11490671  0.87159439  0.86585338  1
  O  O287  1  0.61993500  0.36689853  0.37173087  1
  O  O288  1  0.61599544  0.36268144  0.87293560  1
  O  O289  1  0.61628245  0.86617823  0.37202774  1
  O  O290  1  0.61724428  0.86824505  0.86953323  1
  O  O291  1  0.37302695  0.13933812  0.11930130  1
  O  O292  1  0.37131641  0.12280896  0.64155430  1
  O  O293  1  0.38253021  0.63356605  0.13275598  1
  O  O294  1  0.37026378  0.62200720  0.64326561  1
  O  O295  1  0.86546343  0.13607813  0.13749425  1
  O  O296  1  0.88126606  0.13034649  0.63033664  1
  O  O297  1  0.88609349  0.61818637  0.12972318  1
  O  O298  1  0.88341831  0.63276190  0.62575538  1
  O  O299  1  0.25907175  0.25413669  0.12156170  1
  O  O300  1  0.24537197  0.26177136  0.61847992  1
  O  O301  1  0.25756470  0.74906641  0.11352992  1
  O  O302  1  0.25463963  0.74805371  0.61160703  1
  O  O303  1  0.75705601  0.26155186  0.13272807  1
  O  O304  1  0.75645548  0.25682044  0.61749686  1
  O  O305  1  0.74189028  0.74446961  0.11193320  1
  O  O306  1  0.75813467  0.76280549  0.62357784  1
  O  O307  1  0.23852644  0.25461622  0.38369721  1
  O  O308  1  0.23782976  0.24113522  0.87563462  1
  O  O309  1  0.23797482  0.75425929  0.38608264  1
  O  O310  1  0.25064062  0.74087693  0.88627624  1
  O  O311  1  0.74380428  0.24378169  0.37993119  1
  O  O312  1  0.72736883  0.25417115  0.87421398  1
  O  O313  1  0.74131130  0.73994402  0.37882609  1
  O  O314  1  0.74204096  0.74291105  0.88070722  1
  O  O315  1  0.01241565  0.12451026  -0.00412038  1
  O  O316  1  0.00294160  0.11847944  0.50214536  1
  O  O317  1  -0.00352663  0.62373700  0.01652157  1
  O  O318  1  0.00729736  0.61797101  0.50457179  1
  O  O319  1  0.50576059  0.11190350  0.00301069  1
  O  O320  1  0.51183322  0.11702831  0.49523475  1
  O  O321  1  0.50536839  0.61739963  0.00434917  1
  O  O322  1  0.50986735  0.61712021  0.49455182  1
  O  O323  1  0.49227401  0.38252930  0.49546539  1
  O  O324  1  0.48685851  0.38225236  1.00090257  1
  O  O325  1  0.49572832  0.88231832  0.49380190  1
  O  O326  1  0.50628378  0.88756543  0.98890804  1
  O  O327  1  0.99625588  0.38197522  0.49556003  1
  O  O328  1  0.98453335  0.38118249  0.99685292  1
  O  O329  1  0.99554723  0.88183428  0.49493174  1
  O  O330  1  0.99869357  0.86995325  0.98589387  1
  O  O331  1  0.50579657  0.48753014  0.38378358  1
  O  O332  1  0.48732421  0.49434935  0.87876030  1
  O  O333  1  0.50312802  0.99046123  0.38493481  1
  O  O334  1  0.49313294  0.99358865  0.88115879  1
  O  O335  1  1.00499582  0.48893679  0.38450244  1
  O  O336  1  0.98877144  0.49828380  0.87569774  1
  O  O337  1  1.00720113  0.98467560  0.38099090  1
  O  O338  1  1.00283184  0.98420213  0.87291818  1
  O  O339  1  0.02611941  0.00289009  0.14016586  1
  O  O340  1  0.00019724  0.01067503  0.61690245  1
  O  O341  1  0.01023584  0.50784159  0.12117713  1
  O  O342  1  -0.00606393  0.50806136  0.61252426  1
  O  O343  1  0.50709090  -0.00086523  0.11693859  1
  O  O344  1  0.50460979  -0.00328295  0.61281789  1
  O  O345  1  0.50527209  0.50256273  0.12044683  1
  O  O346  1  0.50202088  0.51260889  0.61100997  1
  O  O347  1  0.23810849  0.38378836  0.24834667  1
  O  O348  1  0.24352244  0.37995445  0.74436593  1
  O  O349  1  0.24626670  0.88224339  0.24766332  1
  O  O350  1  0.24003671  0.88470089  0.75652422  1
  O  O351  1  0.74448525  0.37961574  0.24501912  1
  O  O352  1  0.75424370  0.38505971  0.73810416  1
  O  O353  1  0.73567088  0.87484590  0.25911368  1
  O  O354  1  0.74396645  0.88363568  0.74562270  1
  O  O355  1  0.24518600  0.10955368  0.25045323  1
  O  O356  1  0.25402191  0.11777777  0.75956401  1
  O  O357  1  0.25957995  0.61753147  0.24783862  1
  O  O358  1  0.25443929  0.61682266  0.75627619  1
  O  O359  1  0.75810442  0.12317482  0.25921461  1
  O  O360  1  0.75635088  0.10821175  0.74606446  1
  O  O361  1  0.75399666  0.61460297  0.25807083  1
  O  O362  1  0.75599989  0.61832002  0.75401569  1
  O  O363  1  0.37027005  0.12994401  0.37953323  1
  O  O364  1  0.36796218  0.11871650  0.86729794  1
  O  O365  1  0.38097378  0.62885784  0.36298441  1
  O  O366  1  0.36689736  0.61736064  0.86678057  1
  O  O367  1  0.86731245  0.13098389  0.36133328  1
  O  O368  1  0.87849675  0.12915786  0.86118518  1
  O  O369  1  0.86405268  0.62967719  0.37701012  1
  O  O370  1  0.86880909  0.61786138  0.87067874  1
  O  O371  1  0.12408751  0.38544570  0.13160894  1
  O  O372  1  0.13098972  0.37198748  0.63441035  1
  O  O373  1  0.13253346  0.88320639  0.13004499  1
  O  O374  1  0.11723742  0.87690319  0.64065405  1
  O  O375  1  0.63094879  0.37618026  0.12859723  1
  O  O376  1  0.64012485  0.37326314  0.61462794  1
  O  O377  1  0.61812846  0.88186811  0.13525936  1
  O  O378  1  0.63327547  0.87412980  0.63380062  1
  O  O379  1  0.12525829  0.25791071  0.25546134  1
  O  O380  1  0.12343801  0.25887617  0.75682386  1
  O  O381  1  0.13562170  0.76026134  0.25619527  1
  O  O382  1  0.12570552  0.75737462  0.75425510  1
  O  O383  1  0.62741681  0.25417914  0.26176102  1
  O  O384  1  0.62144433  0.24404666  0.75615090  1
  O  O385  1  0.61987713  0.75202581  0.25991499  1
  O  O386  1  0.63074056  0.75866122  0.76344939  1
  O  O387  1  0.36984307  0.25784199  0.23624852  1
  O  O388  1  0.37344741  0.24007234  0.74914500  1
  O  O389  1  0.38028125  0.74233044  0.24504891  1
  O  O390  1  0.36548428  0.73620357  0.75201601  1
  O  O391  1  0.88015142  0.24113792  0.24228986  1
  O  O392  1  0.87322231  0.24179722  0.74282025  1
  O  O393  1  0.88116041  0.74801383  0.25360551  1
  O  O394  1  0.87329756  0.74354003  0.73810395  1
  O  O395  1  0.38089013  0.48908344  0.50540008  1
  O  O396  1  0.37731851  0.49493759  0.99363696  1
  O  O397  1  0.38249698  0.99494785  0.49537664  1
  O  O398  1  0.38018862  1.00382747  0.98825740  1
  O  O399  1  0.88262903  0.48747165  0.50012175  1
  O  O400  1  0.87181228  0.49482281  0.98607136  1
  O  O401  1  0.88792476  0.99311967  0.50251350  1
  O  O402  1  0.87928726  0.98988566  1.03016929  1
  O  O403  1  0.13298838  0.00428812  0.01307287  1
  O  O404  1  0.11609119  0.00417959  0.50069937  1
  O  O405  1  0.12515120  0.49428537  0.01313869  1
  O  O406  1  0.11700908  0.50872894  0.49875254  1
  O  O407  1  0.61853643  0.00679162  0.00521393  1
  O  O408  1  0.61863429  0.00782258  0.50167824  1
  O  O409  1  0.62051799  0.50315787  0.00468950  1
  O  O410  1  0.61683639  0.50963028  0.49554839  1
  O  O411  1  0.37182410  0.36698211  0.11665837  1
  O  O412  1  0.37147511  0.36834844  0.62346456  1
  O  O413  1  0.37746473  0.85779693  0.12989132  1
  O  O414  1  0.37780540  0.87763000  0.61225586  1
  O  O415  1  0.86809822  0.36883135  0.11777128  1
  O  O416  1  0.87036321  0.36785218  0.61519674  1
  O  O417  1  0.89086606  0.86017471  0.14030762  1
  O  O418  1  0.87184014  0.86990734  0.61789700  1
  O  O419  1  0.12738431  0.13412025  0.37967728  1
  O  O420  1  0.13003496  0.12995076  0.87842823  1
  O  O421  1  0.11798886  0.63459413  0.38418707  1
  O  O422  1  0.13692717  0.62346597  0.87042020  1
  O  O423  1  0.63493583  0.13147240  0.38295643  1
  O  O424  1  0.61848526  0.13686342  0.88770939  1
  O  O425  1  0.63423734  0.63099932  0.38210337  1
  O  O426  1  0.62709808  0.63228633  0.88005385  1
