# generated using pymatgen
data_V85Zn86O256
_symmetry_space_group_name_H-M   'P 1'
_cell_length_a   16.91694401
_cell_length_b   16.91904053
_cell_length_c   16.90836455
_cell_angle_alpha   89.98306887
_cell_angle_beta   89.96848805
_cell_angle_gamma   90.00106409
_symmetry_Int_Tables_number   1
_chemical_formula_structural   V85Zn86O256
_chemical_formula_sum   'V85 Zn86 O256'
_cell_volume   4839.48514450
_cell_formula_units_Z   1
loop_
 _symmetry_equiv_pos_site_id
 _symmetry_equiv_pos_as_xyz
  1  'x, y, z'
loop_
 _atom_site_type_symbol
 _atom_site_label
 _atom_site_symmetry_multiplicity
 _atom_site_fract_x
 _atom_site_fract_y
 _atom_site_fract_z
 _atom_site_occupancy
  V  V0  1  0.13303487  0.75582071  0.87877244  1
  V  V1  1  0.50003482  0.25443556  0.74279576  1
  V  V2  1  -0.00275971  0.00059617  -0.00053833  1
  V  V3  1  0.12419090  0.12707438  -0.00053000  1
  V  V4  1  0.62352914  0.74804947  0.37024283  1
  V  V5  1  0.75110673  0.74622748  0.49254509  1
  V  V6  1  0.50114918  0.62480269  0.62561254  1
  V  V7  1  -0.00440170  0.25238548  0.75622952  1
  V  V8  1  0.75424486  0.25090298  0.00656757  1
  V  V9  1  0.50458911  0.37700757  0.87162393  1
  V  V10  1  0.12576650  0.49818710  0.62517113  1
  V  V11  1  0.62819001  0.62320902  0.49370215  1
  V  V12  1  0.49375771  0.87394454  0.37564935  1
  V  V13  1  0.37629104  0.50371272  0.87185200  1
  V  V14  1  0.12865599  0.49903579  0.12657807  1
  V  V15  1  0.74211425  0.13337567  0.37137067  1
  V  V16  1  0.88442263  0.49688506  0.87854866  1
  V  V17  1  0.24875609  0.00198426  0.74044894  1
  V  V18  1  0.50944112  0.74728564  0.74520180  1
  V  V19  1  0.25579041  0.36612283  0.62773574  1
  V  V20  1  0.37872748  0.37421403  0.00612210  1
  V  V21  1  0.88271342  0.37223840  0.00309860  1
  V  V22  1  0.50163318  0.49368409  0.49067163  1
  V  V23  1  0.11672363  0.87980940  0.25436721  1
  V  V24  1  0.63078520  0.74732928  0.89077713  1
  V  V25  1  0.37785406  0.62653104  0.25401669  1
  V  V26  1  0.62694571  0.25679685  0.87042089  1
  V  V27  1  0.25075707  0.49407940  0.75304403  1
  V  V28  1  0.74933381  0.62707830  0.88989029  1
  V  V29  1  0.00421713  0.00705298  0.49713376  1
  V  V30  1  0.50525752  0.11661728  0.62592057  1
  V  V31  1  0.62534122  0.12370143  0.50034004  1
  V  V32  1  0.00182372  0.50559471  0.49865520  1
  V  V33  1  0.37423730  0.13175309  0.74290465  1
  V  V34  1  -0.00089514  0.87628122  0.87384925  1
  V  V35  1  -0.00345882  0.25075670  0.24850757  1
  V  V36  1  0.37051621  0.12004481  0.24244870  1
  V  V37  1  0.12762182  0.37267745  0.25281267  1
  V  V38  1  0.25010284  0.12815089  0.87298683  1
  V  V39  1  0.24246771  0.24438131  0.50257592  1
  V  V40  1  0.87179719  0.12793164  0.24435760  1
  V  V41  1  0.11997068  0.37563932  0.75963791  1
  V  V42  1  -0.00421133  0.12829168  0.12385308  1
  V  V43  1  -0.00228827  0.75172800  0.75028649  1
  V  V44  1  0.00170479  0.62830521  0.14048033  1
  V  V45  1  0.49170425  0.25526230  0.25493739  1
  V  V46  1  0.87356246  0.62498820  0.75095382  1
  V  V47  1  0.37721249  0.49664923  0.37659756  1
  V  V48  1  -0.00002525  0.37589088  0.37553203  1
  V  V49  1  0.74508541  -0.00097086  0.24677639  1
  V  V50  1  0.74562692  0.87075382  0.11728099  1
  V  V51  1  0.87373932  0.00007900  0.87393728  1
  V  V52  1  0.49653610  -0.00118324  0.00100133  1
  V  V53  1  0.36583019  0.74891598  0.11578957  1
  V  V54  1  0.74916580  0.12560906  0.87288558  1
  V  V55  1  0.74898795  0.37332873  0.62935686  1
  V  V56  1  0.25136547  0.50153936  0.25918381  1
  V  V57  1  0.87662486  0.75069044  0.12563289  1
  V  V58  1  0.88055590  0.87273237  0.49364703  1
  V  V59  1  0.62205377  0.12664986  0.00118048  1
  V  V60  1  0.12549141  0.87981709  0.73756759  1
  V  V61  1  0.62493210  0.37022632  0.26196835  1
  V  V62  1  0.74690120  0.49757277  0.75445227  1
  V  V63  1  0.87704268  -0.00556075  0.37032491  1
  V  V64  1  0.38041852  0.36400570  0.50085938  1
  V  V65  1  0.62806618  0.50003150  0.12346976  1
  V  V66  1  0.12617406  0.63172861  0.00431234  1
  V  V67  1  0.86224430  0.50795372  0.36796896  1
  V  V68  1  0.62374219  0.49421789  0.62895670  1
  V  V69  1  0.13189623  -0.00045453  0.12670474  1
  V  V70  1  0.74858239  0.00148972  0.74166089  1
  V  V71  1  0.12580481  0.74656177  0.36387533  1
  V  V72  1  0.50480167  0.62688489  0.11788921  1
  V  V73  1  0.34612303  0.65861128  0.72597251  1
  V  V74  1  0.14439181  0.63294657  0.49908682  1
  V  V75  1  0.49782684  0.87440283  0.87394300  1
  V  V76  1  0.87541379  0.37577078  0.50067980  1
  V  V77  1  0.74555050  0.87598356  0.61797139  1
  V  V78  1  0.24995285  0.62641164  0.88072434  1
  V  V79  1  0.24455650  0.12202434  0.37663425  1
  V  V80  1  0.75255157  0.37807431  0.12985351  1
  V  V81  1  0.36194991  0.86161547  0.51429579  1
  V  V82  1  0.25609177  0.24884428  0.00944123  1
  V  V83  1  0.36901445  -0.00241947  0.37751168  1
  V  V84  1  0.62599009  0.87868483  0.74505193  1
  Zn  Zn85  1  0.36450096  0.86957787  -0.00811132  1
  Zn  Zn86  1  0.86834744  0.86346230  -0.00548340  1
  Zn  Zn87  1  0.49286071  0.13147059  0.12188449  1
  Zn  Zn88  1  0.00409084  0.49689824  0.00127935  1
  Zn  Zn89  1  0.13162438  0.00580194  0.61113889  1
  Zn  Zn90  1  0.00071955  0.62615310  0.62496312  1
  Zn  Zn91  1  0.87411910  0.74816105  0.62242546  1
  Zn  Zn92  1  0.25946800  0.37027526  0.13153675  1
  Zn  Zn93  1  0.85736367  0.62854706  0.25282367  1
  Zn  Zn94  1  0.74485607  0.25315294  0.49406030  1
  Zn  Zn95  1  0.62044263  0.87675109  0.24989496  1
  Zn  Zn96  1  0.50228058  -0.00359429  0.50293967  1
  Zn  Zn97  1  0.87573008  0.24868837  0.62318802  1
  Zn  Zn98  1  0.12123254  0.25628823  0.88031574  1
  Zn  Zn99  1  0.87547446  0.12497189  0.74352983  1
  Zn  Zn100  1  0.49456551  0.75132518  0.24944237  1
  Zn  Zn101  1  0.37369169  -0.00040808  0.87161320  1
  Zn  Zn102  1  0.12026574  0.24238401  0.38025724  1
  Zn  Zn103  1  0.24417365  0.87037941  0.12065017  1
  Zn  Zn104  1  0.00285392  0.13081707  0.61958643  1
  Zn  Zn105  1  0.61927250  -0.00074431  0.12698642  1
  Zn  Zn106  1  0.50534898  0.50379241  -0.00365531  1
  Zn  Zn107  1  0.18629123  0.18511363  0.19017510  1
  Zn  Zn108  1  0.17857724  0.18635411  0.68369749  1
  Zn  Zn109  1  0.19192095  0.68692944  0.19411998  1
  Zn  Zn110  1  0.17917990  0.68806611  0.68751415  1
  Zn  Zn111  1  0.68091512  0.19229947  0.18654564  1
  Zn  Zn112  1  0.68465931  0.18848517  0.68544138  1
  Zn  Zn113  1  0.68767009  0.69190777  0.18223560  1
  Zn  Zn114  1  0.68928021  0.68624481  0.68480335  1
  Zn  Zn115  1  0.31498934  0.30952490  0.31747010  1
  Zn  Zn116  1  0.31538221  0.31111147  0.81799702  1
  Zn  Zn117  1  0.30101560  0.81223326  0.31035971  1
  Zn  Zn118  1  0.31003765  0.81255098  0.79520358  1
  Zn  Zn119  1  0.81444859  0.31578420  0.31016560  1
  Zn  Zn120  1  0.81439334  0.31600167  0.81645159  1
  Zn  Zn121  1  0.81062667  0.81140773  0.30668642  1
  Zn  Zn122  1  0.80971888  0.81256298  0.81210598  1
  Zn  Zn123  1  0.18926096  0.43458259  0.43903521  1
  Zn  Zn124  1  0.19149991  0.43794695  0.94324704  1
  Zn  Zn125  1  0.19069242  0.92766335  0.43304505  1
  Zn  Zn126  1  0.18848347  0.94005564  0.93603695  1
  Zn  Zn127  1  0.68784083  0.43502702  0.44245938  1
  Zn  Zn128  1  0.69007824  0.43868457  0.94255376  1
  Zn  Zn129  1  0.68465152  0.94090334  0.43421027  1
  Zn  Zn130  1  0.68415410  0.93845580  0.93507429  1
  Zn  Zn131  1  0.31207115  0.05737372  0.05879134  1
  Zn  Zn132  1  0.31927082  0.06219908  0.55985556  1
  Zn  Zn133  1  0.31262378  0.56160068  0.06326946  1
  Zn  Zn134  1  0.31500428  0.55342586  0.56426477  1
  Zn  Zn135  1  0.81022155  0.06099944  0.06175610  1
  Zn  Zn136  1  0.81558373  0.06487148  0.55973573  1
  Zn  Zn137  1  0.81507241  0.56062650  0.06907982  1
  Zn  Zn138  1  0.81255263  0.56200432  0.56275242  1
  Zn  Zn139  1  0.44541331  0.44041172  0.19038856  1
  Zn  Zn140  1  0.43745815  0.43740638  0.68755329  1
  Zn  Zn141  1  0.43363934  0.93713136  0.18830259  1
  Zn  Zn142  1  0.43456018  0.93864585  0.68795859  1
  Zn  Zn143  1  0.93837456  0.43892693  0.18678078  1
  Zn  Zn144  1  0.93830091  0.43742926  0.68810600  1
  Zn  Zn145  1  0.93897935  0.93474859  0.18624285  1
  Zn  Zn146  1  0.93425995  0.93737833  0.68104852  1
  Zn  Zn147  1  0.06015085  0.05890464  0.31307724  1
  Zn  Zn148  1  0.06323459  0.06723830  0.80868468  1
  Zn  Zn149  1  0.06558131  0.56346988  0.31884009  1
  Zn  Zn150  1  0.06356636  0.56543264  0.81392806  1
  Zn  Zn151  1  0.55654960  0.06465122  0.31357006  1
  Zn  Zn152  1  0.56290391  0.06281384  0.81246050  1
  Zn  Zn153  1  0.67597790  0.55749600  0.30616439  1
  Zn  Zn154  1  0.56609704  0.56480486  0.81332329  1
  Zn  Zn155  1  0.43815023  0.18548865  0.43399968  1
  Zn  Zn156  1  0.43648842  0.18950857  0.93315216  1
  Zn  Zn157  1  0.43446162  0.68615658  0.43833183  1
  Zn  Zn158  1  0.43815688  0.68746126  0.93285684  1
  Zn  Zn159  1  0.93043552  0.18717156  0.43208138  1
  Zn  Zn160  1  0.93532979  0.18861189  0.93323937  1
  Zn  Zn161  1  0.94345450  0.68830682  0.43302560  1
  Zn  Zn162  1  0.94104669  0.68551619  0.94274992  1
  Zn  Zn163  1  0.06572881  0.31095948  0.06674114  1
  Zn  Zn164  1  0.06317835  0.31383367  0.56839752  1
  Zn  Zn165  1  0.05720510  0.81386665  0.06377939  1
  Zn  Zn166  1  0.06033214  0.81152648  0.55806324  1
  Zn  Zn167  1  0.56091118  0.31117010  0.06674632  1
  Zn  Zn168  1  0.56614544  0.30781345  0.55868280  1
  Zn  Zn169  1  0.55726002  0.81402736  0.06459506  1
  Zn  Zn170  1  0.55947980  0.81265178  0.55843580  1
  O  O171  1  0.11600549  0.11906399  0.12130661  1
  O  O172  1  0.11644713  0.11783241  0.62382026  1
  O  O173  1  0.12178372  0.62121715  0.12242074  1
  O  O174  1  0.12458066  0.61691957  0.61655667  1
  O  O175  1  0.62583175  0.12303085  0.10953235  1
  O  O176  1  0.61699467  0.12605987  0.61745229  1
  O  O177  1  0.61044390  0.61950305  0.12952555  1
  O  O178  1  0.62101299  0.61555560  0.61579490  1
  O  O179  1  0.37223234  0.38632602  0.38581465  1
  O  O180  1  0.38291348  0.38380226  0.88306707  1
  O  O181  1  0.37626298  0.88018236  0.37617180  1
  O  O182  1  0.38810048  0.87289464  0.87013828  1
  O  O183  1  0.87817521  0.38678161  0.38134150  1
  O  O184  1  0.86895831  0.38663995  0.88865200  1
  O  O185  1  0.86630782  0.88347266  0.37985817  1
  O  O186  1  0.87870754  0.88161119  0.87516523  1
  O  O187  1  0.26017582  0.00596259  0.38017678  1
  O  O188  1  0.24900803  0.01554461  0.86516265  1
  O  O189  1  0.25756514  0.49634946  0.36630616  1
  O  O190  1  0.25824513  0.50431231  0.87303938  1
  O  O191  1  0.75693367  0.00627025  0.36210579  1
  O  O192  1  0.75506418  0.00235660  0.86429750  1
  O  O193  1  0.75876235  0.50137625  0.37856162  1
  O  O194  1  0.75533135  0.50713463  0.86981657  1
  O  O195  1  0.24137877  0.49769643  0.13501274  1
  O  O196  1  0.24516808  0.48807106  0.63259080  1
  O  O197  1  0.23389868  1.00529419  0.12485944  1
  O  O198  1  0.24997517  1.00826551  0.63624602  1
  O  O199  1  0.74193600  0.49034342  0.12365002  1
  O  O200  1  0.74428814  0.49284300  0.63209482  1
  O  O201  1  0.74820200  0.99583193  0.13491490  1
  O  O202  1  0.75475800  0.99328154  0.63469542  1
  O  O203  1  0.00438057  0.36738995  0.25290640  1
  O  O204  1  0.00805669  0.36744029  0.74879565  1
  O  O205  1  0.01603549  0.87044730  0.24050560  1
  O  O206  1  0.00326638  0.87068271  0.75344942  1
  O  O207  1  0.50830384  0.36440507  0.24923483  1
  O  O208  1  0.49596836  0.36922203  0.76192471  1
  O  O209  1  0.49884743  0.87295325  0.26206654  1
  O  O210  1  0.50903049  0.87010757  0.75316867  1
  O  O211  1  0.48629255  0.13094079  0.24695947  1
  O  O212  1  0.49515218  0.13169170  0.74586561  1
  O  O213  1  0.48402390  0.62577043  0.23423938  1
  O  O214  1  0.50625946  0.63105057  0.73773869  1
  O  O215  1  0.99210550  0.12998039  0.24464699  1
  O  O216  1  0.99670643  0.14072512  0.75043081  1
  O  O217  1  1.00074873  0.62082705  0.24199002  1
  O  O218  1  0.99280225  0.63367135  0.75006385  1
  O  O219  1  0.36820884  0.25993636  -0.00566495  1
  O  O220  1  0.36859037  0.26029089  0.49471860  1
  O  O221  1  0.37931607  0.74977494  0.01175006  1
  O  O222  1  0.37557510  0.76220621  0.49799461  1
  O  O223  1  0.86494438  0.25751067  -0.00592443  1
  O  O224  1  0.87391514  0.26538746  0.49879895  1
  O  O225  1  0.87643913  0.74737463  0.01517144  1
  O  O226  1  0.86793222  0.75463415  0.49686418  1
  O  O227  1  0.13784200  0.25773859  0.49898473  1
  O  O228  1  0.13327080  0.24508609  0.99920010  1
  O  O229  1  0.13080798  0.73400378  0.51127334  1
  O  O230  1  0.11855529  0.74431619  0.99064529  1
  O  O231  1  0.62920777  0.23449112  0.49952284  1
  O  O232  1  0.63013299  0.24467412  0.99050892  1
  O  O233  1  0.62956568  0.74237845  0.49096759  1
  O  O234  1  0.62496628  0.75514956  0.98884104  1
  O  O235  1  0.50490752  0.24537637  0.14151054  1
  O  O236  1  0.50805974  0.24481834  0.63976501  1
  O  O237  1  0.49267345  0.74031989  0.12733626  1
  O  O238  1  0.50864144  0.73884860  0.63242549  1
  O  O239  1  1.00290098  0.23642908  0.13207267  1
  O  O240  1  0.99676222  0.25327379  0.63871688  1
  O  O241  1  0.98879660  0.74125285  0.12325522  1
  O  O242  1  0.99684417  0.74920848  0.63773516  1
  O  O243  1  0.00041456  0.25611630  0.36826385  1
  O  O244  1  0.00183422  0.25193213  0.86257740  1
  O  O245  1  0.02690382  0.75347047  0.39534522  1
  O  O246  1  0.00619459  0.75350277  0.86590548  1
  O  O247  1  0.50054620  0.24254208  0.35553363  1
  O  O248  1  0.50812824  0.25814779  0.86767623  1
  O  O249  1  0.50619195  0.75497944  0.37395897  1
  O  O250  1  0.51589331  0.75416362  0.87121577  1
  O  O251  1  0.25911588  0.13511454  0.49251218  1
  O  O252  1  0.24793941  0.13043766  0.99250137  1
  O  O253  1  0.24218472  0.61919104  0.50464705  1
  O  O254  1  0.23599166  0.61975870  0.99581652  1
  O  O255  1  0.74480534  0.12548766  0.48908868  1
  O  O256  1  0.74388950  0.13177102  0.99375696  1
  O  O257  1  0.74099617  0.63360914  0.50558615  1
  O  O258  1  0.75483537  0.61917700  0.98863947  1
  O  O259  1  0.25988945  0.36587267  0.00242029  1
  O  O260  1  0.25761683  0.36820369  0.50897724  1
  O  O261  1  0.25363314  0.88525447  0.00682567  1
  O  O262  1  0.26212445  0.87682040  0.50522286  1
  O  O263  1  0.75849302  0.36812754  0.00815275  1
  O  O264  1  0.75791854  0.37450568  0.50959609  1
  O  O265  1  0.75153841  0.88741578  0.01285956  1
  O  O266  1  0.75441657  0.87104693  0.50328568  1
  O  O267  1  0.13401462  0.49582773  0.24854099  1
  O  O268  1  0.12827683  0.49398698  0.74662628  1
  O  O269  1  0.11888924  0.98939357  0.24234460  1
  O  O270  1  0.13035688  0.99397325  0.74923258  1
  O  O271  1  0.61883621  0.48173874  0.23835248  1
  O  O272  1  0.63481502  0.50488853  0.74134110  1
  O  O273  1  0.63198323  1.00101890  0.24847862  1
  O  O274  1  0.63316737  0.98683375  0.75553207  1
  O  O275  1  0.37584500  0.01280029  0.25729066  1
  O  O276  1  0.36643733  0.00901262  0.75215280  1
  O  O277  1  0.37130650  0.50144736  0.25832484  1
  O  O278  1  0.36962897  0.49858717  0.76169771  1
  O  O279  1  0.86894460  0.00526972  0.25307527  1
  O  O280  1  0.86718621  -0.00132517  0.75759856  1
  O  O281  1  0.87747767  0.49946368  0.26634510  1
  O  O282  1  0.87049047  0.50635194  0.75832617  1
  O  O283  1  0.11723219  0.37445914  0.36842144  1
  O  O284  1  0.13168711  0.37773177  0.86369173  1
  O  O285  1  0.12378995  0.86836843  0.36042866  1
  O  O286  1  0.11762661  0.87054232  0.86812778  1
  O  O287  1  0.63131952  0.37862487  0.36092580  1
  O  O288  1  0.61826373  0.36885953  0.87981426  1
  O  O289  1  0.61475070  0.86624818  0.37533423  1
  O  O290  1  0.61930536  0.86542512  0.86743053  1
  O  O291  1  0.37041181  0.11987680  0.13887265  1
  O  O292  1  0.38469661  0.12590679  0.63645612  1
  O  O293  1  0.38076436  0.63275441  0.12713194  1
  O  O294  1  0.38448020  0.61532237  0.63438000  1
  O  O295  1  0.87929635  0.12068520  0.13600057  1
  O  O296  1  0.88049409  0.13059349  0.62586313  1
  O  O297  1  0.88435160  0.63034078  0.12943872  1
  O  O298  1  0.87551222  0.62496946  0.63846831  1
  O  O299  1  0.24687892  0.24984054  0.11362409  1
  O  O300  1  0.24784392  0.25908995  0.62068759  1
  O  O301  1  0.26331946  0.74338272  0.12154876  1
  O  O302  1  0.28113770  0.73687405  0.69071601  1
  O  O303  1  0.74464715  0.25679166  0.11221309  1
  O  O304  1  0.75143598  0.26467053  0.62830580  1
  O  O305  1  0.75801522  0.76059854  0.12225339  1
  O  O306  1  0.74994696  0.75690626  0.61159174  1
  O  O307  1  0.24709322  0.24160479  0.38494619  1
  O  O308  1  0.24789103  0.24083310  0.88372294  1
  O  O309  1  0.22754784  0.75553745  0.37979614  1
  O  O310  1  0.23770288  0.74694390  0.86834399  1
  O  O311  1  0.75824895  0.23691677  0.37341974  1
  O  O312  1  0.74313383  0.24759847  0.88168718  1
  O  O313  1  0.74082716  0.75636720  0.38549755  1
  O  O314  1  0.73883937  0.74398234  0.87266538  1
  O  O315  1  0.00131783  0.12320347  0.00649069  1
  O  O316  1  -0.00627763  0.11044225  0.49296840  1
  O  O317  1  0.01328932  0.62015787  0.00936277  1
  O  O318  1  0.00350551  0.61365510  0.50377717  1
  O  O319  1  0.50550885  0.12039466  -0.00170329  1
  O  O320  1  0.50417451  0.12608898  0.50993643  1
  O  O321  1  0.49513525  0.62410672  0.01305146  1
  O  O322  1  0.50574860  0.61715946  0.51019844  1
  O  O323  1  0.49201684  0.38065332  0.50945025  1
  O  O324  1  0.49520805  0.37469030  0.98850672  1
  O  O325  1  0.49339890  0.87542997  0.48818074  1
  O  O326  1  0.49684830  0.88234904  0.99063193  1
  O  O327  1  0.99462090  0.38524845  0.49822647  1
  O  O328  1  0.98715183  0.37437311  1.01038588  1
  O  O329  1  0.98389678  0.88089649  0.50385091  1
  O  O330  1  0.99451490  0.88386472  0.99167186  1
  O  O331  1  0.49503542  0.49846804  0.39010081  1
  O  O332  1  0.49579452  0.49564351  0.87425374  1
  O  O333  1  0.48747682  0.99240144  0.37605187  1
  O  O334  1  0.50045073  0.98965449  0.87862817  1
  O  O335  1  0.99437774  0.49457393  0.38309098  1
  O  O336  1  0.98808216  0.50499389  0.87777965  1
  O  O337  1  0.98595316  1.00094328  0.38123368  1
  O  O338  1  0.99109664  0.99840366  0.87625116  1
  O  O339  1  0.00278831  0.01161110  0.11968799  1
  O  O340  1  -0.00473030  0.00029235  0.60542505  1
  O  O341  1  0.01395145  0.50698782  0.12777360  1
  O  O342  1  0.00732423  0.50028603  0.61701995  1
  O  O343  1  0.49923675  0.00334199  0.11491215  1
  O  O344  1  0.50012780  0.01291569  0.62760291  1
  O  O345  1  0.50452011  0.51205042  0.12120466  1
  O  O346  1  0.50844776  0.50468110  0.62130733  1
  O  O347  1  0.24631621  0.37932019  0.25033564  1
  O  O348  1  0.24615711  0.37499073  0.74561431  1
  O  O349  1  0.22685372  0.86555793  0.23693199  1
  O  O350  1  0.23770169  0.89103810  0.75622106  1
  O  O351  1  0.73845329  0.36663204  0.24128612  1
  O  O352  1  0.75603381  0.38921244  0.74518916  1
  O  O353  1  0.74609779  0.88405040  0.23918285  1
  O  O354  1  0.74432059  0.87966568  0.74053382  1
  O  O355  1  0.26373904  0.13389800  0.25950924  1
  O  O356  1  0.25619359  0.12669648  0.75486769  1
  O  O357  1  0.26429941  0.61274419  0.24619558  1
  O  O358  1  0.24613063  0.61040343  0.76037423  1
  O  O359  1  0.75370692  0.12158597  0.25102664  1
  O  O360  1  0.74876228  0.11655067  0.75352195  1
  O  O361  1  0.74449798  0.62146279  0.24701160  1
  O  O362  1  0.75670467  0.61655956  0.75536400  1
  O  O363  1  0.36739167  0.11615960  0.36835862  1
  O  O364  1  0.36787702  0.12489867  0.86300294  1
  O  O365  1  0.38222378  0.61011766  0.36770667  1
  O  O366  1  0.36747687  0.62102687  0.86685479  1
  O  O367  1  0.86654456  0.11646897  0.36123693  1
  O  O368  1  0.86624056  0.11710475  0.86943013  1
  O  O369  1  0.87948522  0.61133880  0.37422553  1
  O  O370  1  0.86918131  0.62084492  0.86783360  1
  O  O371  1  0.12823925  0.38343056  0.13444211  1
  O  O372  1  0.13425389  0.38067278  0.63629247  1
  O  O373  1  0.12067855  0.88552115  0.12742704  1
  O  O374  1  0.12003309  0.87989707  0.63475306  1
  O  O375  1  0.63419625  0.38014680  0.12915026  1
  O  O376  1  0.63284725  0.38617438  0.62023766  1
  O  O377  1  0.63043105  0.87666969  0.12802184  1
  O  O378  1  0.63570446  0.87153943  0.62942621  1
  O  O379  1  0.11368105  0.25417800  0.25230015  1
  O  O380  1  0.11472837  0.25920385  0.75391898  1
  O  O381  1  0.12007356  0.75003752  0.25810623  1
  O  O382  1  0.11520823  0.75918036  0.75667547  1
  O  O383  1  0.61599017  0.26273704  0.24954975  1
  O  O384  1  0.61915264  0.24645522  0.76396867  1
  O  O385  1  0.62126915  0.75073723  0.26214615  1
  O  O386  1  0.62302031  0.75885177  0.75393938  1
  O  O387  1  0.38329674  0.24130255  0.25203030  1
  O  O388  1  0.38700612  0.24375494  0.75593904  1
  O  O389  1  0.37175481  0.74098657  0.24299097  1
  O  O390  1  0.40327711  0.74508712  0.76927012  1
  O  O391  1  0.88711163  0.24306551  0.25235567  1
  O  O392  1  0.88511755  0.25362236  0.75042509  1
  O  O393  1  0.87061413  0.74627392  0.23429365  1
  O  O394  1  0.88008474  0.74263860  0.75045332  1
  O  O395  1  0.38236212  0.49060835  0.49537029  1
  O  O396  1  0.37654691  0.49536292  0.98718286  1
  O  O397  1  0.38027093  0.98995940  0.49239987  1
  O  O398  1  0.38633778  1.00033737  0.99200184  1
  O  O399  1  0.88028018  0.49411958  0.49218084  1
  O  O400  1  0.87864437  0.49260296  0.99518628  1
  O  O401  1  0.87827097  0.99246046  0.48859550  1
  O  O402  1  0.87761890  1.00194351  0.98591123  1
  O  O403  1  0.11563227  0.00865098  0.00583276  1
  O  O404  1  0.10624261  -0.01230255  0.49257969  1
  O  O405  1  0.12490835  0.50466874  0.01120306  1
  O  O406  1  0.11986981  0.50766730  0.50266697  1
  O  O407  1  0.61307599  0.00871970  -0.00298468  1
  O  O408  1  0.62054253  0.01461557  0.49477925  1
  O  O409  1  0.62202374  0.49507201  0.01593094  1
  O  O410  1  0.61992177  0.50508749  0.50662700  1
  O  O411  1  0.37833539  0.38545262  0.11013370  1
  O  O412  1  0.36560733  0.38010510  0.61670215  1
  O  O413  1  0.37549568  0.85720075  0.12623066  1
  O  O414  1  0.38122799  0.87347678  0.61330182  1
  O  O415  1  0.86248348  0.38142454  0.12026406  1
  O  O416  1  0.86677863  0.37873865  0.61658769  1
  O  O417  1  0.86900707  0.86508515  0.12237239  1
  O  O418  1  0.86144876  0.87118371  0.61522074  1
  O  O419  1  0.13971206  0.12241989  0.36773351  1
  O  O420  1  0.13245844  0.12854914  0.88225799  1
  O  O421  1  0.12657910  0.63237114  0.38923946  1
  O  O422  1  0.12844835  0.63408826  0.88367898  1
  O  O423  1  0.63479432  0.12053087  0.37878701  1
  O  O424  1  0.62935515  0.13205004  0.88338895  1
  O  O425  1  0.62215200  0.62896334  0.38686274  1
  O  O426  1  0.63310460  0.63896879  0.87317815  1
