# generated using pymatgen
data_V85Zn86O256
_symmetry_space_group_name_H-M   'P 1'
_cell_length_a   16.93338774
_cell_length_b   16.94039266
_cell_length_c   16.93453509
_cell_angle_alpha   89.99500384
_cell_angle_beta   90.05630793
_cell_angle_gamma   89.94087730
_symmetry_Int_Tables_number   1
_chemical_formula_structural   V85Zn86O256
_chemical_formula_sum   'V85 Zn86 O256'
_cell_volume   4857.80593728
_cell_formula_units_Z   1
loop_
 _symmetry_equiv_pos_site_id
 _symmetry_equiv_pos_as_xyz
  1  'x, y, z'
loop_
 _atom_site_type_symbol
 _atom_site_label
 _atom_site_symmetry_multiplicity
 _atom_site_fract_x
 _atom_site_fract_y
 _atom_site_fract_z
 _atom_site_occupancy
  V  V0  1  0.62323961  0.62590129  0.49658890  1
  V  V1  1  0.87625004  0.74862761  0.12317572  1
  V  V2  1  0.74601126  0.25112395  0.00109801  1
  V  V3  1  0.88287491  0.37203337  0.50886093  1
  V  V4  1  0.49040542  0.24696025  0.74964663  1
  V  V5  1  0.24577962  -0.00285291  0.25678160  1
  V  V6  1  -0.01607322  0.00383079  0.50504440  1
  V  V7  1  0.61819788  0.24887319  0.87538706  1
  V  V8  1  0.50389049  -0.00083369  0.50179118  1
  V  V9  1  0.87112613  0.24944480  0.12692963  1
  V  V10  1  0.75113402  0.74966981  -0.00245484  1
  V  V11  1  0.44067133  0.43899349  0.93402099  1
  V  V12  1  0.87381504  0.49883857  0.87743009  1
  V  V13  1  0.61837434  0.00267687  0.12759325  1
  V  V14  1  0.37438519  0.00455572  0.87226444  1
  V  V15  1  0.74900474  0.62491175  0.87400946  1
  V  V16  1  0.87220752  0.00466793  0.87416952  1
  V  V17  1  0.62265754  0.86172030  0.25431655  1
  V  V18  1  0.33288988  0.16076854  0.27933881  1
  V  V19  1  0.75088682  0.49771998  0.24730450  1
  V  V20  1  0.49597266  0.62088698  0.61983029  1
  V  V21  1  0.49480737  0.12356966  0.62627182  1
  V  V22  1  0.50745317  0.38172055  0.38153580  1
  V  V23  1  0.61733818  0.49713659  0.12343040  1
  V  V24  1  0.00185393  0.87064024  0.86892622  1
  V  V25  1  -0.00125011  0.75065027  0.25026595  1
  V  V26  1  -0.00330114  0.24644429  0.73917193  1
  V  V27  1  0.63428549  0.24999552  0.37779135  1
  V  V28  1  0.75073308  0.87571595  0.12550940  1
  V  V29  1  0.25393861  -0.00128721  0.73741509  1
  V  V30  1  0.74971008  0.75892641  0.50716061  1
  V  V31  1  0.88525090  0.62668867  0.75026697  1
  V  V32  1  -0.01790007  0.88012849  0.38217341  1
  V  V33  1  0.87617692  0.87501482  -0.00252100  1
  V  V34  1  0.12813538  0.61984973  0.00202252  1
  V  V35  1  0.50067011  0.87767064  0.87431913  1
  V  V36  1  0.49892199  0.75249540  0.74747459  1
  V  V37  1  0.76206598  0.12117396  0.37914362  1
  V  V38  1  0.75160276  -0.00250320  0.25575287  1
  V  V39  1  0.87897649  0.11890790  0.24958015  1
  V  V40  1  0.37468322  0.37087555  0.49770388  1
  V  V41  1  0.62123906  0.49787808  0.61787976  1
  V  V42  1  0.37646965  0.87761227  0.00633062  1
  V  V43  1  0.50289390  0.86123376  0.37322995  1
  V  V44  1  0.74828322  0.49994887  0.75011569  1
  V  V45  1  0.24998057  0.36950075  0.61935217  1
  V  V46  1  0.61713326  0.62187505  -0.00148541  1
  V  V47  1  0.36934294  0.75238233  0.62597483  1
  V  V48  1  0.62668283  0.87980302  0.73404436  1
  V  V49  1  0.87681887  0.76004261  0.62805368  1
  V  V50  1  0.61783722  0.37505950  0.75476837  1
  V  V51  1  0.75020144  0.36700580  0.62599149  1
  V  V52  1  -0.00128914  0.37050877  0.87763873  1
  V  V53  1  0.86982783  0.37516530  0.00644488  1
  V  V54  1  0.12967964  0.87274075  0.74241561  1
  V  V55  1  0.00242109  0.00152556  -0.00016078  1
  V  V56  1  0.87569138  0.62253906  0.25056182  1
  V  V57  1  0.24572505  0.75282086  0.50433882  1
  V  V58  1  0.11876550  0.49960488  0.62192819  1
  V  V59  1  0.37642886  0.25424852  0.12000771  1
  V  V60  1  0.11691631  0.62196578  0.49873317  1
  V  V61  1  0.25267435  0.12592255  0.86742480  1
  V  V62  1  0.25705236  0.74996012  0.00066159  1
  V  V63  1  0.63538288  0.37515607  0.24809265  1
  V  V64  1  0.37932359  0.50569178  0.37709200  1
  V  V65  1  0.12587656  0.74732296  0.87095259  1
  V  V66  1  0.24885900  0.87283318  0.12681663  1
  V  V67  1  0.37719359  -0.00059554  0.36515632  1
  V  V68  1  0.62950027  0.12141935  0.50590116  1
  V  V69  1  0.74797664  0.62795904  0.37837766  1
  V  V70  1  0.00489165  0.61922426  0.12404774  1
  V  V71  1  0.36905650  0.87997422  0.50363341  1
  V  V72  1  0.25674318  0.50002083  0.75327690  1
  V  V73  1  0.50766927  0.24583358  0.25057683  1
  V  V74  1  0.12941460  0.12776040  -0.00073710  1
  V  V75  1  0.12416749  0.37320749  0.75068958  1
  V  V76  1  0.12336792  0.37528925  0.24782491  1
  V  V77  1  0.12106007  0.75310704  0.37583676  1
  V  V78  1  0.24801078  0.50728598  0.24563397  1
  V  V79  1  0.87579319  0.12930567  0.73734746  1
  V  V80  1  0.88598876  0.49958156  0.38706091  1
  V  V81  1  0.74612901  -0.00231335  0.73659843  1
  V  V82  1  0.25085578  0.38328336  0.11559950  1
  V  V83  1  0.62543708  0.75320500  0.87187529  1
  V  V84  1  0.49780590  0.63872213  0.13430021  1
  Zn  Zn85  1  0.48820724  0.12239539  0.13137318  1
  Zn  Zn86  1  0.19456431  0.21233709  0.41706507  1
  Zn  Zn87  1  0.11892015  0.87541647  0.24795200  1
  Zn  Zn88  1  0.37892689  0.61939159  0.75319032  1
  Zn  Zn89  1  0.12667429  0.24907388  0.87419010  1
  Zn  Zn90  1  0.25992456  0.61836062  0.88075538  1
  Zn  Zn91  1  0.62137362  0.12569653  0.00303314  1
  Zn  Zn92  1  0.75841986  0.24506451  0.50741677  1
  Zn  Zn93  1  0.12617983  0.00095690  0.12590917  1
  Zn  Zn94  1  0.00100479  0.12632034  0.12372994  1
  Zn  Zn95  1  0.37652028  0.64021862  0.25128237  1
  Zn  Zn96  1  0.13339746  0.10524557  0.50716170  1
  Zn  Zn97  1  0.11201993  0.00463131  0.62815381  1
  Zn  Zn98  1  0.50016502  0.00299125  0.00032517  1
  Zn  Zn99  1  0.25151670  0.62860759  0.37307002  1
  Zn  Zn100  1  0.74639694  0.12303143  0.87480027  1
  Zn  Zn101  1  0.36866259  0.24434796  0.61972374  1
  Zn  Zn102  1  -0.00190105  0.62634457  0.62376116  1
  Zn  Zn103  1  0.00573189  0.49579378  0.00343434  1
  Zn  Zn104  1  0.03560290  0.35298031  0.40572904  1
  Zn  Zn105  1  0.00617981  0.24705934  0.24910490  1
  Zn  Zn106  1  0.25636194  0.25303611  -0.00458167  1
  Zn  Zn107  1  0.18399511  0.19421692  0.18162274  1
  Zn  Zn108  1  0.18349313  0.18320936  0.68241632  1
  Zn  Zn109  1  0.18872765  0.69049258  0.18671236  1
  Zn  Zn110  1  0.18679561  0.68510956  0.68740962  1
  Zn  Zn111  1  0.69336510  0.18679121  0.18849382  1
  Zn  Zn112  1  0.68492538  0.18412084  0.68970286  1
  Zn  Zn113  1  0.68914659  0.68400237  0.18500497  1
  Zn  Zn114  1  0.68765514  0.68716570  0.68579905  1
  Zn  Zn115  1  0.31867742  0.33246704  0.30347679  1
  Zn  Zn116  1  0.31407539  0.31636505  0.81364599  1
  Zn  Zn117  1  0.30801993  0.81472820  0.31897851  1
  Zn  Zn118  1  0.31224043  0.81355953  0.81508344  1
  Zn  Zn119  1  0.85134104  0.28954200  0.34156783  1
  Zn  Zn120  1  0.80832586  0.31071712  0.81543633  1
  Zn  Zn121  1  0.80728894  0.80681210  0.31320855  1
  Zn  Zn122  1  0.81190595  0.81486489  0.80699016  1
  Zn  Zn123  1  0.19537155  0.44235542  0.43605085  1
  Zn  Zn124  1  0.18853495  0.43737057  0.93558750  1
  Zn  Zn125  1  0.18153838  0.93628388  0.43911116  1
  Zn  Zn126  1  0.18900536  0.93875822  0.93439296  1
  Zn  Zn127  1  0.69528283  0.43958448  0.43794771  1
  Zn  Zn128  1  0.68211100  0.43519214  0.93866503  1
  Zn  Zn129  1  0.68630778  0.93757267  0.43683296  1
  Zn  Zn130  1  0.68758414  0.93868392  0.93535484  1
  Zn  Zn131  1  0.31421300  0.06538641  0.07059487  1
  Zn  Zn132  1  0.30808812  0.07234207  0.55000345  1
  Zn  Zn133  1  0.32164376  0.56202145  0.05968363  1
  Zn  Zn134  1  0.30806886  0.56050493  0.56055254  1
  Zn  Zn135  1  0.80888470  0.06393003  0.06344312  1
  Zn  Zn136  1  0.81926852  0.05612678  0.56059883  1
  Zn  Zn137  1  0.80919081  0.56156360  0.06331357  1
  Zn  Zn138  1  0.80976194  0.56359256  0.56695948  1
  Zn  Zn139  1  0.43958512  0.43873808  0.19015795  1
  Zn  Zn140  1  0.43817641  0.43425984  0.68556784  1
  Zn  Zn141  1  0.43746982  0.81581144  0.18915800  1
  Zn  Zn142  1  0.43719667  0.93919604  0.68526265  1
  Zn  Zn143  1  0.93399021  0.43889808  0.18609600  1
  Zn  Zn144  1  0.93811266  0.43800199  0.68948304  1
  Zn  Zn145  1  0.93831917  0.93668714  0.18794164  1
  Zn  Zn146  1  0.93511912  0.93719033  0.69092983  1
  Zn  Zn147  1  0.06498375  0.05929565  0.31695740  1
  Zn  Zn148  1  0.06413879  0.06228864  0.80997005  1
  Zn  Zn149  1  0.06603585  0.56059975  0.31091085  1
  Zn  Zn150  1  0.06634641  0.55780283  0.81560995  1
  Zn  Zn151  1  0.56741568  0.05940489  0.31732913  1
  Zn  Zn152  1  0.56315881  0.06381637  0.81148984  1
  Zn  Zn153  1  0.56319413  0.56488503  0.31173596  1
  Zn  Zn154  1  0.55930280  0.56337217  0.80860750  1
  Zn  Zn155  1  0.44289896  0.18985748  0.43667030  1
  Zn  Zn156  1  0.44122357  0.18429113  0.94069641  1
  Zn  Zn157  1  0.43522067  0.68760107  0.44028446  1
  Zn  Zn158  1  0.43758046  0.68440797  0.93633712  1
  Zn  Zn159  1  1.01236561  0.19051342  0.42600615  1
  Zn  Zn160  1  0.93692176  0.18747782  0.93661702  1
  Zn  Zn161  1  0.93374503  0.69058385  0.44121474  1
  Zn  Zn162  1  0.94080755  0.68666382  0.93576823  1
  Zn  Zn163  1  0.06378958  0.31220289  0.06567175  1
  Zn  Zn164  1  0.06679465  0.30648318  0.56739721  1
  Zn  Zn165  1  0.06603299  0.80978848  0.05937975  1
  Zn  Zn166  1  0.05528202  0.81401701  0.56236998  1
  Zn  Zn167  1  0.55950439  0.31668362  0.06278767  1
  Zn  Zn168  1  0.56372582  0.30885270  0.56186960  1
  Zn  Zn169  1  0.56781134  0.81626289  0.05848858  1
  Zn  Zn170  1  0.55981646  0.80863537  0.55684337  1
  O  O171  1  0.12233654  0.12199394  0.11423897  1
  O  O172  1  0.11825622  0.11963862  0.62147131  1
  O  O173  1  0.11556762  0.63435087  0.11502355  1
  O  O174  1  0.12214177  0.61819992  0.61792256  1
  O  O175  1  0.63050342  0.10990111  0.12720101  1
  O  O176  1  0.61797141  0.12921155  0.61141224  1
  O  O177  1  0.61742815  0.62146635  0.11817979  1
  O  O178  1  0.61836488  0.61692226  0.61858287  1
  O  O179  1  0.38687888  0.38414497  0.37911636  1
  O  O180  1  0.38331887  0.37310097  0.88072449  1
  O  O181  1  0.38239192  0.88183630  0.38609430  1
  O  O182  1  0.38031586  0.88347109  0.88547626  1
  O  O183  1  0.86381761  0.39281911  0.39481177  1
  O  O184  1  0.87913137  0.37749555  0.88507971  1
  O  O185  1  0.88415849  0.86927154  0.37036854  1
  O  O186  1  0.88258222  0.88342791  0.87531912  1
  O  O187  1  0.25492867  -0.00891074  0.36427282  1
  O  O188  1  0.25766803  0.00641126  0.86840696  1
  O  O189  1  0.25990560  0.50688850  0.36409632  1
  O  O190  1  0.24471159  0.49961868  0.85737703  1
  O  O191  1  0.74669006  0.00433713  0.36328416  1
  O  O192  1  0.75927589  0.00077907  0.86887987  1
  O  O193  1  0.75685032  0.51132792  0.36687219  1
  O  O194  1  0.75333663  0.50441714  0.87014523  1
  O  O195  1  0.26051938  0.49059822  0.12907710  1
  O  O196  1  0.24119931  0.49015304  0.63158791  1
  O  O197  1  0.25202337  0.98803604  0.13511982  1
  O  O198  1  0.25666495  1.00653305  0.63646274  1
  O  O199  1  0.74058827  0.50966506  0.14139924  1
  O  O200  1  0.73974222  0.49435757  0.63338123  1
  O  O201  1  0.74438300  0.99337394  0.13452366  1
  O  O202  1  0.75260977  1.00134256  0.63751958  1
  O  O203  1  0.02120911  0.38476257  0.23566521  1
  O  O204  1  0.00151527  0.36813649  0.75879867  1
  O  O205  1  -0.00151906  0.86767448  0.25881313  1
  O  O206  1  0.00889675  0.88190682  0.76369674  1
  O  O207  1  0.51350249  0.36823315  0.26013624  1
  O  O208  1  0.51222731  0.36421713  0.74005812  1
  O  O209  1  0.51032406  0.87366196  0.25971753  1
  O  O210  1  0.50610916  0.87194381  0.75482382  1
  O  O211  1  0.51460403  0.14108588  0.25124537  1
  O  O212  1  0.50753288  0.13245035  0.73694231  1
  O  O213  1  0.50391092  0.63107489  0.23763335  1
  O  O214  1  0.50124357  0.63421052  0.73565392  1
  O  O215  1  0.99167422  0.12347132  0.24650159  1
  O  O216  1  0.98509715  0.13105467  0.75743402  1
  O  O217  1  0.99589857  0.62975585  0.24277520  1
  O  O218  1  0.98770315  0.62115416  0.75447147  1
  O  O219  1  0.37613389  0.24344894  0.01664642  1
  O  O220  1  0.38226118  0.26607078  0.49754998  1
  O  O221  1  0.36299481  0.75869717  -0.00460136  1
  O  O222  1  0.36524885  0.75721599  0.50553918  1
  O  O223  1  0.86752529  0.25557120  0.00461576  1
  O  O224  1  0.87470844  0.27237530  0.50088579  1
  O  O225  1  0.87101915  0.75551138  0.00201974  1
  O  O226  1  0.86093691  0.74328457  0.51495344  1
  O  O227  1  0.10081137  0.26886399  0.46882795  1
  O  O228  1  0.12678216  0.23851562  0.99771512  1
  O  O229  1  0.12895887  0.74666853  0.49682628  1
  O  O230  1  0.13447451  0.74242984  0.99049682  1
  O  O231  1  0.63157587  0.24122107  0.49392972  1
  O  O232  1  0.62961498  0.25210109  0.99432751  1
  O  O233  1  0.63744589  0.73725519  0.50797622  1
  O  O234  1  0.63265824  0.74451658  0.99240874  1
  O  O235  1  0.49518910  0.25166730  0.13513593  1
  O  O236  1  0.49927499  0.24155896  0.63158204  1
  O  O237  1  0.50628329  0.74306276  0.12404374  1
  O  O238  1  0.48778499  0.74358985  0.62585685  1
  O  O239  1  0.98576173  0.24931615  0.12733276  1
  O  O240  1  0.99396955  0.25749109  0.64031083  1
  O  O241  1  0.99454500  0.74362508  0.12874603  1
  O  O242  1  0.98169680  0.74626652  0.62241108  1
  O  O243  1  -0.03039436  0.27052185  0.35666715  1
  O  O244  1  -0.00169281  0.26097196  0.87058288  1
  O  O245  1  0.00199676  0.75500505  0.37074258  1
  O  O246  1  0.01051096  0.75947229  0.87920866  1
  O  O247  1  0.51310752  0.25848994  0.36870362  1
  O  O248  1  0.51023165  0.24203451  0.86642608  1
  O  O249  1  0.50192758  0.76242403  0.38617571  1
  O  O250  1  0.50632743  0.75815053  0.86837185  1
  O  O251  1  0.24219062  0.14105204  0.49527251  1
  O  O252  1  0.24405196  0.12428835  0.99249631  1
  O  O253  1  0.24064233  0.63777976  0.49956266  1
  O  O254  1  0.24598079  0.63362898  1.00345721  1
  O  O255  1  0.74767439  0.12229233  0.49615527  1
  O  O256  1  0.74723913  0.13788119  0.99783484  1
  O  O257  1  0.74172664  0.62844943  0.49546215  1
  O  O258  1  0.74201388  0.63104928  0.99407299  1
  O  O259  1  0.24710509  0.37404425  0.01159092  1
  O  O260  1  0.25935479  0.37561813  0.50644672  1
  O  O261  1  0.25594167  0.87138402  0.00562712  1
  O  O262  1  0.25612536  0.86356311  0.49685392  1
  O  O263  1  0.75720450  0.36228758  -0.00547362  1
  O  O264  1  0.75632841  0.37666485  0.51255527  1
  O  O265  1  0.75715996  0.86975746  0.00361400  1
  O  O266  1  0.74252317  0.85706113  0.49549501  1
  O  O267  1  0.14101613  0.50000784  0.24596365  1
  O  O268  1  0.13274180  0.49266325  0.74286215  1
  O  O269  1  0.13143120  0.99509976  0.24778583  1
  O  O270  1  0.13350852  0.99100620  0.74843353  1
  O  O271  1  0.63195472  0.49528857  0.24500548  1
  O  O272  1  0.62811154  0.49200904  0.74166526  1
  O  O273  1  0.63341252  0.99255001  0.24278033  1
  O  O274  1  0.63520937  0.99291298  0.75357498  1
  O  O275  1  0.36556491  -0.00121655  0.26386338  1
  O  O276  1  0.36717272  -0.00837367  0.76100270  1
  O  O277  1  0.36750601  0.50142420  0.26027473  1
  O  O278  1  0.36019218  0.49822996  0.74138813  1
  O  O279  1  0.86617595  0.01007242  0.24172907  1
  O  O280  1  0.86885544  0.00904020  0.75612925  1
  O  O281  1  0.86778304  0.50282923  0.25859525  1
  O  O282  1  0.86845231  0.50644791  0.75771088  1
  O  O283  1  0.13015531  0.39061498  0.35392285  1
  O  O284  1  0.11542009  0.37317835  0.87029501  1
  O  O285  1  0.11480826  0.86134077  0.37377740  1
  O  O286  1  0.11892322  0.86788235  0.87066439  1
  O  O287  1  0.62371663  0.37296375  0.37176743  1
  O  O288  1  0.62894925  0.36626663  0.86317355  1
  O  O289  1  0.61504768  0.87981947  0.36545386  1
  O  O290  1  0.61745168  0.87084575  0.87010067  1
  O  O291  1  0.36965336  0.13938382  0.14811755  1
  O  O292  1  0.39052491  0.12794808  0.61425477  1
  O  O293  1  0.39595814  0.62346549  0.12565305  1
  O  O294  1  0.38098040  0.63086208  0.62486614  1
  O  O295  1  0.87648951  0.13145909  0.12988206  1
  O  O296  1  0.87205024  0.12581733  0.63909802  1
  O  O297  1  0.88034059  0.63091221  0.12889578  1
  O  O298  1  0.87637031  0.62757248  0.63607505  1
  O  O299  1  0.25895052  0.26391499  0.12433310  1
  O  O300  1  0.25201647  0.26581328  0.63606344  1
  O  O301  1  0.24539061  0.76405621  0.11603409  1
  O  O302  1  0.26107768  0.74647009  0.62036557  1
  O  O303  1  0.76028054  0.24812050  0.11601382  1
  O  O304  1  0.74579085  0.26344254  0.62820522  1
  O  O305  1  0.75624111  0.75472689  0.11757715  1
  O  O306  1  0.75754049  0.74431904  0.61426448  1
  O  O307  1  0.27215061  0.23374088  0.33549503  1
  O  O308  1  0.25062569  0.24085452  0.87572890  1
  O  O309  1  0.23768902  0.74934970  0.38526082  1
  O  O310  1  0.24175351  0.75139012  0.88493544  1
  O  O311  1  0.75115535  0.23925554  0.38100827  1
  O  O312  1  0.73710087  0.24716974  0.88154244  1
  O  O313  1  0.75756545  0.73520023  0.38904206  1
  O  O314  1  0.74505470  0.74557633  0.87760331  1
  O  O315  1  0.00783418  0.11703496  -0.00240777  1
  O  O316  1  -0.01248955  0.10549828  0.49870433  1
  O  O317  1  0.00911039  0.62485396  0.00671860  1
  O  O318  1  0.01293527  0.62907267  0.50036371  1
  O  O319  1  0.50285390  0.11968872  0.01322088  1
  O  O320  1  0.50968548  0.11852663  0.50221186  1
  O  O321  1  0.51332723  0.63363705  0.00970935  1
  O  O322  1  0.50805115  0.62982587  0.51127989  1
  O  O323  1  0.49861513  0.37417492  0.48749457  1
  O  O324  1  0.50106351  0.38811234  0.99989097  1
  O  O325  1  0.49396501  0.88282217  0.49464998  1
  O  O326  1  0.49324758  0.87874620  0.99422986  1
  O  O327  1  0.98558222  0.38309910  0.50844484  1
  O  O328  1  0.99271516  0.37551836  0.99497321  1
  O  O329  1  0.99478565  0.87345839  0.48572785  1
  O  O330  1  0.99626775  0.88064476  0.99020043  1
  O  O331  1  0.49422602  0.49277262  0.36898497  1
  O  O332  1  0.50098976  0.49281503  0.87052043  1
  O  O333  1  0.49307733  0.99491269  0.38343278  1
  O  O334  1  0.49226181  0.99501861  0.87531377  1
  O  O335  1  0.98542391  0.49850662  0.37017943  1
  O  O336  1  0.99275313  0.48744409  0.87760758  1
  O  O337  1  0.99920977  0.98385329  0.38160409  1
  O  O338  1  0.99390542  0.99404029  0.88375358  1
  O  O339  1  -0.00038648  -0.00191551  0.10891074  1
  O  O340  1  -0.00534720  -0.01246409  0.61009769  1
  O  O341  1  -0.00679872  0.51566569  0.12160404  1
  O  O342  1  0.01526574  0.50291337  0.63265468  1
  O  O343  1  0.51700368  0.00067373  0.13064715  1
  O  O344  1  0.49485950  0.00641396  0.61008577  1
  O  O345  1  0.51355594  0.51235226  0.13376849  1
  O  O346  1  0.50884620  0.50816117  0.62912248  1
  O  O347  1  0.24141039  0.38743176  0.23867861  1
  O  O348  1  0.24474609  0.38367958  0.74445536  1
  O  O349  1  0.24516116  0.88042786  0.24281599  1
  O  O350  1  0.24082364  0.88573772  0.75687872  1
  O  O351  1  0.73898473  0.38490687  0.25824180  1
  O  O352  1  0.74246009  0.38016916  0.74489415  1
  O  O353  1  0.74638283  0.88081624  0.24687996  1
  O  O354  1  0.73932229  0.88612339  0.75394355  1
  O  O355  1  0.24426516  0.11219164  0.24281010  1
  O  O356  1  0.24656935  0.11684191  0.76181518  1
  O  O357  1  0.25503208  0.62043625  0.24781177  1
  O  O358  1  0.24980996  0.60757118  0.74598438  1
  O  O359  1  0.75435957  0.11466012  0.25759441  1
  O  O360  1  0.75893390  0.11828477  0.75261866  1
  O  O361  1  0.75566183  0.62103196  0.25921928  1
  O  O362  1  0.75349155  0.61806872  0.75671957  1
  O  O363  1  0.38388347  0.11885081  0.36380523  1
  O  O364  1  0.36904145  0.11259357  0.88029027  1
  O  O365  1  0.37522634  0.61869802  0.37366752  1
  O  O366  1  0.37062139  0.63561878  0.86445605  1
  O  O367  1  0.86383655  0.12566484  0.36461681  1
  O  O368  1  0.87311124  0.11274587  0.87250290  1
  O  O369  1  0.87017034  0.61519007  0.37273278  1
  O  O370  1  0.86920624  0.62054244  0.87049263  1
  O  O371  1  0.14144408  0.37573876  0.13008113  1
  O  O372  1  0.13143144  0.38087072  0.62963380  1
  O  O373  1  0.13355227  0.87865613  0.12405613  1
  O  O374  1  0.11954989  0.86977492  0.64064213  1
  O  O375  1  0.62293277  0.38511434  0.13524324  1
  O  O376  1  0.63068330  0.38144071  0.62933257  1
  O  O377  1  0.63174545  0.88321037  0.13235472  1
  O  O378  1  0.61716045  0.87115262  0.63539537  1
  O  O379  1  0.12358067  0.26878535  0.24704674  1
  O  O380  1  0.11423584  0.25619673  0.75301757  1
  O  O381  1  0.11629869  0.75008000  0.25904104  1
  O  O382  1  0.13370370  0.75550279  0.76278003  1
  O  O383  1  0.62706550  0.25851720  0.25474198  1
  O  O384  1  0.61920856  0.25594515  0.75738257  1
  O  O385  1  0.63639651  0.76279547  0.24824866  1
  O  O386  1  0.62014159  0.75701767  0.75304664  1
  O  O387  1  0.39022340  0.25353068  0.24593155  1
  O  O388  1  0.38826141  0.25474487  0.74601459  1
  O  O389  1  0.37327031  0.75336110  0.25439316  1
  O  O390  1  0.38082348  0.75626012  0.73947065  1
  O  O391  1  0.86692786  0.23493128  0.23913188  1
  O  O392  1  0.87750238  0.23518095  0.75873634  1
  O  O393  1  0.87871941  0.74088428  0.24443860  1
  O  O394  1  0.86514573  0.73882751  0.73850265  1
  O  O395  1  0.36904458  0.49166495  0.48548366  1
  O  O396  1  0.37919133  0.50255681  0.98563755  1
  O  O397  1  0.37781517  0.99461583  0.49014142  1
  O  O398  1  0.37470229  0.99324222  0.99479438  1
  O  O399  1  0.87201302  0.50148703  0.49092460  1
  O  O400  1  0.87243343  0.49115882  0.99559082  1
  O  O401  1  0.88382292  0.98933530  0.49726181  1
  O  O402  1  0.87948884  0.99521108  0.99276636  1
  O  O403  1  0.11806072  0.00902805  -0.00212735  1
  O  O404  1  0.10831903  -0.01045997  0.50606185  1
  O  O405  1  0.12587528  0.51538099  -0.00509570  1
  O  O406  1  0.13320137  0.51011420  0.50791889  1
  O  O407  1  0.62700363  -0.00235500  0.01581946  1
  O  O408  1  0.61551642  0.00775721  0.49508915  1
  O  O409  1  0.63526749  0.51083577  0.01151246  1
  O  O410  1  0.63091038  0.50763015  0.51138414  1
  O  O411  1  0.36334405  0.36811201  0.13498568  1
  O  O412  1  0.36825524  0.37562163  0.61332845  1
  O  O413  1  0.36992504  0.87454846  0.11228208  1
  O  O414  1  0.38015685  0.86799471  0.61073707  1
  O  O415  1  0.87525108  0.36924017  0.11386092  1
  O  O416  1  0.86404909  0.38894044  0.61619537  1
  O  O417  1  0.87015147  0.86847526  0.11877670  1
  O  O418  1  0.87053953  0.85836489  0.63683136  1
  O  O419  1  0.10875929  0.13257470  0.38919668  1
  O  O420  1  0.13435677  0.12480489  0.88124456  1
  O  O421  1  0.12472396  0.63502000  0.38098782  1
  O  O422  1  0.12948846  0.63233588  0.88121106  1
  O  O423  1  0.63726474  0.12878339  0.38489910  1
  O  O424  1  0.62675381  0.13286797  0.87999628  1
  O  O425  1  0.63245719  0.61891754  0.38714017  1
  O  O426  1  0.62762478  0.63035988  0.88084706  1
