# generated using pymatgen
data_V85Zn86O256
_symmetry_space_group_name_H-M   'P 1'
_cell_length_a   16.92983971
_cell_length_b   16.92477050
_cell_length_c   16.92345628
_cell_angle_alpha   89.97589653
_cell_angle_beta   90.03319750
_cell_angle_gamma   89.99065613
_symmetry_Int_Tables_number   1
_chemical_formula_structural   V85Zn86O256
_chemical_formula_sum   'V85 Zn86 O256'
_cell_volume   4849.13842175
_cell_formula_units_Z   1
loop_
 _symmetry_equiv_pos_site_id
 _symmetry_equiv_pos_as_xyz
  1  'x, y, z'
loop_
 _atom_site_type_symbol
 _atom_site_label
 _atom_site_symmetry_multiplicity
 _atom_site_fract_x
 _atom_site_fract_y
 _atom_site_fract_z
 _atom_site_occupancy
  V  V0  1  0.93506300  0.18107614  0.79547467  1
  V  V1  1  0.62432895  0.62438046  0.00055604  1
  V  V2  1  0.36476562  0.13713814  0.25314836  1
  V  V3  1  -0.00003967  0.75164245  0.24942910  1
  V  V4  1  0.75161867  -0.00183147  0.25524773  1
  V  V5  1  0.75192335  0.86632473  0.62394429  1
  V  V6  1  0.37255844  0.49058426  0.87890946  1
  V  V7  1  0.00740067  0.86709243  0.88660498  1
  V  V8  1  0.37983963  0.75355230  0.12679838  1
  V  V9  1  0.25034795  0.87875473  0.12511206  1
  V  V10  1  0.38546595  0.62654982  0.75264441  1
  V  V11  1  0.12148032  0.62951030  -0.01146541  1
  V  V12  1  0.49952837  0.86578129  0.87085268  1
  V  V13  1  0.62736862  0.37177800  0.24584705  1
  V  V14  1  0.75205449  0.87658365  0.12269292  1
  V  V15  1  0.13158738  0.24192678  0.37270165  1
  V  V16  1  0.25836894  0.37983218  0.11467565  1
  V  V17  1  0.74697664  0.12003948  0.38334858  1
  V  V18  1  0.12806606  0.37737315  0.25336747  1
  V  V19  1  0.50095128  0.00297350  -0.00052604  1
  V  V20  1  0.62447406  -0.00015706  0.12514277  1
  V  V21  1  0.50837389  0.12162597  0.61846668  1
  V  V22  1  0.75028353  0.26326333  0.00513071  1
  V  V23  1  0.50344428  0.62713603  0.12896226  1
  V  V24  1  0.87488453  0.75231182  0.12069697  1
  V  V25  1  0.25004531  0.63074888  0.87374305  1
  V  V26  1  0.62495376  0.37308376  0.74245940  1
  V  V27  1  0.25440880  0.24323213  0.49384356  1
  V  V28  1  0.37828196  0.25748850  0.11545096  1
  V  V29  1  0.38327595  0.50342835  0.37960866  1
  V  V30  1  0.74721213  0.49551319  0.73939804  1
  V  V31  1  0.37391285  0.12510651  0.74896878  1
  V  V32  1  -0.00766493  0.49229165  0.00151502  1
  V  V33  1  0.49626347  0.49239359  0.00245365  1
  V  V34  1  0.86895330  0.86983879  0.49090014  1
  V  V35  1  0.12671916  0.50610373  0.12598158  1
  V  V36  1  0.12030121  0.00123736  0.11001061  1
  V  V37  1  0.49962375  0.12938930  0.13252275  1
  V  V38  1  0.38254911  0.37969715  0.50134562  1
  V  V39  1  0.37008762  0.87487663  0.49509776  1
  V  V40  1  0.23968981  0.37885187  0.62133808  1
  V  V41  1  0.37554932  0.87574838  -0.00000072  1
  V  V42  1  0.12767095  0.75222424  0.37678667  1
  V  V43  1  0.37572465  0.00090001  0.87162951  1
  V  V44  1  0.62492243  0.24685152  0.87613472  1
  V  V45  1  -0.00589362  -0.00281754  0.49064614  1
  V  V46  1  0.37977816  0.63301607  0.25241311  1
  V  V47  1  0.87675006  -0.01627212  0.88631159  1
  V  V48  1  0.24581294  0.50076470  0.74600992  1
  V  V49  1  0.87305436  0.12236546  0.25582128  1
  V  V50  1  -0.00274173  0.11947144  0.61970050  1
  V  V51  1  0.50289011  0.37535429  0.37186859  1
  V  V52  1  0.37635866  0.25062676  0.62171285  1
  V  V53  1  0.50010916  0.24889258  0.75032206  1
  V  V54  1  0.87496774  0.62691677  0.25244086  1
  V  V55  1  0.87016941  0.26421054  0.12832637  1
  V  V56  1  0.75154027  0.63762357  0.38013612  1
  V  V57  1  0.75019815  0.62142526  0.87430541  1
  V  V58  1  0.12571622  0.87907811  0.24991714  1
  V  V59  1  0.25344596  0.50327721  0.25360868  1
  V  V60  1  0.37539768  0.75817394  0.63286305  1
  V  V61  1  0.87078612  0.37428173  0.50699859  1
  V  V62  1  0.74968581  0.75496922  -0.00316901  1
  V  V63  1  0.75897864  0.00332262  0.74764827  1
  V  V64  1  0.87379918  0.50027243  0.37807155  1
  V  V65  1  0.00198167  0.37352126  0.38016265  1
  V  V66  1  0.00623247  0.49493604  0.50618626  1
  V  V67  1  0.62082870  0.24436588  0.37305992  1
  V  V68  1  0.62330521  0.87084898  0.74787909  1
  V  V69  1  -0.00095433  0.25032210  0.25109845  1
  V  V70  1  0.75010395  0.49695986  0.24680740  1
  V  V71  1  0.74305620  0.25092415  0.50246977  1
  V  V72  1  0.12816165  0.62160652  0.50264712  1
  V  V73  1  0.60830405  0.75312991  0.37711375  1
  V  V74  1  0.50599306  -0.00418013  0.49082085  1
  V  V75  1  0.62483800  0.62105545  0.49950719  1
  V  V76  1  0.87402185  0.24355787  0.62275455  1
  V  V77  1  0.61274379  0.86961252  0.25170954  1
  V  V78  1  0.23591197  0.12723775  0.87780803  1
  V  V79  1  0.12920723  -0.01277763  0.62245605  1
  V  V80  1  -0.00171720  0.11947457  0.11846409  1
  V  V81  1  0.36606762  0.00137152  0.37216696  1
  V  V82  1  0.00322184  0.62460625  0.62575485  1
  V  V83  1  0.87455913  0.62182953  0.74807322  1
  V  V84  1  0.50103295  0.62274944  0.62126843  1
  Zn  Zn85  1  0.00485750  0.74571544  0.75861779  1
  Zn  Zn86  1  0.24561813  0.75312888  -0.00169722  1
  Zn  Zn87  1  -0.00036710  0.36253893  0.87223332  1
  Zn  Zn88  1  0.24806065  0.75385030  0.50696877  1
  Zn  Zn89  1  0.62114177  0.74669226  0.87041295  1
  Zn  Zn90  1  0.86843356  0.48716376  0.88377373  1
  Zn  Zn91  1  0.62995377  0.49546141  0.12263157  1
  Zn  Zn92  1  0.49465180  0.37075719  0.87826753  1
  Zn  Zn93  1  0.75413170  0.12515516  0.87589108  1
  Zn  Zn94  1  0.12324259  0.34681402  0.76904245  1
  Zn  Zn95  1  0.00106809  0.62774069  0.12576371  1
  Zn  Zn96  1  0.13010249  0.11950984  0.49552227  1
  Zn  Zn97  1  0.25362173  0.62771965  0.37894268  1
  Zn  Zn98  1  0.87273177  0.74674069  0.62139379  1
  Zn  Zn99  1  0.24456388  0.01097488  0.24970256  1
  Zn  Zn100  1  -0.00550977  0.87944695  0.37071739  1
  Zn  Zn101  1  0.61926300  0.49175913  0.61508882  1
  Zn  Zn102  1  0.23695145  0.25914414  -0.01643681  1
  Zn  Zn103  1  0.13004193  0.85931669  0.75288110  1
  Zn  Zn104  1  0.62818943  0.12594433  0.00166619  1
  Zn  Zn105  1  0.25144637  -0.00706887  0.74089736  1
  Zn  Zn106  1  0.62786425  -0.00081385  0.62081608  1
  Zn  Zn107  1  0.17689032  0.20137503  0.15581633  1
  Zn  Zn108  1  0.18687857  0.18001819  0.68423534  1
  Zn  Zn109  1  0.19190912  0.69056804  0.18730470  1
  Zn  Zn110  1  0.19031748  0.68680113  0.68843613  1
  Zn  Zn111  1  0.68746551  0.18783353  0.18878825  1
  Zn  Zn112  1  0.68945886  0.18508977  0.68795557  1
  Zn  Zn113  1  0.68712572  0.68840970  0.19166881  1
  Zn  Zn114  1  0.68504350  0.68780665  0.68766652  1
  Zn  Zn115  1  0.31530034  0.31359066  0.30793891  1
  Zn  Zn116  1  0.30816671  0.31179709  0.80761352  1
  Zn  Zn117  1  0.31236019  0.81660658  0.31409086  1
  Zn  Zn118  1  0.30959798  0.81286650  0.80842013  1
  Zn  Zn119  1  0.81074864  0.31143969  0.31701585  1
  Zn  Zn120  1  0.80878069  0.32009917  0.81887516  1
  Zn  Zn121  1  0.80830063  0.81339865  0.31005328  1
  Zn  Zn122  1  0.81495217  0.80987062  0.80917925  1
  Zn  Zn123  1  0.19204717  0.43472302  0.43950342  1
  Zn  Zn124  1  0.17926070  0.44047947  0.93271506  1
  Zn  Zn125  1  0.18859915  0.93815369  0.43795560  1
  Zn  Zn126  1  0.19123792  0.93958085  0.93344487  1
  Zn  Zn127  1  0.68965601  0.43901076  0.43485187  1
  Zn  Zn128  1  0.68074713  0.43680899  0.93151887  1
  Zn  Zn129  1  0.68674374  0.93217065  0.43619326  1
  Zn  Zn130  1  0.68709838  0.93848437  0.93451599  1
  Zn  Zn131  1  0.31027731  0.06583110  0.06182750  1
  Zn  Zn132  1  0.31553519  0.06125756  0.56095487  1
  Zn  Zn133  1  0.31311784  0.56591817  0.06158396  1
  Zn  Zn134  1  0.31448996  0.56508239  0.56376084  1
  Zn  Zn135  1  0.80951217  0.07004948  0.06299222  1
  Zn  Zn136  1  0.81478356  0.05749150  0.56193722  1
  Zn  Zn137  1  0.81173869  0.56649488  0.06624893  1
  Zn  Zn138  1  0.81036871  0.56328903  0.56172076  1
  Zn  Zn139  1  0.44137363  0.43970337  0.19098377  1
  Zn  Zn140  1  0.43760424  0.43960374  0.68917964  1
  Zn  Zn141  1  0.43507938  0.94451257  0.19031256  1
  Zn  Zn142  1  0.44012372  0.93765819  0.68540221  1
  Zn  Zn143  1  0.94146482  0.44124842  0.19047047  1
  Zn  Zn144  1  0.93607931  0.43134304  0.68894788  1
  Zn  Zn145  1  0.93452214  0.93802539  0.18615334  1
  Zn  Zn146  1  0.94171463  0.93024535  0.68850442  1
  Zn  Zn147  1  0.06180419  0.06337885  0.30889143  1
  Zn  Zn148  1  0.06257774  0.04457456  0.81256651  1
  Zn  Zn149  1  0.06177916  0.56503448  0.31764986  1
  Zn  Zn150  1  0.04457259  0.52236723  0.79409998  1
  Zn  Zn151  1  0.56147919  0.06119712  0.31142568  1
  Zn  Zn152  1  0.56488510  0.05958902  0.80841365  1
  Zn  Zn153  1  0.56438491  0.56269386  0.31301935  1
  Zn  Zn154  1  0.56188971  0.55867918  0.81337879  1
  Zn  Zn155  1  0.44016566  0.18491981  0.43466134  1
  Zn  Zn156  1  0.43498866  0.18734537  0.94050287  1
  Zn  Zn157  1  0.43914247  0.68869820  0.44397360  1
  Zn  Zn158  1  0.43451959  0.68446023  0.94198468  1
  Zn  Zn159  1  0.93638134  0.18636628  0.43744286  1
  Zn  Zn160  1  0.93074157  0.18853989  0.95541006  1
  Zn  Zn161  1  0.94123275  0.69033773  0.43880013  1
  Zn  Zn162  1  0.93546604  0.68335684  0.93828331  1
  Zn  Zn163  1  0.06616161  0.31343812  0.06338355  1
  Zn  Zn164  1  0.07778625  0.29573881  0.58794985  1
  Zn  Zn165  1  0.06097349  0.81420820  0.05960069  1
  Zn  Zn166  1  0.05592566  0.80889669  0.56087341  1
  Zn  Zn167  1  0.56387618  0.31163166  0.06379640  1
  Zn  Zn168  1  0.56067379  0.31047483  0.55940538  1
  Zn  Zn169  1  0.56320876  0.81276655  0.06106822  1
  Zn  Zn170  1  0.55882502  0.81124182  0.56146398  1
  O  O171  1  0.10515590  0.11173442  0.14312623  1
  O  O172  1  0.11096003  0.11301768  0.61730413  1
  O  O173  1  0.12834965  0.61611402  0.12206692  1
  O  O174  1  0.11843192  0.62482830  0.61053068  1
  O  O175  1  0.61650180  0.11972685  0.12660937  1
  O  O176  1  0.61213758  0.12086519  0.62872851  1
  O  O177  1  0.61777349  0.62499451  0.12174206  1
  O  O178  1  0.61840356  0.62829857  0.61546458  1
  O  O179  1  0.38431342  0.38228947  0.37812040  1
  O  O180  1  0.37239922  0.38654987  0.87085939  1
  O  O181  1  0.37573377  0.88627948  0.38044915  1
  O  O182  1  0.38163074  0.88288236  0.87810765  1
  O  O183  1  0.88133140  0.37757618  0.38651677  1
  O  O184  1  0.88681435  0.37600972  0.87325793  1
  O  O185  1  0.87211762  0.87282954  0.38620119  1
  O  O186  1  0.87705280  0.88014854  0.87915937  1
  O  O187  1  0.26118210  0.00328406  0.37287075  1
  O  O188  1  0.26407537  0.00988469  0.87277547  1
  O  O189  1  0.26285081  0.50171957  0.36849389  1
  O  O190  1  0.25640083  0.50854668  0.87045231  1
  O  O191  1  0.74211412  0.00734961  0.36714056  1
  O  O192  1  0.76039257  -0.00051381  0.86576673  1
  O  O193  1  0.75664933  0.51057084  0.36746470  1
  O  O194  1  0.74906314  0.50667203  0.86750282  1
  O  O195  1  0.24791582  0.49881873  0.13307626  1
  O  O196  1  0.26723809  0.48911311  0.63526862  1
  O  O197  1  0.24061421  0.99668271  0.12649253  1
  O  O198  1  0.23297230  1.00596235  0.61970778  1
  O  O199  1  0.74921032  0.50637287  0.14183862  1
  O  O200  1  0.74187400  0.50480551  0.63620410  1
  O  O201  1  0.74457356  0.99410328  0.12970423  1
  O  O202  1  0.74949358  0.99207586  0.63466110  1
  O  O203  1  0.00747903  0.37122383  0.25867650  1
  O  O204  1  0.01978283  0.41092758  0.75958308  1
  O  O205  1  0.00586137  0.87008819  0.25084431  1
  O  O206  1  0.00138283  0.86912514  0.76384124  1
  O  O207  1  0.50941344  0.37907208  0.26403591  1
  O  O208  1  0.50450315  0.36556070  0.75260427  1
  O  O209  1  0.51390976  0.88029046  0.24308114  1
  O  O210  1  0.50920369  0.88259046  0.75972675  1
  O  O211  1  0.49001962  0.11823006  0.23693456  1
  O  O212  1  0.49347976  0.12866894  0.74186230  1
  O  O213  1  0.49395964  0.62041818  0.23779098  1
  O  O214  1  0.49095546  0.62399653  0.74785958  1
  O  O215  1  0.98811353  0.13088907  0.24922315  1
  O  O216  1  0.99871851  0.11970280  0.74227341  1
  O  O217  1  0.99376468  0.63271324  0.24960021  1
  O  O218  1  0.99098653  0.61418330  0.74110650  1
  O  O219  1  0.36467158  0.24786881  0.01293672  1
  O  O220  1  0.37285584  0.25675582  0.50057833  1
  O  O221  1  0.37300175  0.75738610  0.00989195  1
  O  O222  1  0.37448405  0.75897720  0.50726874  1
  O  O223  1  0.86043043  0.25385857  0.01254043  1
  O  O224  1  0.86432854  0.25494870  0.50320962  1
  O  O225  1  0.86474353  0.74165703  0.01345488  1
  O  O226  1  0.87758129  0.76482682  0.50056668  1
  O  O227  1  0.13681365  0.24829708  0.49120080  1
  O  O228  1  0.14660335  0.24103435  1.04806601  1
  O  O229  1  0.12613529  0.74419633  0.49259802  1
  O  O230  1  0.12741297  0.73323137  1.00889793  1
  O  O231  1  0.63651103  0.25348166  0.49334298  1
  O  O232  1  0.63186427  0.24906587  0.99367396  1
  O  O233  1  0.61994980  0.74317546  0.48504313  1
  O  O234  1  0.63290958  0.74259864  0.99757103  1
  O  O235  1  0.49176124  0.24218800  0.12053426  1
  O  O236  1  0.49466841  0.24033994  0.62689068  1
  O  O237  1  0.48884026  0.74356594  0.12086733  1
  O  O238  1  0.48682473  0.73877383  0.62088959  1
  O  O239  1  0.98992462  0.24162233  0.13365783  1
  O  O240  1  0.98194654  0.23531727  0.61089084  1
  O  O241  1  0.99040899  0.75157192  0.13022090  1
  O  O242  1  0.99471857  0.73293441  0.62332532  1
  O  O243  1  0.00724687  0.25474046  0.37077716  1
  O  O244  1  -0.00992977  0.23509458  0.86233756  1
  O  O245  1  0.01186244  0.75282839  0.36788269  1
  O  O246  1  -0.00750370  0.76230434  0.87865761  1
  O  O247  1  0.51334907  0.25699409  0.38072356  1
  O  O248  1  0.50481452  0.25010604  0.87089891  1
  O  O249  1  0.50993618  0.74577225  0.37104841  1
  O  O250  1  0.49839206  0.76266532  0.88177764  1
  O  O251  1  0.25351039  0.13933419  0.50128998  1
  O  O252  1  0.25459175  0.12489473  0.97943810  1
  O  O253  1  0.24210378  0.62672903  0.49792359  1
  O  O254  1  0.23925168  0.62433239  0.99299193  1
  O  O255  1  0.75482939  0.12891166  0.48889320  1
  O  O256  1  0.74695487  0.13786120  0.99511911  1
  O  O257  1  0.74231341  0.62426557  0.49081702  1
  O  O258  1  0.74452003  0.63123478  0.99382898  1
  O  O259  1  0.24765822  0.38028722  0.01214619  1
  O  O260  1  0.26648772  0.36817561  0.50135347  1
  O  O261  1  0.25755628  0.87448353  0.00516514  1
  O  O262  1  0.26436505  0.87429985  0.49849053  1
  O  O263  1  0.74029682  0.36277532  -0.00111752  1
  O  O264  1  0.75882680  0.36528231  0.49505911  1
  O  O265  1  0.74278069  0.86302179  0.00664666  1
  O  O266  1  0.76142204  0.88175947  0.50766536  1
  O  O267  1  0.13370230  0.50104318  0.24758603  1
  O  O268  1  0.14793516  0.51816733  0.74682116  1
  O  O269  1  0.12495600  0.98858875  0.24727901  1
  O  O270  1  0.12352123  0.99470786  0.72988431  1
  O  O271  1  0.63416890  0.49257500  0.25178801  1
  O  O272  1  0.62944206  0.48936359  0.74988609  1
  O  O273  1  0.63316001  0.99296773  0.24482360  1
  O  O274  1  0.63761040  0.98845599  0.74953423  1
  O  O275  1  0.37017175  0.01233401  0.25586413  1
  O  O276  1  0.37602910  0.00758759  0.75488626  1
  O  O277  1  0.37110923  0.51220084  0.25615186  1
  O  O278  1  0.37102421  0.50764926  0.76038384  1
  O  O279  1  0.86038471  0.00623009  0.24692814  1
  O  O280  1  0.86205286  -0.00847507  0.75747804  1
  O  O281  1  0.87089387  0.50603180  0.25820966  1
  O  O282  1  0.86336645  0.50762442  0.74883042  1
  O  O283  1  0.12142984  0.36789355  0.37108962  1
  O  O284  1  0.11661657  0.36467320  0.88055747  1
  O  O285  1  0.12387811  0.86942166  0.36698996  1
  O  O286  1  0.11060496  0.88208673  0.87631158  1
  O  O287  1  0.61884719  0.36955310  0.37084769  1
  O  O288  1  0.61974879  0.36196806  0.86400729  1
  O  O289  1  0.62643898  0.86065799  0.36859150  1
  O  O290  1  0.61579835  0.87411939  0.86816651  1
  O  O291  1  0.37967441  0.13384189  0.13256616  1
  O  O292  1  0.38176952  0.12782246  0.63411862  1
  O  O293  1  0.38115986  0.63376424  0.13205327  1
  O  O294  1  0.38337469  0.63145299  0.63296350  1
  O  O295  1  0.88150293  0.12989739  0.13637745  1
  O  O296  1  0.88576887  0.12630854  0.62364107  1
  O  O297  1  0.87549655  0.63578157  0.13543206  1
  O  O298  1  0.88053643  0.62477061  0.63075216  1
  O  O299  1  0.26789706  0.27131330  0.14385488  1
  O  O300  1  0.26067607  0.25922834  0.61345002  1
  O  O301  1  0.26302628  0.75817904  0.12422184  1
  O  O302  1  0.27167088  0.74074988  0.62308405  1
  O  O303  1  0.75484547  0.24761547  0.11489293  1
  O  O304  1  0.76124050  0.23803606  0.61519788  1
  O  O305  1  0.75424099  0.75666200  0.11964123  1
  O  O306  1  0.75152570  0.76228554  0.62824294  1
  O  O307  1  0.24311110  0.25908315  0.38063079  1
  O  O308  1  0.24989496  0.23451409  0.86975573  1
  O  O309  1  0.23810825  0.74931430  0.37549464  1
  O  O310  1  0.25877314  0.73433470  0.87894768  1
  O  O311  1  0.74151083  0.24140180  0.38329120  1
  O  O312  1  0.74276080  0.24812871  0.88488763  1
  O  O313  1  0.74331482  0.73984100  0.37166450  1
  O  O314  1  0.75038177  0.74264110  0.88292246  1
  O  O315  1  -0.00108596  0.12560963  0.01925249  1
  O  O316  1  -0.00137877  0.11413836  0.50359356  1
  O  O317  1  0.01020224  0.62009475  0.00536239  1
  O  O318  1  0.00626992  0.61694839  0.50420618  1
  O  O319  1  0.49968753  0.11795007  0.01044746  1
  O  O320  1  0.49176507  0.11047127  0.50777780  1
  O  O321  1  0.50480935  0.61861447  0.01042095  1
  O  O322  1  0.50976915  0.62485547  0.50851175  1
  O  O323  1  0.49070046  0.37330527  0.48994547  1
  O  O324  1  0.50442722  0.38848918  0.99965167  1
  O  O325  1  0.48907692  0.88954297  0.50351696  1
  O  O326  1  0.49588919  0.88354985  0.99311511  1
  O  O327  1  0.99397031  0.38100826  0.49745369  1
  O  O328  1  1.00405715  0.38998962  1.00727511  1
  O  O329  1  0.98726622  0.87957223  0.49589822  1
  O  O330  1  0.99836403  0.87547336  0.98718078  1
  O  O331  1  0.49070082  0.49378421  0.37191665  1
  O  O332  1  0.49079679  0.49860946  0.88420362  1
  O  O333  1  0.49014997  1.00669367  0.38619908  1
  O  O334  1  0.49091425  0.99669760  0.87923360  1
  O  O335  1  0.99240131  0.49577909  0.38471936  1
  O  O336  1  0.99485928  0.50831369  0.89798703  1
  O  O337  1  1.00388010  0.99910421  0.38624653  1
  O  O338  1  0.98315538  0.98747922  0.87169404  1
  O  O339  1  0.00194206  0.01092980  0.12901689  1
  O  O340  1  0.00506061  0.00150852  0.61459008  1
  O  O341  1  0.00976557  0.50468084  0.12004407  1
  O  O342  1  -0.00609471  0.50856049  0.61112476  1
  O  O343  1  0.50501700  0.00661610  0.11856636  1
  O  O344  1  0.50069756  0.00620385  0.61300628  1
  O  O345  1  0.50185418  0.50921867  0.11880598  1
  O  O346  1  0.50196199  0.51575680  0.63085249  1
  O  O347  1  0.24925678  0.39127961  0.24724188  1
  O  O348  1  0.24376574  0.38215689  0.73984403  1
  O  O349  1  0.24163595  0.87867163  0.24249607  1
  O  O350  1  0.24279928  0.88182130  0.75644102  1
  O  O351  1  0.74099826  0.38545475  0.26177904  1
  O  O352  1  0.73862627  0.38351499  0.75204547  1
  O  O353  1  0.74219773  0.88229270  0.24305195  1
  O  O354  1  0.74589091  0.88173883  0.74342378  1
  O  O355  1  0.26385409  0.13086786  0.23958536  1
  O  O356  1  0.25811498  0.11992205  0.75439252  1
  O  O357  1  0.25894226  0.61736080  0.25263257  1
  O  O358  1  0.26579776  0.62087705  0.75607606  1
  O  O359  1  0.75417879  0.11715270  0.25753877  1
  O  O360  1  0.74591154  0.10699608  0.75333951  1
  O  O361  1  0.75609123  0.62003346  0.25956124  1
  O  O362  1  0.75248025  0.61855331  0.75658426  1
  O  O363  1  0.37846360  0.12200654  0.35904640  1
  O  O364  1  0.37555565  0.11941312  0.86241386  1
  O  O365  1  0.37772840  0.62055281  0.36964318  1
  O  O366  1  0.37050435  0.61780530  0.87003118  1
  O  O367  1  0.86396501  0.13026730  0.36341394  1
  O  O368  1  0.88073148  0.12262970  0.86452759  1
  O  O369  1  0.86884596  0.62336708  0.37334073  1
  O  O370  1  0.86289442  0.61866609  0.86973081  1
  O  O371  1  0.13497538  0.39193731  0.13486695  1
  O  O372  1  0.14385853  0.39223325  0.59699888  1
  O  O373  1  0.12776583  0.88199795  0.13091856  1
  O  O374  1  0.11956695  0.88520250  0.61882339  1
  O  O375  1  0.61977869  0.37607873  0.14170652  1
  O  O376  1  0.61749315  0.37381436  0.63660216  1
  O  O377  1  0.63429534  0.87676087  0.13127038  1
  O  O378  1  0.63081267  0.87610785  0.62932082  1
  O  O379  1  0.12110167  0.25810112  0.25459798  1
  O  O380  1  0.11715470  0.26488874  0.69497552  1
  O  O381  1  0.12185301  0.75986265  0.25363764  1
  O  O382  1  0.11785976  0.74547524  0.74525566  1
  O  O383  1  0.63267894  0.25905311  0.26133888  1
  O  O384  1  0.62165019  0.25365794  0.75515985  1
  O  O385  1  0.62830230  0.75720547  0.26286078  1
  O  O386  1  0.62930500  0.76487942  0.75326248  1
  O  O387  1  0.38108757  0.24036372  0.24604076  1
  O  O388  1  0.37981605  0.24340544  0.74301629  1
  O  O389  1  0.37172210  0.73952837  0.24626310  1
  O  O390  1  0.37785788  0.74446457  0.74029928  1
  O  O391  1  0.87565975  0.24244517  0.24708578  1
  O  O392  1  0.87149668  0.24552736  0.74286359  1
  O  O393  1  0.87810059  0.74790267  0.24185722  1
  O  O394  1  0.87779534  0.73253828  0.74877766  1
  O  O395  1  0.37244323  0.49329062  0.49002165  1
  O  O396  1  0.38380650  0.50789399  0.99148055  1
  O  O397  1  0.38004806  0.99490053  0.49176718  1
  O  O398  1  0.38048726  0.99610339  0.99268372  1
  O  O399  1  0.87876391  0.49129483  0.49712153  1
  O  O400  1  0.88888725  0.50486766  1.00848610  1
  O  O401  1  0.88350258  0.98564157  0.50262571  1
  O  O402  1  0.86584697  1.00544044  0.98297965  1
  O  O403  1  0.12716967  -0.00050099  0.01111974  1
  O  O404  1  0.11651729  -0.00047434  0.50553910  1
  O  O405  1  0.11802700  0.51073568  0.00943809  1
  O  O406  1  0.11555372  0.50897893  0.48675892  1
  O  O407  1  0.61956135  0.00223644  0.00581868  1
  O  O408  1  0.60960140  -0.00547024  0.49811876  1
  O  O409  1  0.61777980  0.50680935  0.00172529  1
  O  O410  1  0.62899289  0.51398241  0.49802810  1
  O  O411  1  0.37233237  0.37103692  0.12966649  1
  O  O412  1  0.37626232  0.36986734  0.61588557  1
  O  O413  1  0.37283071  0.87084276  0.12261487  1
  O  O414  1  0.38110217  0.86288409  0.61946480  1
  O  O415  1  0.87652190  0.36323330  0.13816104  1
  O  O416  1  0.87872414  0.36382889  0.61457784  1
  O  O417  1  0.86026914  0.86850020  0.12905767  1
  O  O418  1  0.86828591  0.87111493  0.61655370  1
  O  O419  1  0.12376214  0.13807551  0.37385038  1
  O  O420  1  0.13770568  0.11401374  0.86733012  1
  O  O421  1  0.12656636  0.63452851  0.38411325  1
  O  O422  1  0.13213710  0.61880313  0.88756482  1
  O  O423  1  0.63267785  0.13335978  0.36828871  1
  O  O424  1  0.62380591  0.13698168  0.87398718  1
  O  O425  1  0.63008966  0.63431863  0.37901883  1
  O  O426  1  0.63415485  0.62628481  0.87873872  1
