# generated using pymatgen
data_V85Zn86O256
_symmetry_space_group_name_H-M   'P 1'
_cell_length_a   16.94283884
_cell_length_b   16.92816793
_cell_length_c   16.93547418
_cell_angle_alpha   90.02543045
_cell_angle_beta   90.01034376
_cell_angle_gamma   89.94456129
_symmetry_Int_Tables_number   1
_chemical_formula_structural   V85Zn86O256
_chemical_formula_sum   'V85 Zn86 O256'
_cell_volume   4857.28119920
_cell_formula_units_Z   1
loop_
 _symmetry_equiv_pos_site_id
 _symmetry_equiv_pos_as_xyz
  1  'x, y, z'
loop_
 _atom_site_type_symbol
 _atom_site_label
 _atom_site_symmetry_multiplicity
 _atom_site_fract_x
 _atom_site_fract_y
 _atom_site_fract_z
 _atom_site_occupancy
  V  V0  1  0.63128380  0.01353479  0.11846234  1
  V  V1  1  0.87642839  0.13067955  0.25845931  1
  V  V2  1  0.87912178  0.38279419  0.50304902  1
  V  V3  1  0.50346995  0.73418178  0.75038708  1
  V  V4  1  0.74693502  0.50525491  0.26230963  1
  V  V5  1  0.24994310  0.87768083  0.62324633  1
  V  V6  1  0.74658001  0.87648626  0.12806923  1
  V  V7  1  0.62111746  0.50168346  0.13093174  1
  V  V8  1  0.49993438  0.37867276  0.37819603  1
  V  V9  1  0.12494159  0.62509663  -0.00090234  1
  V  V10  1  0.12180894  0.24608264  0.86586060  1
  V  V11  1  0.61965752  0.51014231  0.62542255  1
  V  V12  1  0.62663334  0.75068427  0.88448129  1
  V  V13  1  -0.00001076  0.74874533  0.74280890  1
  V  V14  1  0.75072754  0.62769105  0.88414804  1
  V  V15  1  0.24905261  0.12423449  0.87617936  1
  V  V16  1  0.38044875  0.37409180  0.50001878  1
  V  V17  1  0.00263953  0.75639763  0.26053295  1
  V  V18  1  0.87933282  0.14038181  0.74567375  1
  V  V19  1  0.37090039  0.48014639  0.87955359  1
  V  V20  1  0.75760016  0.24791280  0.50280710  1
  V  V21  1  0.62506541  0.62921969  0.48872963  1
  V  V22  1  0.49103947  0.48755587  -0.00024544  1
  V  V23  1  0.87486127  0.87398026  0.50029749  1
  V  V24  1  0.38070990  0.74146367  0.62415192  1
  V  V25  1  0.62384431  0.62830579  0.00475047  1
  V  V26  1  0.11859389  0.50201228  0.61719119  1
  V  V27  1  -0.00069725  0.62762115  0.12576948  1
  V  V28  1  0.52679119  -0.02877988  0.46970620  1
  V  V29  1  0.86903528  0.87329796  -0.00235632  1
  V  V30  1  0.00013395  0.13919618  0.62679189  1
  V  V31  1  0.87558529  0.00316879  0.87314510  1
  V  V32  1  0.25002479  0.37207046  0.62403813  1
  V  V33  1  0.12463562  0.49922959  0.12547967  1
  V  V34  1  0.87053036  0.62883132  0.25778176  1
  V  V35  1  0.85949459  0.75438160  0.62638295  1
  V  V36  1  0.24166508  0.62717357  0.37212010  1
  V  V37  1  0.88161344  0.25364308  0.13097408  1
  V  V38  1  0.37813991  0.87326816  0.49088150  1
  V  V39  1  0.12601547  0.11948528  0.50337479  1
  V  V40  1  0.25140625  0.37138804  0.11391937  1
  V  V41  1  0.50343885  0.11725190  0.61923737  1
  V  V42  1  0.25572066  -0.00065351  0.24523219  1
  V  V43  1  0.75061038  0.37484854  0.12865663  1
  V  V44  1  0.36820678  0.75844511  0.12836004  1
  V  V45  1  0.12789526  0.13063919  0.00253592  1
  V  V46  1  0.12413256  0.88272997  0.74281023  1
  V  V47  1  0.24789494  0.49858826  0.74859705  1
  V  V48  1  0.00323520  0.12893900  0.13164052  1
  V  V49  1  0.75246747  0.37354875  0.62571695  1
  V  V50  1  -0.00212735  0.36735069  0.87097947  1
  V  V51  1  0.87292108  0.75148865  0.12090463  1
  V  V52  1  0.62785418  -0.00745211  0.62431385  1
  V  V53  1  0.62578019  0.87168740  0.74937921  1
  V  V54  1  0.74670872  0.13241890  0.87791968  1
  V  V55  1  0.49737720  0.12609829  0.13071306  1
  V  V56  1  0.24885236  0.76052099  -0.00114203  1
  V  V57  1  0.12696382  -0.01110708  0.12215024  1
  V  V58  1  0.62430396  0.37713492  0.25588708  1
  V  V59  1  0.48812110  0.24774638  0.25444201  1
  V  V60  1  0.12466071  0.87389328  0.26715461  1
  V  V61  1  0.88078287  -0.00129034  0.37500583  1
  V  V62  1  0.00134575  0.38314756  0.37723028  1
  V  V63  1  0.25506017  0.62494809  0.87393700  1
  V  V64  1  0.75374972  -0.00285972  0.74486306  1
  V  V65  1  0.74931069  0.49834806  0.75070357  1
  V  V66  1  0.87825051  0.50084576  0.87949529  1
  V  V67  1  0.37273702  0.50192134  0.37397918  1
  V  V68  1  0.12030361  0.36755241  0.24668922  1
  V  V69  1  0.12508426  0.74896446  0.87057344  1
  V  V70  1  0.63140300  0.12777953  0.49329258  1
  V  V71  1  0.00218419  -0.00459299  0.50657457  1
  V  V72  1  0.37945850  0.24664285  0.62253837  1
  V  V73  1  0.74914443  0.00577123  0.25415581  1
  V  V74  1  0.48960571  0.62620482  0.12541390  1
  V  V75  1  0.63148802  0.24818209  0.37810442  1
  V  V76  1  0.36925246  0.24977479  0.11096291  1
  V  V77  1  0.74759211  0.74978241  0.47770122  1
  V  V78  1  0.25816509  0.12411384  0.37175718  1
  V  V79  1  -0.00196496  0.87482593  0.87225273  1
  V  V80  1  0.37456507  0.11714615  0.74546487  1
  V  V81  1  0.23942531  0.74907708  0.49636166  1
  V  V82  1  0.50273591  -0.00226348  -0.00053526  1
  V  V83  1  0.87517678  0.62658521  0.75102001  1
  V  V84  1  0.11824259  0.24505486  0.37132856  1
  Zn  Zn85  1  0.24831445  -0.00061912  0.74433251  1
  Zn  Zn86  1  0.58448419  0.17976972  -0.05157378  1
  Zn  Zn87  1  0.11710016  0.36786294  0.74394543  1
  Zn  Zn88  1  -0.00000062  0.00130662  0.00069260  1
  Zn  Zn89  1  0.25085137  0.24616437  0.49700664  1
  Zn  Zn90  1  0.49936434  0.24884342  0.77378085  1
  Zn  Zn91  1  0.11408458  0.62418422  0.49023220  1
  Zn  Zn92  1  0.38181079  0.61820709  0.74640121  1
  Zn  Zn93  1  0.37274624  0.63084593  0.25211791  1
  Zn  Zn94  1  0.87662614  0.37520142  0.00317323  1
  Zn  Zn95  1  0.74835161  0.25200505  0.00041068  1
  Zn  Zn96  1  0.37462007  -0.00351358  0.87516942  1
  Zn  Zn97  1  0.49467336  0.51120218  0.50657034  1
  Zn  Zn98  1  0.25006134  0.49950735  0.24846544  1
  Zn  Zn99  1  0.49933539  0.87514205  0.87734649  1
  Zn  Zn100  1  -0.00769169  0.61860479  0.61640055  1
  Zn  Zn101  1  0.62349329  0.35178236  0.78907168  1
  Zn  Zn102  1  -0.00105016  0.49886892  0.00115204  1
  Zn  Zn103  1  0.37285596  0.87852826  -0.00242089  1
  Zn  Zn104  1  0.37945232  -0.00115706  0.36875600  1
  Zn  Zn105  1  0.53397036  0.77909713  0.27890396  1
  Zn  Zn106  1  0.87820211  0.50823794  0.38212393  1
  Zn  Zn107  1  0.18957847  0.18529982  0.18907445  1
  Zn  Zn108  1  0.18776173  0.18427910  0.68454959  1
  Zn  Zn109  1  0.18844052  0.69033568  0.18875581  1
  Zn  Zn110  1  0.18995687  0.68750183  0.68410840  1
  Zn  Zn111  1  0.68715011  0.18994425  0.19082842  1
  Zn  Zn112  1  0.69203861  0.18389426  0.68631816  1
  Zn  Zn113  1  0.68710728  0.68937911  0.19091573  1
  Zn  Zn114  1  0.68650005  0.68201905  0.69156784  1
  Zn  Zn115  1  0.30495779  0.31467717  0.31113533  1
  Zn  Zn116  1  0.30895598  0.30277843  0.80757395  1
  Zn  Zn117  1  0.30692178  0.81411321  0.31124936  1
  Zn  Zn118  1  0.31675993  0.81285538  0.81089563  1
  Zn  Zn119  1  0.81484050  0.31490298  0.31512897  1
  Zn  Zn120  1  0.81375979  0.31482719  0.81169183  1
  Zn  Zn121  1  0.81827113  0.81995654  0.30951088  1
  Zn  Zn122  1  0.80735450  0.81239581  0.81366872  1
  Zn  Zn123  1  0.18985081  0.43496722  0.43693377  1
  Zn  Zn124  1  0.18310470  0.43427334  0.93662400  1
  Zn  Zn125  1  0.19096859  0.94059506  0.43819013  1
  Zn  Zn126  1  0.18385770  0.94250438  0.93178109  1
  Zn  Zn127  1  0.68722476  0.43824792  0.44337391  1
  Zn  Zn128  1  0.68949091  0.44045558  0.94755265  1
  Zn  Zn129  1  0.70037687  0.93717997  0.43754398  1
  Zn  Zn130  1  0.68656626  0.94145823  0.93866735  1
  Zn  Zn131  1  0.31339847  0.06411268  0.06323153  1
  Zn  Zn132  1  0.31721724  0.05514057  0.55501748  1
  Zn  Zn133  1  0.30916695  0.56195895  0.06059101  1
  Zn  Zn134  1  0.30700293  0.56374687  0.55948693  1
  Zn  Zn135  1  0.81852772  0.06544972  0.06236067  1
  Zn  Zn136  1  0.81599533  0.06432282  0.56446080  1
  Zn  Zn137  1  0.81062182  0.56198743  0.06787518  1
  Zn  Zn138  1  0.81034178  0.56718645  0.56193278  1
  Zn  Zn139  1  0.43476954  0.43469670  0.18900587  1
  Zn  Zn140  1  0.43834836  0.43530345  0.69390111  1
  Zn  Zn141  1  0.43554014  0.93560209  0.17947183  1
  Zn  Zn142  1  0.44204182  0.93030262  0.68145906  1
  Zn  Zn143  1  0.93881469  0.44065800  0.19343448  1
  Zn  Zn144  1  0.93540123  0.43316805  0.68969395  1
  Zn  Zn145  1  0.94079559  0.93994445  0.18732703  1
  Zn  Zn146  1  0.93723701  0.93902688  0.68215132  1
  Zn  Zn147  1  0.06258541  0.05957296  0.31317952  1
  Zn  Zn148  1  0.06045158  0.06354961  0.80917993  1
  Zn  Zn149  1  0.06062390  0.56266848  0.30764013  1
  Zn  Zn150  1  0.06344281  0.56069968  0.80780837  1
  Zn  Zn151  1  0.56346328  -0.04414101  0.30412253  1
  Zn  Zn152  1  0.56008738  0.06067084  0.80819530  1
  Zn  Zn153  1  0.54500636  0.59464004  0.32860813  1
  Zn  Zn154  1  0.57377319  0.53410824  0.82938699  1
  Zn  Zn155  1  0.44390741  0.18436695  0.43916911  1
  Zn  Zn156  1  0.42435452  0.18211641  0.94039047  1
  Zn  Zn157  1  0.43572713  0.69093505  0.43600729  1
  Zn  Zn158  1  0.43773214  0.68635373  0.93957526  1
  Zn  Zn159  1  0.93998834  0.19134405  0.43951109  1
  Zn  Zn160  1  0.93662214  0.18846522  0.94407193  1
  Zn  Zn161  1  0.93964654  0.68979306  0.43915999  1
  Zn  Zn162  1  0.93939744  0.68920777  0.93801407  1
  Zn  Zn163  1  0.06192871  0.31103557  0.05619465  1
  Zn  Zn164  1  0.06486105  0.31176132  0.55637727  1
  Zn  Zn165  1  0.05748817  0.81198938  0.05996790  1
  Zn  Zn166  1  0.05900082  0.81259962  0.56228696  1
  Zn  Zn167  1  0.56312985  0.31275283  0.06746996  1
  Zn  Zn168  1  0.56726251  0.31393732  0.63675493  1
  Zn  Zn169  1  0.57022148  0.80677771  0.09435759  1
  Zn  Zn170  1  0.56637791  0.80538583  0.56496199  1
  O  O171  1  0.11978829  0.12126458  0.11925070  1
  O  O172  1  0.11383299  0.12621972  0.61679533  1
  O  O173  1  0.12135879  0.61785282  0.12133749  1
  O  O174  1  0.12641437  0.60833360  0.62623852  1
  O  O175  1  0.61924196  0.11915526  0.12818830  1
  O  O176  1  0.61953258  0.11337367  0.62033959  1
  O  O177  1  0.61433415  0.61865243  0.12025072  1
  O  O178  1  0.63465978  0.61541487  0.61332081  1
  O  O179  1  0.37609593  0.38025331  0.38271758  1
  O  O180  1  0.36569075  0.38111626  0.86981148  1
  O  O181  1  0.37219638  0.87236136  0.38727105  1
  O  O182  1  0.38065466  0.87788187  0.87828007  1
  O  O183  1  0.88584865  0.37744011  0.38233825  1
  O  O184  1  0.87976308  0.38285363  0.87806731  1
  O  O185  1  0.87521447  0.88464980  0.38764026  1
  O  O186  1  0.87656784  0.88166584  0.87896335  1
  O  O187  1  0.25392927  0.00689635  0.36694270  1
  O  O188  1  0.24963601  0.01017518  0.86650719  1
  O  O189  1  0.25602104  0.50541199  0.37422877  1
  O  O190  1  0.25219291  0.50380199  0.86907710  1
  O  O191  1  0.76564461  -0.00007160  0.36573518  1
  O  O192  1  0.76011889  0.00706764  0.86592480  1
  O  O193  1  0.75477425  0.49273022  0.36406434  1
  O  O194  1  0.76408968  0.50632498  0.87006703  1
  O  O195  1  0.24191635  0.49140597  0.12556260  1
  O  O196  1  0.24456068  0.49216904  0.63144844  1
  O  O197  1  0.23820882  1.00870728  0.13321085  1
  O  O198  1  0.25537970  0.98209987  0.62280563  1
  O  O199  1  0.74552540  0.49079527  0.13595750  1
  O  O200  1  0.74828545  0.49794102  0.63486424  1
  O  O201  1  0.74816600  1.00115686  0.12902669  1
  O  O202  1  0.74523713  1.00520620  0.63784810  1
  O  O203  1  0.01243804  0.37697546  0.25776287  1
  O  O204  1  0.00041086  0.37713506  0.76489074  1
  O  O205  1  0.01372583  0.87050183  0.24518936  1
  O  O206  1  0.00506668  0.86894501  0.75107234  1
  O  O207  1  0.50594256  0.36919094  0.25836311  1
  O  O208  1  0.50999349  0.36017295  0.73275595  1
  O  O209  1  0.49764082  0.88138375  0.25355059  1
  O  O210  1  0.51420322  0.86744642  0.75193538  1
  O  O211  1  0.50339432  0.13725925  0.23472248  1
  O  O212  1  0.49397647  0.12258420  0.73391264  1
  O  O213  1  0.49021658  0.61175705  0.22866042  1
  O  O214  1  0.50312340  0.63265959  0.75921049  1
  O  O215  1  0.99498830  0.12082345  0.23902830  1
  O  O216  1  0.99454188  0.12046422  0.73459032  1
  O  O217  1  0.99338023  0.63428520  0.24308285  1
  O  O218  1  0.99391741  0.63287868  0.74626715  1
  O  O219  1  0.36876785  0.25229909  0.01274830  1
  O  O220  1  0.37225338  0.25622633  0.50408397  1
  O  O221  1  0.36257426  0.75082827  0.00295408  1
  O  O222  1  0.36984631  0.75407500  0.50650087  1
  O  O223  1  0.86895098  0.25188854  0.01675918  1
  O  O224  1  0.86323352  0.26041850  0.49257631  1
  O  O225  1  0.87974525  0.76008726  0.00751469  1
  O  O226  1  0.86396203  0.75505682  0.50454646  1
  O  O227  1  0.12912280  0.23716661  0.49228078  1
  O  O228  1  0.12283982  0.23604008  0.98981255  1
  O  O229  1  0.13669573  0.74994800  0.50419621  1
  O  O230  1  0.12859444  0.74468860  0.99202939  1
  O  O231  1  0.63712307  0.24378372  0.49536201  1
  O  O232  1  0.63718331  0.24841821  1.01705465  1
  O  O233  1  0.63859438  0.74168581  0.50137525  1
  O  O234  1  0.61645941  0.73769397  0.99839913  1
  O  O235  1  0.48644288  0.24906777  0.13258114  1
  O  O236  1  0.48658575  0.23617047  0.61257293  1
  O  O237  1  0.47583939  0.74011996  0.11228494  1
  O  O238  1  0.49325545  0.75036930  0.63648108  1
  O  O239  1  0.99307657  0.24381818  0.12312377  1
  O  O240  1  1.00229949  0.23832389  0.62131010  1
  O  O241  1  0.99037780  0.74714751  0.13072364  1
  O  O242  1  0.98979273  0.75081879  0.63510051  1
  O  O243  1  0.01304542  0.25943233  0.37890731  1
  O  O244  1  0.00675648  0.25518941  0.87960751  1
  O  O245  1  -0.00436064  0.75237955  0.35960411  1
  O  O246  1  0.00300672  0.75463187  0.86184163  1
  O  O247  1  0.50962401  0.25458903  0.37129612  1
  O  O248  1  0.50638243  0.23108287  0.88345709  1
  O  O249  1  0.51074064  0.70616359  0.35581955  1
  O  O250  1  0.51149168  0.75018486  0.87080102  1
  O  O251  1  0.24147335  0.12069141  0.49346176  1
  O  O252  1  0.24072017  0.11939112  0.98907184  1
  O  O253  1  0.24314517  0.63316157  0.49221364  1
  O  O254  1  0.24204997  0.63111243  0.99042049  1
  O  O255  1  0.74501204  0.13567410  0.50874368  1
  O  O256  1  0.76015756  0.12393651  0.98041443  1
  O  O257  1  0.74732572  0.64359741  0.50085937  1
  O  O258  1  0.73692886  0.61762075  0.99720065  1
  O  O259  1  0.24060863  0.37322445  0.01464843  1
  O  O260  1  0.25964250  0.37304193  0.51017862  1
  O  O261  1  0.24486864  0.86281575  -0.00910978  1
  O  O262  1  0.25681665  0.86823356  0.50430744  1
  O  O263  1  0.75510454  0.37775135  0.01401967  1
  O  O264  1  0.75812605  0.36950362  0.50691056  1
  O  O265  1  0.76372818  0.88232847  0.00532115  1
  O  O266  1  0.75730648  0.85881318  0.49938314  1
  O  O267  1  0.12455639  0.49345690  0.23623645  1
  O  O268  1  0.13653037  0.49395979  0.74321288  1
  O  O269  1  0.12769615  0.98843568  0.24360106  1
  O  O270  1  0.12386271  0.98584779  0.75022365  1
  O  O271  1  0.63093246  0.49721357  0.24755934  1
  O  O272  1  0.63954194  0.51666817  0.73472756  1
  O  O273  1  0.64316911  1.00533040  0.23956989  1
  O  O274  1  0.63155867  0.99235597  0.74333350  1
  O  O275  1  0.35906562  -0.00600413  0.24726662  1
  O  O276  1  0.37755377  0.00822325  0.74475351  1
  O  O277  1  0.37128476  0.49677442  0.26432040  1
  O  O278  1  0.36442486  0.49964640  0.75654268  1
  O  O279  1  0.87421470  0.00804233  0.25735803  1
  O  O280  1  0.86880105  0.00276979  0.75459562  1
  O  O281  1  0.86692060  0.51255124  0.25121628  1
  O  O282  1  0.86619675  0.50478573  0.75630293  1
  O  O283  1  0.12112447  0.36810763  0.36938932  1
  O  O284  1  0.11797300  0.36344739  0.87247143  1
  O  O285  1  0.12349797  0.87816161  0.36556123  1
  O  O286  1  0.11785149  0.86794548  0.86543606  1
  O  O287  1  0.61727798  0.37026308  0.37634449  1
  O  O288  1  0.61813362  0.42869816  0.86544571  1
  O  O289  1  0.59622877  0.90843910  0.40549498  1
  O  O290  1  0.62466264  0.86624902  0.87114196  1
  O  O291  1  0.38066895  0.14012455  0.12455388  1
  O  O292  1  0.38107729  0.12654139  0.62482043  1
  O  O293  1  0.37500579  0.63273962  0.12367491  1
  O  O294  1  0.36923703  0.63644655  0.62599266  1
  O  O295  1  0.88404290  0.13284726  0.13357609  1
  O  O296  1  0.88900995  0.12418643  0.63182801  1
  O  O297  1  0.87887058  0.63476925  0.13111875  1
  O  O298  1  0.87379146  0.63448916  0.63386829  1
  O  O299  1  0.26270550  0.25425133  0.13256024  1
  O  O300  1  0.26035826  0.25464567  0.62263957  1
  O  O301  1  0.25863030  0.74386248  0.11182703  1
  O  O302  1  0.25758959  0.75636066  0.61714739  1
  O  O303  1  0.75803173  0.26484207  0.13371004  1
  O  O304  1  0.74644080  0.26162320  0.61569689  1
  O  O305  1  0.76591221  0.76243650  0.12902189  1
  O  O306  1  0.75870586  0.75097203  0.63011300  1
  O  O307  1  0.23819600  0.24222797  0.37497315  1
  O  O308  1  0.24042698  0.23346102  0.86924526  1
  O  O309  1  0.25438208  0.74042417  0.38443019  1
  O  O310  1  0.24488588  0.74183855  0.87714957  1
  O  O311  1  0.73775865  0.25840861  0.38219882  1
  O  O312  1  0.75335238  0.23712209  0.87463395  1
  O  O313  1  0.75001964  0.75477184  0.37896078  1
  O  O314  1  0.73539632  0.74353628  0.87452005  1
  O  O315  1  0.00606461  0.12275773  0.01240511  1
  O  O316  1  0.00482817  0.12106909  0.50964281  1
  O  O317  1  0.00808257  0.62540375  0.00684626  1
  O  O318  1  0.00269376  0.62809794  0.50454301  1
  O  O319  1  0.49915383  0.11661868  0.01239148  1
  O  O320  1  0.51219090  0.11816795  0.50829662  1
  O  O321  1  0.50244200  0.61617007  0.00905783  1
  O  O322  1  0.51974299  0.62808768  0.49952597  1
  O  O323  1  0.48595496  0.38022048  0.49691416  1
  O  O324  1  0.50230207  0.38952386  1.00614054  1
  O  O325  1  0.49075213  0.87338110  0.50866804  1
  O  O326  1  0.50381094  0.89084671  1.00682427  1
  O  O327  1  0.99101466  0.37193958  0.49243690  1
  O  O328  1  0.99775933  0.37917647  0.98732784  1
  O  O329  1  0.99147506  0.88325845  0.50264687  1
  O  O330  1  0.98967353  0.87756639  0.98971065  1
  O  O331  1  0.48935278  0.49907440  0.38117030  1
  O  O332  1  0.48094602  0.50813951  0.89194200  1
  O  O333  1  0.49463022  1.01731788  0.38124859  1
  O  O334  1  0.50034099  1.00025161  0.88492985  1
  O  O335  1  0.99990037  0.48780512  0.37141027  1
  O  O336  1  0.98982768  0.49669372  0.87383177  1
  O  O337  1  0.98822846  1.00766735  0.38761734  1
  O  O338  1  0.98833896  0.99526305  0.87217007  1
  O  O339  1  0.00939503  0.00935248  0.12337814  1
  O  O340  1  -0.00344373  0.00884420  0.61060599  1
  O  O341  1  0.00675643  0.50803764  0.12446670  1
  O  O342  1  0.01615070  0.49736779  0.63387953  1
  O  O343  1  0.50934893  0.00966258  0.12213130  1
  O  O344  1  0.51233053  0.00142577  0.61623758  1
  O  O345  1  0.49687911  0.50351479  0.11528569  1
  O  O346  1  0.51649559  0.50012018  0.62609868  1
  O  O347  1  0.23481090  0.37754591  0.24237079  1
  O  O348  1  0.24901501  0.37816802  0.73662984  1
  O  O349  1  0.23366008  0.88277035  0.25186222  1
  O  O350  1  0.24164919  0.87242995  0.74132198  1
  O  O351  1  0.74468737  0.38341589  0.24768544  1
  O  O352  1  0.74692471  0.38364177  0.74550447  1
  O  O353  1  0.76242410  0.89088471  0.23757810  1
  O  O354  1  0.73747788  0.88423958  0.75568761  1
  O  O355  1  0.24010703  0.11187986  0.26123542  1
  O  O356  1  0.25782696  0.11941268  0.75042761  1
  O  O357  1  0.25195374  0.62201542  0.25690513  1
  O  O358  1  0.25082159  0.61528332  0.75645020  1
  O  O359  1  0.76437825  0.11782802  0.24436407  1
  O  O360  1  0.76068856  0.11836212  0.75695038  1
  O  O361  1  0.75790365  0.61821577  0.24278368  1
  O  O362  1  0.75734026  0.61890947  0.76146963  1
  O  O363  1  0.36049855  0.12714184  0.38196020  1
  O  O364  1  0.36470994  0.11951809  0.86315675  1
  O  O365  1  0.36194258  0.61616735  0.37583744  1
  O  O366  1  0.36173899  0.61962101  0.87439100  1
  O  O367  1  0.88231639  0.12334199  0.36374942  1
  O  O368  1  0.87262138  0.11933834  0.86647974  1
  O  O369  1  0.87688763  0.62721360  0.36146931  1
  O  O370  1  0.87272469  0.62033441  0.87178942  1
  O  O371  1  0.12627795  0.37897729  0.12924499  1
  O  O372  1  0.13257857  0.38083338  0.62382803  1
  O  O373  1  0.12093113  0.88733205  0.12097492  1
  O  O374  1  0.13464286  0.86698140  0.63262322  1
  O  O375  1  0.63211145  0.38201800  0.13630415  1
  O  O376  1  0.64241190  0.39672101  0.61596358  1
  O  O377  1  0.64483519  0.89514522  0.10997454  1
  O  O378  1  0.62497052  0.88450688  0.63191749  1
  O  O379  1  0.12624524  0.25613412  0.25700779  1
  O  O380  1  0.12611863  0.24756647  0.76102098  1
  O  O381  1  0.11886229  0.76641600  0.24324043  1
  O  O382  1  0.11669810  0.75415823  0.75137980  1
  O  O383  1  0.61860761  0.25670915  0.26027529  1
  O  O384  1  0.61769100  0.25483882  0.73203509  1
  O  O385  1  0.61315766  0.76887301  0.19919515  1
  O  O386  1  0.62143375  0.75405286  0.75755102  1
  O  O387  1  0.38640224  0.25440981  0.25477308  1
  O  O388  1  0.37826123  0.23460604  0.73977388  1
  O  O389  1  0.36602789  0.75110293  0.23313222  1
  O  O390  1  0.38594649  0.74555998  0.74310400  1
  O  O391  1  0.87331855  0.24408191  0.24235721  1
  O  O392  1  0.87436866  0.23952240  0.75015817  1
  O  O393  1  0.88212205  0.74782302  0.24214632  1
  O  O394  1  0.88001058  0.74924864  0.74491100  1
  O  O395  1  0.37377422  0.49385328  0.49346091  1
  O  O396  1  0.38085188  0.49699873  0.99509305  1
  O  O397  1  0.38826120  0.98555210  0.49568054  1
  O  O398  1  0.38480153  0.99915446  1.00019979  1
  O  O399  1  0.86775482  0.48848432  0.49874394  1
  O  O400  1  0.87729930  0.50149890  0.99203546  1
  O  O401  1  0.87781248  0.99343571  0.49493797  1
  O  O402  1  0.87849075  0.99475744  0.98947414  1
  O  O403  1  0.12236357  0.00972069  0.00572625  1
  O  O404  1  0.11667653  0.01034748  0.49374920  1
  O  O405  1  0.12323453  0.50586771  0.00961591  1
  O  O406  1  0.13063755  0.49875633  0.51497413  1
  O  O407  1  0.61980295  0.00761444  0.00628447  1
  O  O408  1  0.63120242  0.00897914  0.50959165  1
  O  O409  1  0.61147017  0.51023400  0.01089639  1
  O  O410  1  0.62837323  0.51293214  0.51024173  1
  O  O411  1  0.36461415  0.36094190  0.13243663  1
  O  O412  1  0.37003771  0.36620980  0.61956987  1
  O  O413  1  0.37016126  0.86172187  0.11677301  1
  O  O414  1  0.36835343  0.86211011  0.61866832  1
  O  O415  1  0.87043679  0.37053717  0.12948088  1
  O  O416  1  0.86379853  0.37928062  0.61881982  1
  O  O417  1  0.87187513  0.87275246  0.11617110  1
  O  O418  1  0.87682234  0.86835990  0.61204760  1
  O  O419  1  0.12870151  0.12964158  0.38120863  1
  O  O420  1  0.12675901  0.12761274  0.88024510  1
  O  O421  1  0.13655177  0.61805537  0.37287216  1
  O  O422  1  0.13338576  0.62854505  0.87671051  1
  O  O423  1  0.62554836  0.13425647  0.39081076  1
  O  O424  1  0.64407939  0.11760430  0.86794878  1
  O  O425  1  0.64053675  0.61153707  0.39189494  1
  O  O426  1  0.62935239  0.62878505  0.88627843  1
