# generated using pymatgen
data_V85Zn86O256
_symmetry_space_group_name_H-M   'P 1'
_cell_length_a   16.94737485
_cell_length_b   16.94348801
_cell_length_c   16.93238533
_cell_angle_alpha   89.98390484
_cell_angle_beta   90.12803600
_cell_angle_gamma   89.99425072
_symmetry_Int_Tables_number   1
_chemical_formula_structural   V85Zn86O256
_chemical_formula_sum   'V85 Zn86 O256'
_cell_volume   4862.08217447
_cell_formula_units_Z   1
loop_
 _symmetry_equiv_pos_site_id
 _symmetry_equiv_pos_as_xyz
  1  'x, y, z'
loop_
 _atom_site_type_symbol
 _atom_site_label
 _atom_site_symmetry_multiplicity
 _atom_site_fract_x
 _atom_site_fract_y
 _atom_site_fract_z
 _atom_site_occupancy
  V  V0  1  0.49184816  0.35640858  0.37678774  1
  V  V1  1  0.12530400  0.87406238  0.24574839  1
  V  V2  1  0.12079918  0.24800060  0.36558452  1
  V  V3  1  0.11919830  0.74923280  0.36715497  1
  V  V4  1  0.37594852  0.12156061  0.75222714  1
  V  V5  1  0.24914112  0.87472773  0.62421903  1
  V  V6  1  0.49764248  0.00181280  -0.00430528  1
  V  V7  1  0.49810536  0.49753704  0.50389127  1
  V  V8  1  0.13532217  0.37814499  0.74214025  1
  V  V9  1  0.00187166  0.62589037  0.63203031  1
  V  V10  1  0.87487588  0.24679055  0.62450601  1
  V  V11  1  -0.00240041  0.12459084  0.62513162  1
  V  V12  1  0.12234650  -0.00087802  0.62545297  1
  V  V13  1  -0.00257720  0.25677838  0.75376438  1
  V  V14  1  0.12267987  0.62780024  0.49976760  1
  V  V15  1  0.75520280  0.75510118  -0.00249243  1
  V  V16  1  0.24623244  0.74525804  -0.00361502  1
  V  V17  1  0.37537596  0.24889059  0.61875839  1
  V  V18  1  0.87862565  0.75562056  0.12620015  1
  V  V19  1  0.12146466  0.25568885  0.87594539  1
  V  V20  1  0.62784761  0.24507296  0.87344646  1
  V  V21  1  0.62879324  0.62971972  0.00604316  1
  V  V22  1  0.24704550  0.24921962  0.50298418  1
  V  V23  1  0.62033325  0.87197334  0.74994673  1
  V  V24  1  -0.00145663  0.37103502  0.36405417  1
  V  V25  1  0.88547709  0.11410553  0.24923084  1
  V  V26  1  0.74951430  0.60559952  0.87416348  1
  V  V27  1  0.25092950  -0.00067536  0.75285840  1
  V  V28  1  0.11900032  0.00534275  0.12387937  1
  V  V29  1  0.62214896  0.75002155  0.87329424  1
  V  V30  1  0.50349629  0.62830781  0.12841719  1
  V  V31  1  0.88139911  0.62844390  0.24838198  1
  V  V32  1  0.11694530  0.12965119  0.00384518  1
  V  V33  1  0.37225985  0.87786554  -0.00085653  1
  V  V34  1  0.37093877  0.61690242  0.75757301  1
  V  V35  1  0.37338261  0.62779559  0.25219705  1
  V  V36  1  0.87790440  0.74812896  0.63782829  1
  V  V37  1  0.74822035  0.62080977  0.36593433  1
  V  V38  1  0.26508383  0.25464761  0.00236783  1
  V  V39  1  0.75110267  0.10683202  0.36372601  1
  V  V40  1  0.63524696  -0.00222550  0.12790941  1
  V  V41  1  0.87472321  0.37335668  0.49783005  1
  V  V42  1  0.87324663  0.60459865  0.75592898  1
  V  V43  1  0.62985122  0.49759017  0.63037348  1
  V  V44  1  0.87141303  0.37799954  -0.00932387  1
  V  V45  1  0.24978335  0.12300087  0.87694756  1
  V  V46  1  0.75002013  0.24429630  0.48775618  1
  V  V47  1  -0.00827477  0.87619698  0.86937197  1
  V  V48  1  0.00077303  0.49936603  0.50100082  1
  V  V49  1  0.89065922  0.24949079  0.13483992  1
  V  V50  1  0.25391404  0.11970753  0.36892858  1
  V  V51  1  0.49300303  0.87573068  0.87168478  1
  V  V52  1  0.76098968  0.12085642  0.87924108  1
  V  V53  1  0.38226161  0.88419857  0.49773519  1
  V  V54  1  0.75002452  0.25074157  0.00740814  1
  V  V55  1  0.75218048  0.74671528  0.50265682  1
  V  V56  1  0.38080458  0.75494256  0.63290149  1
  V  V57  1  0.62522048  0.75107043  0.37479830  1
  V  V58  1  0.24811771  0.62900994  0.37325974  1
  V  V59  1  0.74944396  0.37844051  0.13306156  1
  V  V60  1  0.62355947  0.00041237  0.62079971  1
  V  V61  1  -0.00596935  0.49596323  -0.01377083  1
  V  V62  1  0.26688359  0.37506625  0.12437128  1
  V  V63  1  0.75066745  0.87441277  0.62638384  1
  V  V64  1  -0.00581280  0.87357771  0.36668204  1
  V  V65  1  0.49700592  0.76019688  0.25586150  1
  V  V66  1  0.87521512  0.87232086  0.49780875  1
  V  V67  1  0.75602332  0.00014347  0.75488170  1
  V  V68  1  0.63437904  0.50864058  0.14063610  1
  V  V69  1  0.49934739  0.12070332  0.61803481  1
  V  V70  1  0.48440588  0.12467936  0.12973266  1
  V  V71  1  0.12163039  0.86556063  0.75088472  1
  V  V72  1  0.00104651  0.62260387  0.12290162  1
  V  V73  1  0.12114947  0.12418437  0.49848554  1
  V  V74  1  0.50460703  0.62969670  0.63635095  1
  V  V75  1  0.75068041  0.37466973  0.62342333  1
  V  V76  1  0.37403800  0.50036351  0.37918177  1
  V  V77  1  0.62612140  0.62319579  0.50304738  1
  V  V78  1  0.87386826  0.88549024  -0.00149724  1
  V  V79  1  0.31639520  0.41890311  0.55818335  1
  V  V80  1  0.61970454  0.12329075  0.48922756  1
  V  V81  1  0.62855243  0.36974460  0.74818236  1
  V  V82  1  -0.00724209  -0.00214979  0.49427298  1
  V  V83  1  0.62527696  0.36749290  0.25886471  1
  V  V84  1  0.87126965  0.49967790  0.36924422  1
  Zn  Zn85  1  0.39448093  0.01029880  0.36670961  1
  Zn  Zn86  1  0.50952737  0.88638865  0.38166881  1
  Zn  Zn87  1  0.37259644  0.75167413  0.12505927  1
  Zn  Zn88  1  0.14019388  0.49685793  0.62519164  1
  Zn  Zn89  1  0.49994298  0.24823172  0.74966881  1
  Zn  Zn90  1  0.12438348  0.49559772  0.12676852  1
  Zn  Zn91  1  0.12268657  0.61974542  -0.00333398  1
  Zn  Zn92  1  0.88022464  0.11971388  0.75528536  1
  Zn  Zn93  1  0.11847976  0.74620996  0.87257335  1
  Zn  Zn94  1  0.24835510  0.49683843  0.24874957  1
  Zn  Zn95  1  0.24843604  0.87557984  0.12202531  1
  Zn  Zn96  1  0.49414716  0.24832226  0.23936332  1
  Zn  Zn97  1  0.25697844  0.00495623  0.24126925  1
  Zn  Zn98  1  0.62426154  0.12351165  0.00282027  1
  Zn  Zn99  1  0.25080309  0.75543221  0.49794146  1
  Zn  Zn100  1  0.24086394  0.61310596  0.86920610  1
  Zn  Zn101  1  0.64656667  0.88861238  0.25155385  1
  Zn  Zn102  1  0.12588833  0.37294106  0.24407000  1
  Zn  Zn103  1  0.34508353  0.46408912  -0.09509212  1
  Zn  Zn104  1  -0.00330925  0.00588902  -0.00503486  1
  Zn  Zn105  1  0.49831173  0.49502741  0.00260492  1
  Zn  Zn106  1  0.49395775  0.37173885  0.88613752  1
  Zn  Zn107  1  0.19114192  0.19235104  0.18315828  1
  Zn  Zn108  1  0.18562998  0.18937881  0.68702135  1
  Zn  Zn109  1  0.18546714  0.68958978  0.18250519  1
  Zn  Zn110  1  0.19150042  0.68679212  0.68570912  1
  Zn  Zn111  1  0.68107421  0.18430706  0.18781823  1
  Zn  Zn112  1  0.69094588  0.18442884  0.68462398  1
  Zn  Zn113  1  0.69771323  0.71633210  0.19487985  1
  Zn  Zn114  1  0.69248496  0.68638869  0.69380275  1
  Zn  Zn115  1  0.31562476  0.31099401  0.31549027  1
  Zn  Zn116  1  0.31131841  0.30700519  0.80937922  1
  Zn  Zn117  1  0.31014807  0.81821828  0.31364142  1
  Zn  Zn118  1  0.31054887  0.80674370  0.81305858  1
  Zn  Zn119  1  0.81287051  0.30868219  0.30889206  1
  Zn  Zn120  1  0.80796103  0.30987679  0.81101348  1
  Zn  Zn121  1  0.81420280  0.81152328  0.31008699  1
  Zn  Zn122  1  0.81017734  0.81105732  0.81587753  1
  Zn  Zn123  1  0.18072076  0.44131101  0.42915377  1
  Zn  Zn124  1  0.17755756  0.43414097  0.94163124  1
  Zn  Zn125  1  0.18445851  0.93595003  0.43817860  1
  Zn  Zn126  1  0.18307080  0.93827892  0.93632600  1
  Zn  Zn127  1  0.68515966  0.43692809  0.43835015  1
  Zn  Zn128  1  0.64294857  0.43996775  0.93990345  1
  Zn  Zn129  1  0.68793220  0.93754340  0.43886627  1
  Zn  Zn130  1  0.68446753  0.93831900  0.94008608  1
  Zn  Zn131  1  0.30762706  0.05747751  0.05787216  1
  Zn  Zn132  1  0.30975998  0.06247417  0.56005644  1
  Zn  Zn133  1  0.31562972  0.56064840  0.06379072  1
  Zn  Zn134  1  0.31361910  0.58476496  0.56421658  1
  Zn  Zn135  1  0.81437142  0.06700670  0.06870302  1
  Zn  Zn136  1  0.81131369  0.06134751  0.56040551  1
  Zn  Zn137  1  0.81113393  0.56197002  0.06222763  1
  Zn  Zn138  1  0.81443378  0.56133854  0.56192971  1
  Zn  Zn139  1  0.44113138  0.44337783  0.19167578  1
  Zn  Zn140  1  0.44402271  0.43759827  0.69930640  1
  Zn  Zn141  1  0.43630996  0.94179678  0.18542908  1
  Zn  Zn142  1  0.43778738  0.94053916  0.68636226  1
  Zn  Zn143  1  0.93305353  0.44076844  0.18408233  1
  Zn  Zn144  1  0.94136245  0.43497236  0.68608034  1
  Zn  Zn145  1  0.93998482  0.93932439  0.18253645  1
  Zn  Zn146  1  0.93775811  0.93633338  0.68700643  1
  Zn  Zn147  1  0.06455533  0.05790033  0.31186757  1
  Zn  Zn148  1  0.06260491  0.06189176  0.81456836  1
  Zn  Zn149  1  0.06178340  0.55875421  0.30859965  1
  Zn  Zn150  1  0.06468339  0.55856609  0.81255198  1
  Zn  Zn151  1  0.56254787  0.06235160  0.30670719  1
  Zn  Zn152  1  0.56535963  0.06105898  0.81116936  1
  Zn  Zn153  1  0.55927991  0.56227666  0.31455518  1
  Zn  Zn154  1  0.56462027  0.56176743  0.81238199  1
  Zn  Zn155  1  0.43574073  0.19559994  0.42698754  1
  Zn  Zn156  1  0.44101509  0.18585739  0.93352051  1
  Zn  Zn157  1  0.43803579  0.69189830  0.44433905  1
  Zn  Zn158  1  0.43918486  0.68811193  0.94083121  1
  Zn  Zn159  1  0.93414727  0.18448954  0.43026765  1
  Zn  Zn160  1  0.93570649  0.19427236  0.93954903  1
  Zn  Zn161  1  0.93768632  0.68901214  0.43862725  1
  Zn  Zn162  1  0.93844830  0.68870876  0.93309071  1
  Zn  Zn163  1  0.06647821  0.31970981  0.06091220  1
  Zn  Zn164  1  0.06214644  0.31265604  0.56071350  1
  Zn  Zn165  1  0.05838715  0.81303345  0.05893732  1
  Zn  Zn166  1  0.06110512  0.81000979  0.56072573  1
  Zn  Zn167  1  0.56493756  0.30795824  0.06892628  1
  Zn  Zn168  1  0.55923880  0.30482259  0.54844476  1
  Zn  Zn169  1  0.56207774  0.81519880  0.06353315  1
  Zn  Zn170  1  0.56193267  0.81112062  0.56280308  1
  O  O171  1  0.13146221  0.12089448  0.11461732  1
  O  O172  1  0.11668083  0.12069618  0.61820482  1
  O  O173  1  0.11439069  0.62210267  0.12050617  1
  O  O174  1  0.11766890  0.62030822  0.62286773  1
  O  O175  1  0.61555270  0.11327373  0.12220573  1
  O  O176  1  0.61865354  0.11636861  0.61933314  1
  O  O177  1  0.62352687  0.62743818  0.13094483  1
  O  O178  1  0.62282820  0.61847792  0.62537206  1
  O  O179  1  0.37819001  0.39554689  0.38104621  1
  O  O180  1  0.38596601  0.37465163  0.85395774  1
  O  O181  1  0.37576434  0.87028699  0.39320945  1
  O  O182  1  0.38880536  0.86786402  0.87567747  1
  O  O183  1  0.87823572  0.38096287  0.37852462  1
  O  O184  1  0.86462371  0.36708659  0.89157874  1
  O  O185  1  0.88350210  0.86517581  0.38135575  1
  O  O186  1  0.88394649  0.87501691  0.87914524  1
  O  O187  1  0.24029244  0.01652351  0.37641181  1
  O  O188  1  0.24327732  0.01374544  0.86713549  1
  O  O189  1  0.25638245  0.51067910  0.37475200  1
  O  O190  1  0.24336509  0.50050938  0.88098761  1
  O  O191  1  0.75104155  0.00769336  0.37127986  1
  O  O192  1  0.74086326  0.00869893  0.86639483  1
  O  O193  1  0.75931862  0.50972036  0.38498354  1
  O  O194  1  0.73265442  0.50881768  0.88478697  1
  O  O195  1  0.25034921  0.48723332  0.12619765  1
  O  O196  1  0.25844169  0.49163013  0.60887790  1
  O  O197  1  0.23682242  0.99455886  0.12303791  1
  O  O198  1  0.24176751  0.99522510  0.63116609  1
  O  O199  1  0.74703714  0.49092355  0.12949848  1
  O  O200  1  0.74239917  0.48663722  0.61316740  1
  O  O201  1  0.73387281  1.00098146  0.11546393  1
  O  O202  1  0.74333892  0.99329097  0.63065298  1
  O  O203  1  -0.00308067  0.37977503  0.26203131  1
  O  O204  1  0.00580372  0.36060574  0.74476605  1
  O  O205  1  0.00803238  0.88100748  0.26001405  1
  O  O206  1  0.00709405  0.87901837  0.75843758  1
  O  O207  1  0.50657245  0.37580266  0.26177955  1
  O  O208  1  0.52059771  0.36784853  0.74637200  1
  O  O209  1  0.50378035  0.86343624  0.25182353  1
  O  O210  1  0.51152497  0.88396072  0.75621025  1
  O  O211  1  0.49672327  0.12616951  0.23441352  1
  O  O212  1  0.49087236  0.12328515  0.74220824  1
  O  O213  1  0.48787634  0.63280104  0.25039751  1
  O  O214  1  0.49739824  0.62379689  0.74103760  1
  O  O215  1  0.98438409  0.12259986  0.26091513  1
  O  O216  1  0.99989515  0.13236666  0.74277973  1
  O  O217  1  0.98820058  0.62081409  0.24266872  1
  O  O218  1  0.98677825  0.61756686  0.74315180  1
  O  O219  1  0.36319404  0.24799265  -0.01043652  1
  O  O220  1  0.36493360  0.24880637  0.51079259  1
  O  O221  1  0.36491866  0.75859046  -0.00105063  1
  O  O222  1  0.37272473  0.75812647  0.51435970  1
  O  O223  1  0.86678327  0.25440040  0.01342654  1
  O  O224  1  0.86927613  0.25308841  0.50398018  1
  O  O225  1  0.87069939  0.75961547  0.00079346  1
  O  O226  1  0.86974712  0.75129203  0.51165541  1
  O  O227  1  0.13018197  0.24478644  0.49335160  1
  O  O228  1  0.13058726  0.24651366  0.99171017  1
  O  O229  1  0.12478291  0.74429527  0.48929143  1
  O  O230  1  0.13771443  0.75211860  0.99833023  1
  O  O231  1  0.64266032  0.22982770  0.51558692  1
  O  O232  1  0.63821980  0.24542445  0.99287958  1
  O  O233  1  0.62895471  0.74366136  0.49254626  1
  O  O234  1  0.63460401  0.74983135  0.99545700  1
  O  O235  1  0.49964279  0.23216276  0.12207887  1
  O  O236  1  0.49259725  0.23801254  0.62317673  1
  O  O237  1  0.50111945  0.74263259  0.13732677  1
  O  O238  1  0.49567618  0.74064407  0.62344887  1
  O  O239  1  0.98810891  0.25470519  0.12202808  1
  O  O240  1  0.99201277  0.24400965  0.62795551  1
  O  O241  1  0.98972933  0.73413416  0.11266720  1
  O  O242  1  0.99245117  0.73439500  0.62027914  1
  O  O243  1  0.00820138  0.25982278  0.38341425  1
  O  O244  1  0.00734383  0.24472937  0.86491163  1
  O  O245  1  0.00785342  0.75979925  0.37930325  1
  O  O246  1  0.00173322  0.76870372  0.87782939  1
  O  O247  1  0.52438810  0.27245372  0.42636263  1
  O  O248  1  0.51435606  0.24958890  0.87061867  1
  O  O249  1  0.50753988  0.75484750  0.37451242  1
  O  O250  1  0.51517242  0.75925703  0.88150243  1
  O  O251  1  0.23938093  0.13105328  0.49441037  1
  O  O252  1  0.24363824  0.13213916  0.99142199  1
  O  O253  1  0.24003622  0.63209772  0.49175211  1
  O  O254  1  0.24894560  0.63791891  1.00183007  1
  O  O255  1  0.74827370  0.12620785  0.48575062  1
  O  O256  1  0.75017776  0.13180814  0.99486867  1
  O  O257  1  0.74518369  0.62940743  0.49575680  1
  O  O258  1  0.74828460  0.63213464  0.98994737  1
  O  O259  1  0.24954965  0.36643392  0.01139488  1
  O  O260  1  0.24806706  0.36763148  0.49498721  1
  O  O261  1  0.25690974  0.86736053  -0.00553101  1
  O  O262  1  0.25687404  0.87564267  0.50775837  1
  O  O263  1  0.75331928  0.36680828  0.01586959  1
  O  O264  1  0.75305874  0.36412526  0.50455989  1
  O  O265  1  0.76046717  0.86675992  -0.01059608  1
  O  O266  1  0.75545457  0.86848711  0.50716161  1
  O  O267  1  0.13051494  0.49369023  0.24838310  1
  O  O268  1  0.11919478  0.48267038  0.74481890  1
  O  O269  1  0.12881340  0.99330467  0.24151915  1
  O  O270  1  0.13420109  0.99424002  0.74418674  1
  O  O271  1  0.62353671  0.49672574  0.24528253  1
  O  O272  1  0.62824114  0.49000554  0.73537177  1
  O  O273  1  0.62824858  1.00077733  0.23483933  1
  O  O274  1  0.63388551  0.99432588  0.73882820  1
  O  O275  1  0.36588200  -0.01622979  0.25997107  1
  O  O276  1  0.35982557  0.00709854  0.74264686  1
  O  O277  1  0.37369088  0.51132583  0.26236573  1
  O  O278  1  0.38046432  0.51728169  0.74875426  1
  O  O279  1  0.87302703  0.01502221  0.23714692  1
  O  O280  1  0.86010962  -0.00110833  0.74445887  1
  O  O281  1  0.87608692  0.50722272  0.26357865  1
  O  O282  1  0.87325002  0.50609998  0.74692865  1
  O  O283  1  0.11484986  0.36621728  0.37261222  1
  O  O284  1  0.12528405  0.36070295  0.86349832  1
  O  O285  1  0.11722941  0.86785103  0.36835426  1
  O  O286  1  0.11686781  0.87259776  0.86520557  1
  O  O287  1  0.61253081  0.38655071  0.36592134  1
  O  O288  1  0.64601071  0.35515313  0.85960100  1
  O  O289  1  0.62840720  0.86450564  0.37204205  1
  O  O290  1  0.61796162  0.87006063  0.86730098  1
  O  O291  1  0.38546961  0.11773041  0.11952746  1
  O  O292  1  0.38140169  0.12799180  0.62727712  1
  O  O293  1  0.38422413  0.62933163  0.13681410  1
  O  O294  1  0.38601852  0.63543682  0.63528216  1
  O  O295  1  0.87216721  0.13961333  0.13703302  1
  O  O296  1  0.88058037  0.12991396  0.62594400  1
  O  O297  1  0.87853329  0.62997066  0.13266417  1
  O  O298  1  0.87900705  0.62800606  0.63619829  1
  O  O299  1  0.25438396  0.26033298  0.11510673  1
  O  O300  1  0.25502215  0.24429308  0.61098882  1
  O  O301  1  0.25153423  0.75499108  0.11176165  1
  O  O302  1  0.25915953  0.75871493  0.62307170  1
  O  O303  1  0.75011187  0.25511473  0.12025120  1
  O  O304  1  0.76058000  0.25216193  0.61633400  1
  O  O305  1  0.76549242  0.73874503  0.10377178  1
  O  O306  1  0.75659939  0.75477437  0.62210974  1
  O  O307  1  0.24249808  0.24085741  0.38483900  1
  O  O308  1  0.24179337  0.24013487  0.87857201  1
  O  O309  1  0.23914633  0.74556530  0.37582071  1
  O  O310  1  0.24625916  0.74485792  0.88591729  1
  O  O311  1  0.75276924  0.24593196  0.38531870  1
  O  O312  1  0.74831646  0.23853885  0.88369822  1
  O  O313  1  0.74341849  0.73853609  0.38488208  1
  O  O314  1  0.74119959  0.74412871  0.88187968  1
  O  O315  1  0.01303952  0.12658032  -0.00684396  1
  O  O316  1  0.00092144  0.11621964  0.50168122  1
  O  O317  1  -0.00647374  0.61228414  0.00435968  1
  O  O318  1  0.00322902  0.61741159  0.50614351  1
  O  O319  1  0.50029501  0.11576278  0.00311939  1
  O  O320  1  0.51051557  0.12875951  0.50449698  1
  O  O321  1  0.51160735  0.63364326  0.01444221  1
  O  O322  1  0.50518368  0.61773909  0.51209028  1
  O  O323  1  0.49940305  0.39422476  0.50034668  1
  O  O324  1  0.53742727  0.38357224  0.99417048  1
  O  O325  1  0.48605814  0.87386863  0.50343815  1
  O  O326  1  0.49258202  0.88006457  0.99175371  1
  O  O327  1  0.99358431  0.38300722  0.49386506  1
  O  O328  1  0.98692905  0.38679209  1.00513533  1
  O  O329  1  0.99478515  0.87992887  0.49236226  1
  O  O330  1  0.99133887  0.87932550  0.98847512  1
  O  O331  1  0.48954534  0.50313781  0.38735399  1
  O  O332  1  0.53732946  0.48561626  0.88667183  1
  O  O333  1  0.50637995  0.99948911  0.37884975  1
  O  O334  1  0.50754070  0.99105848  0.88549281  1
  O  O335  1  0.99297164  0.49423617  0.38449161  1
  O  O336  1  0.99557836  0.49981655  0.88754963  1
  O  O337  1  1.00445876  0.98807718  0.38494489  1
  O  O338  1  1.00490408  0.98421790  0.87667822  1
  O  O339  1  0.01432150  -0.00037219  0.11757573  1
  O  O340  1  0.00388221  0.00455073  0.61853867  1
  O  O341  1  -0.00389096  0.51129241  0.11969670  1
  O  O342  1  -0.00329067  0.50867128  0.61305513  1
  O  O343  1  0.50241361  0.00898163  0.11425989  1
  O  O344  1  0.50810822  0.01198230  0.62705590  1
  O  O345  1  0.51014088  0.51700581  0.13169608  1
  O  O346  1  0.50862864  0.50770846  0.62219645  1
  O  O347  1  0.25404105  0.37037419  0.23932978  1
  O  O348  1  0.23322300  0.36454372  0.74471858  1
  O  O349  1  0.23366057  0.87367612  0.24837037  1
  O  O350  1  0.24395754  0.88224042  0.74669337  1
  O  O351  1  0.74184947  0.37007476  0.24288363  1
  O  O352  1  0.74439302  0.36651436  0.73131907  1
  O  O353  1  0.73394675  0.82207868  0.23644035  1
  O  O354  1  0.74086672  0.88074683  0.74670220  1
  O  O355  1  0.24807293  0.12809866  0.26553944  1
  O  O356  1  0.25370312  0.11886382  0.75442607  1
  O  O357  1  0.26106725  0.62836975  0.25321868  1
  O  O358  1  0.26592799  0.62657231  0.74942412  1
  O  O359  1  0.75363258  0.13029662  0.26195613  1
  O  O360  1  0.75292110  0.11625987  0.75795614  1
  O  O361  1  0.76103964  0.63174966  0.26271576  1
  O  O362  1  0.76314834  0.62249082  0.75818974  1
  O  O363  1  0.35645352  0.12044712  0.38863676  1
  O  O364  1  0.36698645  0.12968495  0.85977060  1
  O  O365  1  0.37003869  0.62186271  0.37361915  1
  O  O366  1  0.37983841  0.63434692  0.85868370  1
  O  O367  1  0.86213510  0.12624261  0.36141632  1
  O  O368  1  0.86533489  0.12584956  0.87551012  1
  O  O369  1  0.87079807  0.61977163  0.36961410  1
  O  O370  1  0.86764895  0.62509724  0.86197898  1
  O  O371  1  0.13821163  0.37509217  0.12802867  1
  O  O372  1  0.12088739  0.37570459  0.63607713  1
  O  O373  1  0.12118788  0.88033752  0.13181034  1
  O  O374  1  0.12680936  0.87906683  0.63084389  1
  O  O375  1  0.63190368  0.38655264  0.13931263  1
  O  O376  1  0.63209095  0.37778275  0.62383379  1
  O  O377  1  0.61578023  0.89339388  0.12605866  1
  O  O378  1  0.62806412  0.88038530  0.63057855  1
  O  O379  1  0.12719329  0.24983267  0.26283684  1
  O  O380  1  0.11676608  0.25470027  0.75440660  1
  O  O381  1  0.12389059  0.75597802  0.25893441  1
  O  O382  1  0.12942105  0.76293543  0.74731298  1
  O  O383  1  0.61707707  0.26332568  0.24780863  1
  O  O384  1  0.62715975  0.25198770  0.75346043  1
  O  O385  1  0.60873360  0.73225648  0.26967772  1
  O  O386  1  0.63091804  0.76119464  0.75859884  1
  O  O387  1  0.41913557  0.26430843  0.32430971  1
  O  O388  1  0.37316403  0.23754310  0.73374377  1
  O  O389  1  0.38123768  0.74612073  0.25261434  1
  O  O390  1  0.37518674  0.74652224  0.73783436  1
  O  O391  1  0.87643990  0.24348726  0.23918279  1
  O  O392  1  0.88115075  0.24738223  0.74296146  1
  O  O393  1  0.87915097  0.74092496  0.23747206  1
  O  O394  1  0.87021327  0.74515587  0.73972444  1
  O  O395  1  0.37708508  0.49998658  0.50256763  1
  O  O396  1  0.38807346  0.51246554  0.99519416  1
  O  O397  1  0.37083710  0.98613609  0.49928129  1
  O  O398  1  0.38032960  0.98656349  0.99674236  1
  O  O399  1  0.88191108  0.49569049  0.49031231  1
  O  O400  1  0.88203800  0.49008768  1.00553919  1
  O  O401  1  0.88584352  0.99101220  0.50575005  1
  O  O402  1  0.87520277  0.98911249  1.00836589  1
  O  O403  1  0.12530426  0.01235051  0.00460307  1
  O  O404  1  0.11306005  0.00274593  0.50601795  1
  O  O405  1  0.10459167  0.49775083  0.00539001  1
  O  O406  1  0.11572985  0.50647987  0.50175511  1
  O  O407  1  0.61402605  0.00123554  0.00670169  1
  O  O408  1  0.63326131  0.00824726  0.51318371  1
  O  O409  1  0.63078466  0.51810988  0.02587313  1
  O  O410  1  0.61758340  0.50537494  0.50974825  1
  O  O411  1  0.36721808  0.37910407  0.12975785  1
  O  O412  1  0.37929620  0.36762938  0.62769669  1
  O  O413  1  0.37453576  0.87122466  0.11189898  1
  O  O414  1  0.37172092  0.87226164  0.61885646  1
  O  O415  1  0.86675290  0.36381619  0.12582993  1
  O  O416  1  0.86932562  0.36913705  0.61695448  1
  O  O417  1  0.88429561  0.86311681  0.11506888  1
  O  O418  1  0.87258201  0.86460132  0.62047708  1
  O  O419  1  0.12898301  0.13135490  0.38076643  1
  O  O420  1  0.13226068  0.13469378  0.87872735  1
  O  O421  1  0.12579347  0.63244263  0.37670338  1
  O  O422  1  0.12304401  0.62983886  0.87767397  1
  O  O423  1  0.63804721  0.12134587  0.38052856  1
  O  O424  1  0.63459293  0.13335819  0.87419852  1
  O  O425  1  0.63248060  0.62610306  0.38315735  1
  O  O426  1  0.63213213  0.63543746  0.87988950  1
