# generated using pymatgen
data_V85Zn86O256
_symmetry_space_group_name_H-M   'P 1'
_cell_length_a   16.92515398
_cell_length_b   16.91964596
_cell_length_c   16.92995388
_cell_angle_alpha   89.96148368
_cell_angle_beta   90.04500791
_cell_angle_gamma   90.01871936
_symmetry_Int_Tables_number   1
_chemical_formula_structural   V85Zn86O256
_chemical_formula_sum   'V85 Zn86 O256'
_cell_volume   4848.18763460
_cell_formula_units_Z   1
loop_
 _symmetry_equiv_pos_site_id
 _symmetry_equiv_pos_as_xyz
  1  'x, y, z'
loop_
 _atom_site_type_symbol
 _atom_site_label
 _atom_site_symmetry_multiplicity
 _atom_site_fract_x
 _atom_site_fract_y
 _atom_site_fract_z
 _atom_site_occupancy
  V  V0  1  0.13052029  0.74180421  0.37918496  1
  V  V1  1  0.86293323  0.50417660  0.36409371  1
  V  V2  1  0.74514204  -0.00571050  0.23815762  1
  V  V3  1  0.74908177  0.24096933  0.49678156  1
  V  V4  1  0.25745039  0.24514954  -0.00011705  1
  V  V5  1  0.12725992  0.62211381  0.00150529  1
  V  V6  1  0.37355882  0.86442479  0.49918093  1
  V  V7  1  -0.00358938  0.87680085  0.38814934  1
  V  V8  1  0.12889304  0.11974210  0.00132182  1
  V  V9  1  0.75137346  0.12503291  0.87815647  1
  V  V10  1  0.00020597  0.74860624  0.74924075  1
  V  V11  1  0.00535945  0.11269791  0.12723130  1
  V  V12  1  0.87645649  -0.00178213  0.87706248  1
  V  V13  1  0.24504307  0.88180135  0.12359021  1
  V  V14  1  0.37641962  0.24863362  0.62657990  1
  V  V15  1  0.65980059  0.53986535  0.16825521  1
  V  V16  1  0.74905771  0.37035453  0.62403063  1
  V  V17  1  0.50446044  0.87696949  0.86906142  1
  V  V18  1  0.49550756  0.87913941  0.37032092  1
  V  V19  1  0.00023938  0.87346948  0.87694705  1
  V  V20  1  0.86226824  0.75230377  0.12556943  1
  V  V21  1  0.63234496  0.75463930  0.87274010  1
  V  V22  1  0.00058122  0.24584050  0.24916649  1
  V  V23  1  0.37737122  0.86991285  0.00502278  1
  V  V24  1  0.74961375  0.25250235  0.00024121  1
  V  V25  1  0.00273030  0.62761111  0.61690878  1
  V  V26  1  0.12831787  0.37382104  0.25022857  1
  V  V27  1  0.62236500  0.37116482  0.74968078  1
  V  V28  1  0.12822715  0.74778984  0.87492719  1
  V  V29  1  0.37614946  0.11561675  0.25094018  1
  V  V30  1  0.00290074  0.11562908  0.62079303  1
  V  V31  1  0.50414650  -0.00181437  0.00645878  1
  V  V32  1  0.87733507  0.24804764  0.12624554  1
  V  V33  1  -0.00421095  0.74577233  0.24596135  1
  V  V34  1  0.86481743  0.12057403  0.25281757  1
  V  V35  1  0.74738943  0.37498644  0.12879944  1
  V  V36  1  0.48763069  0.73766368  0.23999334  1
  V  V37  1  0.62077846  0.12258932  0.49951196  1
  V  V38  1  0.25722088  0.37070559  0.12807636  1
  V  V39  1  0.12653767  0.24858693  0.37446675  1
  V  V40  1  0.24143924  0.37210914  0.62668285  1
  V  V41  1  0.24835899  0.49572742  0.75217860  1
  V  V42  1  0.38550714  0.50098252  0.87047384  1
  V  V43  1  0.48906922  0.00000343  0.49840991  1
  V  V44  1  0.37981808  0.37615130  0.00474677  1
  V  V45  1  0.87671678  0.49900665  0.87353151  1
  V  V46  1  0.12023391  0.88008347  0.24689892  1
  V  V47  1  0.62698864  0.12179541  0.00691443  1
  V  V48  1  0.36806296  0.51770101  0.37748288  1
  V  V49  1  0.24592266  -0.00054183  0.74996246  1
  V  V50  1  0.25374143  0.11336114  0.37541224  1
  V  V51  1  0.25313868  0.86480133  0.62576956  1
  V  V52  1  0.24907646  0.24750602  0.49942797  1
  V  V53  1  0.00573674  0.25812278  0.75017480  1
  V  V54  1  0.37171222  0.37569037  0.49873334  1
  V  V55  1  0.63683418  0.63255666  0.49537400  1
  V  V56  1  0.87400927  0.37387330  0.49651895  1
  V  V57  1  0.87505824  0.62881482  0.74522822  1
  V  V58  1  0.37036173  0.00411430  0.87724173  1
  V  V59  1  0.86757406  -0.00429756  0.38373867  1
  V  V60  1  0.25585275  0.74598733  0.00706746  1
  V  V61  1  0.00037207  0.37229087  0.37364576  1
  V  V62  1  0.87436408  0.24700760  0.62486648  1
  V  V63  1  0.50122451  0.50187522  0.50130642  1
  V  V64  1  0.49593309  0.63441716  0.62187771  1
  V  V65  1  0.62340576  0.88176733  0.23292129  1
  V  V66  1  0.00515911  0.50047966  0.49506575  1
  V  V67  1  0.25391779  0.51461953  0.25368289  1
  V  V68  1  0.00178063  0.49712467  0.00042325  1
  V  V69  1  0.49789022  0.75543317  0.74594800  1
  V  V70  1  0.63429256  0.75548339  0.37266113  1
  V  V71  1  0.12633755  0.49896827  0.12612783  1
  V  V72  1  0.49434615  0.51879123  0.04318748  1
  V  V73  1  0.62543730  0.24626078  0.37289079  1
  V  V74  1  0.87770236  0.12486676  0.75297092  1
  V  V75  1  0.12280130  0.49878296  0.62757582  1
  V  V76  1  0.74880800  0.50146896  0.74689268  1
  V  V77  1  0.37006426  0.12719859  0.75551499  1
  V  V78  1  0.13137036  0.25141540  0.87432338  1
  V  V79  1  0.62692546  0.37734324  0.25149219  1
  V  V80  1  0.49609487  0.12973239  0.12429038  1
  V  V81  1  0.48919749  0.25530564  0.24605913  1
  V  V82  1  0.86240729  0.86828971  0.00182104  1
  V  V83  1  0.63027288  0.62312474  -0.00352173  1
  V  V84  1  0.74958019  0.86865020  0.62041437  1
  Zn  Zn85  1  0.75328787  0.63243233  0.87288876  1
  Zn  Zn86  1  0.00621421  -0.00539859  0.00437377  1
  Zn  Zn87  1  0.50721516  0.37915284  0.88567422  1
  Zn  Zn88  1  0.49815131  0.25102912  0.75663984  1
  Zn  Zn89  1  0.00644234  0.37682314  0.87111307  1
  Zn  Zn90  1  0.87851358  0.76010163  0.59950337  1
  Zn  Zn91  1  0.62699585  0.50365258  0.62197452  1
  Zn  Zn92  1  0.62270029  0.25158859  0.87628154  1
  Zn  Zn93  1  0.83980704  0.62400837  0.24618249  1
  Zn  Zn94  1  0.12203013  -0.00836092  0.61198497  1
  Zn  Zn95  1  0.24826896  -0.00138085  0.24733971  1
  Zn  Zn96  1  0.74023060  -0.00742347  0.75092110  1
  Zn  Zn97  1  0.25306362  0.73617941  0.50109393  1
  Zn  Zn98  1  0.49649236  0.12034690  0.62819672  1
  Zn  Zn99  1  0.62203542  -0.00916237  0.63096904  1
  Zn  Zn100  1  0.12074067  0.11712770  0.49433975  1
  Zn  Zn101  1  0.37260045  0.63066631  0.74650663  1
  Zn  Zn102  1  -0.00764454  0.62360522  0.12615292  1
  Zn  Zn103  1  0.87513115  0.37497696  -0.00101034  1
  Zn  Zn104  1  0.12484137  0.87600046  0.74968064  1
  Zn  Zn105  1  0.25390684  0.62300870  0.87445784  1
  Zn  Zn106  1  0.49684235  0.37707249  0.37424717  1
  Zn  Zn107  1  0.19066291  0.18659853  0.18530259  1
  Zn  Zn108  1  0.18716775  0.18442007  0.69025355  1
  Zn  Zn109  1  0.18381660  0.69241902  0.18644301  1
  Zn  Zn110  1  0.18704817  0.68261209  0.68526146  1
  Zn  Zn111  1  0.68465594  0.18808033  0.18742811  1
  Zn  Zn112  1  0.67402927  0.16322021  0.69981887  1
  Zn  Zn113  1  0.68044106  0.70771657  0.18644947  1
  Zn  Zn114  1  0.68326671  0.69480630  0.68421052  1
  Zn  Zn115  1  0.31185630  0.31354001  0.31490224  1
  Zn  Zn116  1  0.31254268  0.31620279  0.81675887  1
  Zn  Zn117  1  0.31291533  0.81319709  0.31194601  1
  Zn  Zn118  1  0.31575367  0.81412520  0.81572436  1
  Zn  Zn119  1  0.81111587  0.31129785  0.31309610  1
  Zn  Zn120  1  0.81290725  0.31285658  0.81234915  1
  Zn  Zn121  1  0.80921880  0.81181191  0.43722487  1
  Zn  Zn122  1  0.81104434  0.81657110  0.80331057  1
  Zn  Zn123  1  0.18484494  0.56384097  0.43944415  1
  Zn  Zn124  1  0.19116433  0.43325108  0.93663714  1
  Zn  Zn125  1  0.18498824  0.93342853  0.43840131  1
  Zn  Zn126  1  0.18887397  0.93582447  0.93700220  1
  Zn  Zn127  1  0.68459276  0.43402232  0.43811925  1
  Zn  Zn128  1  0.68697359  0.44255257  0.93738206  1
  Zn  Zn129  1  0.68416524  0.94059425  0.43673031  1
  Zn  Zn130  1  0.68656637  0.93910689  0.93820594  1
  Zn  Zn131  1  0.31635494  0.06266856  0.06448651  1
  Zn  Zn132  1  0.30917270  0.05847529  0.56472958  1
  Zn  Zn133  1  0.31664798  0.55754781  0.06478384  1
  Zn  Zn134  1  0.31482869  0.56234743  0.56717509  1
  Zn  Zn135  1  0.81755488  0.06009983  0.06274279  1
  Zn  Zn136  1  0.80816009  0.05788125  0.56543586  1
  Zn  Zn137  1  0.81234563  0.56640888  0.05820661  1
  Zn  Zn138  1  0.81856561  0.56300284  0.55922120  1
  Zn  Zn139  1  0.44346752  0.45676867  0.18995218  1
  Zn  Zn140  1  0.43746578  0.43935606  0.68419874  1
  Zn  Zn141  1  0.43748683  0.93493629  0.18399032  1
  Zn  Zn142  1  0.43445501  0.93772264  0.68447978  1
  Zn  Zn143  1  0.93668029  0.43580456  0.18684811  1
  Zn  Zn144  1  0.93620855  0.43708806  0.68488776  1
  Zn  Zn145  1  0.93261400  0.93232504  0.19171158  1
  Zn  Zn146  1  0.93020381  0.93449282  0.68823798  1
  Zn  Zn147  1  0.05991736  0.05826735  0.31532434  1
  Zn  Zn148  1  0.06368947  0.06663466  0.81615016  1
  Zn  Zn149  1  0.05808873  0.56085386  0.30718170  1
  Zn  Zn150  1  0.06412204  0.56269631  0.81054422  1
  Zn  Zn151  1  0.56176067  0.06157662  0.31386100  1
  Zn  Zn152  1  0.55923842  0.06635779  0.81644157  1
  Zn  Zn153  1  0.55961123  0.56595648  0.32146738  1
  Zn  Zn154  1  0.56523849  0.56780567  0.80798410  1
  Zn  Zn155  1  0.43698970  0.18850932  0.43366389  1
  Zn  Zn156  1  0.43850029  0.19034210  0.93625186  1
  Zn  Zn157  1  0.44545369  0.69295135  0.43281222  1
  Zn  Zn158  1  0.44043097  0.68682499  0.93392322  1
  Zn  Zn159  1  0.93427667  0.18109708  0.43573611  1
  Zn  Zn160  1  0.94297863  0.18848162  0.93978950  1
  Zn  Zn161  1  0.94140171  0.68034882  0.42632708  1
  Zn  Zn162  1  0.93739223  0.68545655  0.93973314  1
  Zn  Zn163  1  0.06596674  0.31009474  0.06163929  1
  Zn  Zn164  1  0.06209020  0.30822812  0.56048650  1
  Zn  Zn165  1  0.06084473  0.81025314  0.06234547  1
  Zn  Zn166  1  0.06697977  0.81226263  0.56223468  1
  Zn  Zn167  1  0.56188139  0.31586901  0.06446681  1
  Zn  Zn168  1  0.56146028  0.31211599  0.56413405  1
  Zn  Zn169  1  0.55974981  0.80353074  0.06028100  1
  Zn  Zn170  1  0.56669991  0.81518704  0.56000245  1
  O  O171  1  0.11581966  0.13006447  0.11733636  1
  O  O172  1  0.11049809  0.12389142  0.62659668  1
  O  O173  1  0.12342662  0.61730042  0.11674519  1
  O  O174  1  0.11017699  0.61530189  0.62901164  1
  O  O175  1  0.61493611  0.12885931  0.11478844  1
  O  O176  1  0.61394214  0.13750142  0.60486892  1
  O  O177  1  0.63094639  0.63040264  0.10755378  1
  O  O178  1  0.61651634  0.62603560  0.61259007  1
  O  O179  1  0.37358685  0.37708047  0.39042582  1
  O  O180  1  0.37829229  0.38276173  0.88750379  1
  O  O181  1  0.38266805  0.87502803  0.38368567  1
  O  O182  1  0.38435255  0.88267968  0.88587712  1
  O  O183  1  0.88208671  0.37913159  0.37802295  1
  O  O184  1  0.87787404  0.38820982  0.87459404  1
  O  O185  1  0.88513610  0.88393704  0.37545012  1
  O  O186  1  0.88103616  0.87895333  0.87906483  1
  O  O187  1  0.24687983  0.01086946  0.37046261  1
  O  O188  1  0.26352238  -0.00841221  0.86823184  1
  O  O189  1  0.25414093  0.50432539  0.36648215  1
  O  O190  1  0.25803867  0.49763965  0.86636280  1
  O  O191  1  0.76303355  -0.00721607  0.36392299  1
  O  O192  1  0.75804946  0.00710552  0.87276902  1
  O  O193  1  0.76596115  0.49121065  0.38017143  1
  O  O194  1  0.75915140  0.50127248  0.86143492  1
  O  O195  1  0.24506409  0.48804609  0.13064226  1
  O  O196  1  0.24159767  0.49052108  0.63031937  1
  O  O197  1  0.25190282  0.98620661  0.12376048  1
  O  O198  1  0.24676888  0.98986877  0.63515563  1
  O  O199  1  0.73933941  0.49082834  0.11666009  1
  O  O200  1  0.75442033  0.49248139  0.63418833  1
  O  O201  1  0.75496174  1.00271740  0.13823973  1
  O  O202  1  0.74555863  0.99093976  0.62877043  1
  O  O203  1  0.00637003  0.36667562  0.25363640  1
  O  O204  1  -0.00214524  0.36209411  0.74748957  1
  O  O205  1  0.00426648  0.86355736  0.25322827  1
  O  O206  1  -0.00065771  0.86713320  0.76086485  1
  O  O207  1  0.50617898  0.37077126  0.24775882  1
  O  O208  1  0.51507932  0.37578514  0.74385660  1
  O  O209  1  0.50568300  0.87782775  0.25572012  1
  O  O210  1  0.49568972  0.87352289  0.76059933  1
  O  O211  1  0.49507734  0.13174595  0.24392625  1
  O  O212  1  0.48315485  0.12904404  0.74971740  1
  O  O213  1  0.50457697  0.63834195  0.25325255  1
  O  O214  1  0.50038380  0.63456496  0.73860645  1
  O  O215  1  0.99504467  0.12762293  0.24318668  1
  O  O216  1  0.99240608  0.13353979  0.74570798  1
  O  O217  1  1.00124995  0.63810268  0.24665874  1
  O  O218  1  0.99334504  0.62829512  0.74213250  1
  O  O219  1  0.36777668  0.26050565  -0.00239683  1
  O  O220  1  0.37073095  0.25518852  0.50754304  1
  O  O221  1  0.36781948  0.75723343  -0.00736675  1
  O  O222  1  0.37428313  0.76047809  0.49625757  1
  O  O223  1  0.86582254  0.25063193  0.00563737  1
  O  O224  1  0.86634622  0.25143147  0.50114991  1
  O  O225  1  0.88007989  0.75449921  0.01195807  1
  O  O226  1  0.87149266  0.73708672  0.49033048  1
  O  O227  1  0.13006260  0.24264289  0.49098180  1
  O  O228  1  0.13540881  0.24233557  0.99607859  1
  O  O229  1  0.12497293  0.75235670  0.48191900  1
  O  O230  1  0.13132487  0.74280901  0.99122258  1
  O  O231  1  0.62925403  0.24816926  0.49117992  1
  O  O232  1  0.63712914  0.24560677  1.00244956  1
  O  O233  1  0.62272664  0.73986317  0.49016146  1
  O  O234  1  0.61545159  0.73555875  0.98679683  1
  O  O235  1  0.50423004  0.24263748  0.13374222  1
  O  O236  1  0.48407240  0.25104289  0.62742402  1
  O  O237  1  0.49677661  0.75244032  0.14002123  1
  O  O238  1  0.50503987  0.74656924  0.63232772  1
  O  O239  1  0.99440873  0.24382758  0.13012754  1
  O  O240  1  0.99502502  0.24144100  0.63247938  1
  O  O241  1  0.99542241  0.74578934  0.13155967  1
  O  O242  1  0.99877494  0.74276636  0.62824285  1
  O  O243  1  0.00600443  0.24943981  0.36950062  1
  O  O244  1  0.00629499  0.25346869  0.86706748  1
  O  O245  1  0.00626469  0.75851236  0.36551036  1
  O  O246  1  0.00786486  0.75384696  0.87254277  1
  O  O247  1  0.50633743  0.25510502  0.36553951  1
  O  O248  1  0.50343234  0.26073207  0.87530078  1
  O  O249  1  0.50760322  0.76323249  0.36584987  1
  O  O250  1  0.50679154  0.76051420  0.86908845  1
  O  O251  1  0.25246337  0.13062959  0.49122670  1
  O  O252  1  0.24540102  0.13656305  1.01092386  1
  O  O253  1  0.24297702  0.62440115  0.51200163  1
  O  O254  1  0.24918012  0.62930770  1.00243941  1
  O  O255  1  0.74071319  0.13498668  0.50321419  1
  O  O256  1  0.74517300  0.13023744  0.99947525  1
  O  O257  1  0.73444903  0.61812695  0.50495131  1
  O  O258  1  0.73594461  0.62003901  0.99017836  1
  O  O259  1  0.25970011  0.36929030  0.00856678  1
  O  O260  1  0.25870026  0.36406435  0.51217369  1
  O  O261  1  0.25647240  0.86731250  0.00419468  1
  O  O262  1  0.25796836  0.87075547  0.50658747  1
  O  O263  1  0.75000789  0.36842021  0.00660460  1
  O  O264  1  0.75382745  0.36487306  0.50522471  1
  O  O265  1  0.76347301  0.87753670  -0.00406032  1
  O  O266  1  0.74935233  0.87976164  0.50919970  1
  O  O267  1  0.13253314  0.49293709  0.24659201  1
  O  O268  1  0.12946556  0.49912262  0.73678769  1
  O  O269  1  0.12475630  0.98428342  0.25273461  1
  O  O270  1  0.13901575  1.00085084  0.75652909  1
  O  O271  1  0.62580559  0.48659406  0.26286228  1
  O  O272  1  0.63495405  0.49475843  0.74555908  1
  O  O273  1  0.62910915  0.99216562  0.25169414  1
  O  O274  1  0.63618903  1.04602361  0.73667864  1
  O  O275  1  0.37445965  0.01235586  0.24598209  1
  O  O276  1  0.36765621  0.00635988  0.75735008  1
  O  O277  1  0.36453226  0.49097242  0.26837006  1
  O  O278  1  0.36655722  0.49932749  0.75415956  1
  O  O279  1  0.86634011  0.00298269  0.25539411  1
  O  O280  1  0.87576392  0.00839954  0.76368101  1
  O  O281  1  0.87420137  0.49798365  0.26012543  1
  O  O282  1  0.87160532  0.50818483  0.75396883  1
  O  O283  1  0.11803675  0.35809389  0.36821181  1
  O  O284  1  0.12356946  0.35870048  0.88144649  1
  O  O285  1  0.11321761  0.86716527  0.36717217  1
  O  O286  1  0.11815624  0.86569419  0.87394042  1
  O  O287  1  0.62111970  0.36444211  0.36896819  1
  O  O288  1  0.62641534  0.37503051  0.86503289  1
  O  O289  1  0.61402261  0.87105543  0.37156802  1
  O  O290  1  0.61419405  0.86967632  0.88116430  1
  O  O291  1  0.38777162  0.12622512  0.13202549  1
  O  O292  1  0.37327845  0.13325228  0.63247917  1
  O  O293  1  0.41829485  0.54909035  0.11654517  1
  O  O294  1  0.39181193  0.62200666  0.62711612  1
  O  O295  1  0.88424239  0.12945710  0.13250211  1
  O  O296  1  0.88291570  0.12677171  0.63414377  1
  O  O297  1  0.87164343  0.63431770  0.12772769  1
  O  O298  1  0.88706288  0.62358257  0.63124613  1
  O  O299  1  0.24859108  0.26361545  0.11793775  1
  O  O300  1  0.25634790  0.25400049  0.62261039  1
  O  O301  1  0.24663076  0.75823899  0.11154823  1
  O  O302  1  0.24546765  0.76087128  0.62562444  1
  O  O303  1  0.75720970  0.25404887  0.11906605  1
  O  O304  1  0.75762173  0.25267978  0.61734213  1
  O  O305  1  0.76348388  0.75627587  0.12473633  1
  O  O306  1  0.75616793  0.76218908  0.62800950  1
  O  O307  1  0.24236555  0.24323203  0.37938042  1
  O  O308  1  0.24508050  0.25309219  0.88749669  1
  O  O309  1  0.23293622  0.75412630  0.37342234  1
  O  O310  1  0.24330878  0.74879141  0.88455069  1
  O  O311  1  0.73990498  0.25324015  0.38452762  1
  O  O312  1  0.75182334  0.24464447  0.88574519  1
  O  O313  1  0.73375952  0.75854850  0.36424578  1
  O  O314  1  0.73658752  0.75302478  0.86711635  1
  O  O315  1  0.00930480  0.12333534  0.01043761  1
  O  O316  1  -0.00257129  0.12971554  0.51830190  1
  O  O317  1  0.00662656  0.61147453  0.00079659  1
  O  O318  1  -0.00268829  0.61297209  0.50556660  1
  O  O319  1  0.50560556  0.12063480  0.00650040  1
  O  O320  1  0.50164660  0.11664394  0.49749611  1
  O  O321  1  0.50713455  0.61587702  -0.00185065  1
  O  O322  1  0.50704911  0.62043179  0.50407594  1
  O  O323  1  0.49188411  0.38408594  0.50199920  1
  O  O324  1  0.49593439  0.39503702  1.00905653  1
  O  O325  1  0.49273182  0.88017602  0.49300805  1
  O  O326  1  0.49446053  0.88126400  0.99504751  1
  O  O327  1  0.99387182  0.37810257  0.49400116  1
  O  O328  1  0.99814364  0.38593070  1.00052663  1
  O  O329  1  1.00075388  0.87152809  0.48665367  1
  O  O330  1  0.99593314  0.87454023  0.98803131  1
  O  O331  1  0.48981427  0.49813513  0.38713493  1
  O  O332  1  0.48958783  0.49681871  0.86129913  1
  O  O333  1  0.50276689  0.98821287  0.38252954  1
  O  O334  1  0.49344076  0.99509834  0.88311364  1
  O  O335  1  0.99576095  0.49228602  0.37965954  1
  O  O336  1  0.99542143  0.49759186  0.88023686  1
  O  O337  1  0.98885385  0.98316184  0.36756495  1
  O  O338  1  0.99444563  0.99075154  0.87600981  1
  O  O339  1  -0.00520764  0.00954268  0.12505501  1
  O  O340  1  0.00141369  0.01302739  0.63728979  1
  O  O341  1  0.00597474  0.50028836  0.11805472  1
  O  O342  1  0.00524774  0.50274664  0.61743653  1
  O  O343  1  0.49502347  0.00823944  0.11176104  1
  O  O344  1  0.50330352  0.00066858  0.61533716  1
  O  O345  1  0.55245623  0.49766996  0.13188140  1
  O  O346  1  0.50285272  0.50707162  0.61316115  1
  O  O347  1  0.24626935  0.37761927  0.24343871  1
  O  O348  1  0.25402490  0.38497800  0.74070617  1
  O  O349  1  0.24218225  0.87439131  0.24039599  1
  O  O350  1  0.25222330  0.88131563  0.74402257  1
  O  O351  1  0.74092721  0.36948122  0.24202770  1
  O  O352  1  0.74291060  0.38022936  0.74432483  1
  O  O353  1  0.72698510  0.88274440  0.24669964  1
  O  O354  1  0.75042636  0.87966006  0.73386308  1
  O  O355  1  0.25919429  0.12406361  0.25417176  1
  O  O356  1  0.26119049  0.11549430  0.74686525  1
  O  O357  1  0.25121107  0.61304014  0.23593071  1
  O  O358  1  0.25188829  0.61024578  0.74868962  1
  O  O359  1  0.75969365  0.12087096  0.24680510  1
  O  O360  1  0.76941523  0.13416392  0.76061906  1
  O  O361  1  0.72205944  0.60841241  0.22854365  1
  O  O362  1  0.75753384  0.61844016  0.74654813  1
  O  O363  1  0.36506885  0.13106511  0.36369963  1
  O  O364  1  0.37711661  0.11519250  0.87039192  1
  O  O365  1  0.37494320  0.61673283  0.38348166  1
  O  O366  1  0.37346805  0.61487317  0.87058490  1
  O  O367  1  0.88405604  0.10861522  0.36210138  1
  O  O368  1  0.87581959  0.11714895  0.87302516  1
  O  O369  1  0.87335434  0.60891276  0.36210625  1
  O  O370  1  0.87521156  0.61522830  0.86659021  1
  O  O371  1  0.13350688  0.37931620  0.13009197  1
  O  O372  1  0.13461481  0.37875219  0.62027995  1
  O  O373  1  0.13229230  0.86929301  0.13215161  1
  O  O374  1  0.13278910  0.87580827  0.63123309  1
  O  O375  1  0.63928500  0.36438799  0.13624919  1
  O  O376  1  0.63380007  0.37750911  0.62941950  1
  O  O377  1  0.61573340  0.87548979  0.13385105  1
  O  O378  1  0.63944920  0.87529200  0.62181332  1
  O  O379  1  0.12154363  0.25303534  0.25515464  1
  O  O380  1  0.11839751  0.24345403  0.76061957  1
  O  O381  1  0.11781979  0.75790075  0.25715058  1
  O  O382  1  0.12048925  0.74671941  0.76260835  1
  O  O383  1  0.61709240  0.25618193  0.25660845  1
  O  O384  1  0.62421659  0.25663439  0.75167609  1
  O  O385  1  0.61260228  0.76665536  0.25496534  1
  O  O386  1  0.61084630  0.74657777  0.76068702  1
  O  O387  1  0.38620734  0.24571706  0.25315541  1
  O  O388  1  0.37101712  0.24445607  0.74493828  1
  O  O389  1  0.38831216  0.75141171  0.25467953  1
  O  O390  1  0.39098418  0.74868413  0.75796669  1
  O  O391  1  0.87940995  0.23964554  0.24772149  1
  O  O392  1  0.88425513  0.24459112  0.74648703  1
  O  O393  1  0.88126367  0.74440673  0.23435569  1
  O  O394  1  0.88159203  0.73680421  0.75307701  1
  O  O395  1  0.37965906  0.49213781  0.49710723  1
  O  O396  1  0.38201875  0.49393012  0.98577650  1
  O  O397  1  0.38487558  0.99356701  0.50260701  1
  O  O398  1  0.38138520  0.99465344  0.99289367  1
  O  O399  1  0.88543299  0.49389383  0.49007977  1
  O  O400  1  0.88276601  0.50019838  0.99093245  1
  O  O401  1  0.87123323  1.01047628  0.48189782  1
  O  O402  1  0.87988310  0.99260235  0.99004907  1
  O  O403  1  0.12678011  0.01468177  -0.00680138  1
  O  O404  1  0.12484263  0.00468598  0.49925499  1
  O  O405  1  0.12059601  0.50186094  0.00357601  1
  O  O406  1  0.11206569  0.49727381  0.50912455  1
  O  O407  1  0.61605291  0.00897522  -0.00277052  1
  O  O408  1  0.61406932  0.01012425  0.49973515  1
  O  O409  1  0.61403621  0.51728795  -0.01115626  1
  O  O410  1  0.61684328  0.50891778  0.49743708  1
  O  O411  1  0.37028582  0.38365296  0.11383497  1
  O  O412  1  0.36664353  0.36951644  0.61803681  1
  O  O413  1  0.36805468  0.87748270  0.11064479  1
  O  O414  1  0.36498961  0.87851225  0.61386431  1
  O  O415  1  0.86337914  0.36881535  0.12463473  1
  O  O416  1  0.86993104  0.36757931  0.61685604  1
  O  O417  1  0.88276813  0.86178258  0.11494918  1
  O  O418  1  0.86330066  0.87393523  0.62247700  1
  O  O419  1  0.13130094  0.13361121  0.37041839  1
  O  O420  1  0.11979601  0.13910970  0.88782344  1
  O  O421  1  0.12030984  0.63670725  0.37125363  1
  O  O422  1  0.12961445  0.62996776  0.88218278  1
  O  O423  1  0.61849141  0.13771339  0.38344584  1
  O  O424  1  0.63006220  0.12978014  0.89117230  1
  O  O425  1  0.62226599  0.63626735  0.38781029  1
  O  O426  1  0.62735084  0.63465559  0.87935004  1
