# generated using pymatgen
data_V85Zn86O256
_symmetry_space_group_name_H-M   'P 1'
_cell_length_a   16.94317325
_cell_length_b   16.95230191
_cell_length_c   16.94163362
_cell_angle_alpha   90.11224808
_cell_angle_beta   89.98267187
_cell_angle_gamma   89.98310705
_symmetry_Int_Tables_number   1
_chemical_formula_structural   V85Zn86O256
_chemical_formula_sum   'V85 Zn86 O256'
_cell_volume   4866.06429725
_cell_formula_units_Z   1
loop_
 _symmetry_equiv_pos_site_id
 _symmetry_equiv_pos_as_xyz
  1  'x, y, z'
loop_
 _atom_site_type_symbol
 _atom_site_label
 _atom_site_symmetry_multiplicity
 _atom_site_fract_x
 _atom_site_fract_y
 _atom_site_fract_z
 _atom_site_occupancy
  V  V0  1  0.68546809  0.43633583  0.29557457  1
  V  V1  1  0.12939341  0.86424549  0.24787819  1
  V  V2  1  -0.00050641  0.38645013  0.36757169  1
  V  V3  1  0.87156281  -0.00069572  0.37485775  1
  V  V4  1  -0.00121535  0.12578104  0.12570491  1
  V  V5  1  0.25507409  0.50203602  0.76580392  1
  V  V6  1  0.25172545  -0.00155796  0.25073177  1
  V  V7  1  0.87318583  0.12828891  0.74350680  1
  V  V8  1  0.75129774  0.12268898  0.87267555  1
  V  V9  1  0.63350704  0.62468973  -0.01808690  1
  V  V10  1  0.62623127  0.62672599  0.50492910  1
  V  V11  1  0.13055174  0.00159110  0.12466861  1
  V  V12  1  0.74766955  0.37459066  0.12590529  1
  V  V13  1  0.87586394  0.25063100  0.12234554  1
  V  V14  1  0.36938389  0.86093708  0.50703329  1
  V  V15  1  0.63188763  -0.01177217  0.62310430  1
  V  V16  1  0.85688527  0.62528807  0.75371672  1
  V  V17  1  0.38214009  0.25371640  0.63197845  1
  V  V18  1  0.62661962  0.49591753  0.12534885  1
  V  V19  1  -0.00466980  0.25730475  0.75016003  1
  V  V20  1  0.12304145  0.12753992  -0.00186973  1
  V  V21  1  0.00003574  0.87601059  0.37314520  1
  V  V22  1  0.38056480  0.12845692  0.75123997  1
  V  V23  1  0.49647913  0.87081237  0.37571706  1
  V  V24  1  0.49440242  0.50176955  0.50377907  1
  V  V25  1  0.12056427  0.38622554  0.74858987  1
  V  V26  1  0.50027113  0.12553714  0.12467899  1
  V  V27  1  0.49567516  0.36818263  0.87103242  1
  V  V28  1  0.24879704  0.25383342  -0.00080528  1
  V  V29  1  0.13126444  0.61462267  0.50743222  1
  V  V30  1  0.37485853  -0.00055041  0.37936466  1
  V  V31  1  -0.00720824  0.63147355  0.11803536  1
  V  V32  1  0.48839328  0.63307480  0.62938105  1
  V  V33  1  0.62793689  0.12406413  -0.00113197  1
  V  V34  1  0.62538835  0.12759627  0.50198098  1
  V  V35  1  0.75170721  0.12347214  0.37308608  1
  V  V36  1  0.62063505  0.87615797  0.25533933  1
  V  V37  1  0.88255057  -0.00683551  0.87701963  1
  V  V38  1  0.79492122  -0.05132039  0.19855237  1
  V  V39  1  0.62018626  0.36562038  0.74915023  1
  V  V40  1  0.12457030  0.25717064  0.36946641  1
  V  V41  1  0.38140723  0.75491472  0.13183417  1
  V  V42  1  0.24652027  0.86554387  0.62353958  1
  V  V43  1  0.12032764  0.87942545  0.76093546  1
  V  V44  1  0.62364680  0.74738535  0.37428956  1
  V  V45  1  0.37102438  0.38040533  -0.00263657  1
  V  V46  1  0.11994326  0.25910571  0.87317013  1
  V  V47  1  0.87834960  0.38692859  0.50255927  1
  V  V48  1  0.75057033  0.24832194  -0.00243865  1
  V  V49  1  0.87005539  0.75286973  0.62643391  1
  V  V50  1  0.25485730  0.87276972  0.11506284  1
  V  V51  1  0.49652414  0.00233438  0.50491015  1
  V  V52  1  0.86917355  0.87501424  0.50447113  1
  V  V53  1  0.76217532  0.25030527  0.50517704  1
  V  V54  1  0.62898863  0.25231876  0.37176736  1
  V  V55  1  0.24672880  0.38481903  0.62530516  1
  V  V56  1  0.49868194  0.49635274  -0.00301947  1
  V  V57  1  0.37108043  0.37621242  0.50249094  1
  V  V58  1  0.87963784  0.37514621  -0.00638225  1
  V  V59  1  -0.00145388  0.13389543  0.62340876  1
  V  V60  1  0.37368643  0.25280884  0.12569966  1
  V  V61  1  0.43821513  0.82545603  -0.05724861  1
  V  V62  1  0.86108287  0.49810423  0.86716029  1
  V  V63  1  0.36502619  0.49779435  0.37076646  1
  V  V64  1  0.75606333  0.37484519  0.63432955  1
  V  V65  1  0.36692918  0.63224032  0.76043214  1
  V  V66  1  -0.00074353  0.00194777  0.50048990  1
  V  V67  1  0.00135826  0.62209514  0.62714582  1
  V  V68  1  0.24916261  0.63109750  0.37366616  1
  V  V69  1  0.37340128  0.62333679  0.24719763  1
  V  V70  1  0.62165985  0.87074258  0.76791967  1
  V  V71  1  0.86850760  0.61268789  0.25630708  1
  V  V72  1  0.87319144  0.12855407  0.24689643  1
  V  V73  1  -0.00284463  0.50240141  -0.00676629  1
  V  V74  1  0.62677499  0.50261143  0.63709830  1
  V  V75  1  -0.00276401  0.75187936  0.76154432  1
  V  V76  1  0.37762192  0.12406892  0.25200865  1
  V  V77  1  0.50422738  0.63209133  0.12701227  1
  V  V78  1  0.13360936  0.62451148  -0.00429679  1
  V  V79  1  0.12612073  0.12776618  0.50033007  1
  V  V80  1  0.50445015  0.25966135  0.25068521  1
  V  V81  1  0.62398230  -0.00241392  0.13161685  1
  V  V82  1  0.12731820  0.75390309  0.39075410  1
  V  V83  1  0.24953337  0.12559031  0.37717835  1
  V  V84  1  0.37948178  0.00260968  0.88064983  1
  Zn  Zn85  1  0.83873408  0.74940725  0.12981295  1
  Zn  Zn86  1  0.75459812  -0.00808695  0.74372312  1
  Zn  Zn87  1  0.25099003  0.25119725  0.50413625  1
  Zn  Zn88  1  0.23663695  0.37751893  0.14536159  1
  Zn  Zn89  1  0.50052395  -0.00754368  -0.00089762  1
  Zn  Zn90  1  0.00670873  0.25838891  0.24571972  1
  Zn  Zn91  1  0.61987033  0.24365714  0.86807633  1
  Zn  Zn92  1  -0.01124602  0.74912117  0.25053411  1
  Zn  Zn93  1  0.49612346  0.75681764  0.75576756  1
  Zn  Zn94  1  0.13222414  0.74678796  0.87450354  1
  Zn  Zn95  1  0.24795682  0.12545233  0.86948184  1
  Zn  Zn96  1  0.00174402  0.50131758  0.50282316  1
  Zn  Zn97  1  0.25151169  0.00205251  0.74726044  1
  Zn  Zn98  1  0.50407232  0.38172439  0.37270766  1
  Zn  Zn99  1  0.12616460  0.49788100  0.13885834  1
  Zn  Zn100  1  0.12687041  0.00226505  0.62802138  1
  Zn  Zn101  1  0.50423212  0.13129788  0.63113376  1
  Zn  Zn102  1  0.74926886  0.75422076  -0.01461881  1
  Zn  Zn103  1  0.00758591  -0.00864611  -0.01215404  1
  Zn  Zn104  1  0.25808688  0.74789201  -0.00729810  1
  Zn  Zn105  1  0.74784211  0.75262297  0.50359338  1
  Zn  Zn106  1  0.75240296  0.61414390  0.37553953  1
  Zn  Zn107  1  0.19052369  0.19093803  0.18739913  1
  Zn  Zn108  1  0.19223760  0.19333055  0.68755354  1
  Zn  Zn109  1  0.18690205  0.68000741  0.18318218  1
  Zn  Zn110  1  0.18593416  0.68936641  0.69177430  1
  Zn  Zn111  1  0.68997537  0.18675669  0.18688256  1
  Zn  Zn112  1  0.68745868  0.18669629  0.68430948  1
  Zn  Zn113  1  0.68622240  0.68143033  0.19264725  1
  Zn  Zn114  1  0.68324606  0.69700674  0.69069760  1
  Zn  Zn115  1  0.31861990  0.30645427  0.32039501  1
  Zn  Zn116  1  0.30983156  0.31326883  0.81368329  1
  Zn  Zn117  1  0.31311608  0.80956566  0.31114741  1
  Zn  Zn118  1  0.30484747  0.81274098  0.80871106  1
  Zn  Zn119  1  0.82315491  0.31001201  0.31728336  1
  Zn  Zn120  1  0.81158374  0.31188341  0.81307111  1
  Zn  Zn121  1  0.81209440  0.80218232  0.31863889  1
  Zn  Zn122  1  0.80154857  0.81390302  0.81137401  1
  Zn  Zn123  1  0.18341787  0.43932460  0.30488660  1
  Zn  Zn124  1  0.18265805  0.43875998  0.94395754  1
  Zn  Zn125  1  0.18813109  0.93894557  0.44183369  1
  Zn  Zn126  1  0.19255820  0.94000811  0.93352511  1
  Zn  Zn127  1  0.68591106  0.43769346  0.46059711  1
  Zn  Zn128  1  0.68537100  0.43538451  0.93684265  1
  Zn  Zn129  1  0.68782313  0.93898351  0.43802238  1
  Zn  Zn130  1  0.69294104  0.94226494  0.94019056  1
  Zn  Zn131  1  0.31219736  0.06525149  0.05989686  1
  Zn  Zn132  1  0.31114148  0.06102758  0.56897283  1
  Zn  Zn133  1  0.31023362  0.55817655  0.06767690  1
  Zn  Zn134  1  0.30705776  0.56485466  0.56561091  1
  Zn  Zn135  1  0.86665796  -0.12502840  0.00367639  1
  Zn  Zn136  1  0.81294387  0.06397310  0.56253434  1
  Zn  Zn137  1  0.81069624  0.56043740  0.06495656  1
  Zn  Zn138  1  0.81009410  0.56373321  0.56902427  1
  Zn  Zn139  1  0.43228108  0.43952794  0.18351915  1
  Zn  Zn140  1  0.43553984  0.44262786  0.69078117  1
  Zn  Zn141  1  0.44016672  0.93650044  0.18817859  1
  Zn  Zn142  1  0.43625284  0.93752188  0.68967522  1
  Zn  Zn143  1  0.93983109  0.44184091  0.18189079  1
  Zn  Zn144  1  0.93640602  0.44068459  0.68742424  1
  Zn  Zn145  1  0.96781304  0.91429839  0.15246096  1
  Zn  Zn146  1  0.94024651  0.94077340  0.68735353  1
  Zn  Zn147  1  0.06231200  0.06192615  0.31024228  1
  Zn  Zn148  1  0.06273937  0.06796234  0.80960003  1
  Zn  Zn149  1  0.05390266  0.57191002  0.31497845  1
  Zn  Zn150  1  0.05398102  0.56283002  0.81604214  1
  Zn  Zn151  1  0.56238453  0.06331751  0.31486314  1
  Zn  Zn152  1  0.56032708  0.05717357  0.80959077  1
  Zn  Zn153  1  0.55157128  0.56933594  0.31537636  1
  Zn  Zn154  1  0.55226366  0.55649335  0.81125371  1
  Zn  Zn155  1  0.43973785  0.19103723  0.43977823  1
  Zn  Zn156  1  0.43727119  0.18724614  0.93795589  1
  Zn  Zn157  1  0.43859933  0.68615047  0.43701962  1
  Zn  Zn158  1  0.43581017  0.66514603  0.93893346  1
  Zn  Zn159  1  0.94034725  0.19259392  0.43377468  1
  Zn  Zn160  1  0.93832443  0.18455328  0.93382551  1
  Zn  Zn161  1  0.94025443  0.68775956  0.43721567  1
  Zn  Zn162  1  0.89983783  0.70145533  0.92641940  1
  Zn  Zn163  1  0.06349802  0.31853707  0.06477209  1
  Zn  Zn164  1  0.06405597  0.31483116  0.56193279  1
  Zn  Zn165  1  0.05821112  0.80604616  0.05376239  1
  Zn  Zn166  1  0.05648942  0.81411922  0.57011639  1
  Zn  Zn167  1  0.56301747  0.31202500  0.06117733  1
  Zn  Zn168  1  0.56313982  0.31503924  0.56166656  1
  Zn  Zn169  1  0.61534486  0.79604961  0.07709833  1
  Zn  Zn170  1  0.55652348  0.81151745  0.56252004  1
  O  O171  1  0.12169107  0.12466284  0.11794486  1
  O  O172  1  0.11933091  0.12945632  0.61622078  1
  O  O173  1  0.11259073  0.62313395  0.11292124  1
  O  O174  1  0.11921222  0.63459416  0.61310491  1
  O  O175  1  0.61945065  0.11770695  0.12222688  1
  O  O176  1  0.62171486  0.11692397  0.61812473  1
  O  O177  1  0.61618385  0.61315007  0.12404058  1
  O  O178  1  0.61845615  0.61974894  0.62228698  1
  O  O179  1  0.37993940  0.38318461  0.38649638  1
  O  O180  1  0.38049703  0.36961614  0.88797409  1
  O  O181  1  0.37944494  0.87872161  0.38197116  1
  O  O182  1  0.37734115  0.88371888  0.87904190  1
  O  O183  1  0.89053143  0.37068075  0.38738171  1
  O  O184  1  0.87189664  0.38483306  0.88072203  1
  O  O185  1  0.88146444  0.87978799  0.37942931  1
  O  O186  1  0.87324707  0.89274599  0.86574331  1
  O  O187  1  0.25549677  0.00539006  0.37135598  1
  O  O188  1  0.26381793  0.00484524  0.87213642  1
  O  O189  1  0.26178264  0.51426967  0.37649997  1
  O  O190  1  0.24653640  0.49620262  0.86400531  1
  O  O191  1  0.75787209  0.01220880  0.38247205  1
  O  O192  1  0.75863649  0.01268738  0.86861361  1
  O  O193  1  0.73356266  0.49350577  0.36957902  1
  O  O194  1  0.76246527  0.49599658  0.87631063  1
  O  O195  1  0.24093805  0.48783245  0.11433608  1
  O  O196  1  0.25174627  0.48831945  0.63523209  1
  O  O197  1  0.24922351  0.99408557  0.13015976  1
  O  O198  1  0.24459493  0.99081442  0.62764717  1
  O  O199  1  0.73511214  0.49280840  0.12501810  1
  O  O200  1  0.73715683  0.48801293  0.61822485  1
  O  O201  1  0.73848229  1.00455671  0.13611599  1
  O  O202  1  0.73557635  1.00415349  0.62360330  1
  O  O203  1  -0.00994207  0.37651243  0.26394796  1
  O  O204  1  0.00722606  0.36685168  0.74134696  1
  O  O205  1  0.01322155  0.87185874  0.25106007  1
  O  O206  1  0.01061502  0.86511593  0.73890485  1
  O  O207  1  0.49432503  0.36229572  0.25013801  1
  O  O208  1  0.50504024  0.38076081  0.76002682  1
  O  O209  1  0.50476150  0.88031344  0.26806854  1
  O  O210  1  0.51522168  0.87370000  0.74115807  1
  O  O211  1  0.49865298  0.13229171  0.24165937  1
  O  O212  1  0.48684577  0.12349630  0.74874539  1
  O  O213  1  0.48675207  0.62535234  0.24015417  1
  O  O214  1  0.48462634  0.62447422  0.74614872  1
  O  O215  1  0.99025694  0.12744748  0.24486344  1
  O  O216  1  0.99422130  0.13537412  0.74107197  1
  O  O217  1  0.98538767  0.62787309  0.24058741  1
  O  O218  1  0.99643452  0.63392611  0.74304617  1
  O  O219  1  0.36516434  0.25360365  0.00484643  1
  O  O220  1  0.37493490  0.26103077  0.50588790  1
  O  O221  1  0.38409301  0.75508641  0.00493906  1
  O  O222  1  0.37892329  0.76228011  0.49859884  1
  O  O223  1  0.87223756  0.25605281  0.00105668  1
  O  O224  1  0.86522853  0.25636937  0.49704123  1
  O  O225  1  0.87469101  0.75846946  0.02112504  1
  O  O226  1  0.87579479  0.75819512  0.50621221  1
  O  O227  1  0.12569130  0.24163424  0.49044693  1
  O  O228  1  0.12802044  0.24809332  0.99272084  1
  O  O229  1  0.12011592  0.75111313  0.49197642  1
  O  O230  1  0.12482573  0.73611193  0.99726191  1
  O  O231  1  0.63158492  0.25044903  0.48839288  1
  O  O232  1  0.62968695  0.23673036  1.00069447  1
  O  O233  1  0.62428206  0.74124911  0.49758060  1
  O  O234  1  0.62285605  0.72844111  0.98631378  1
  O  O235  1  0.49726462  0.24417347  0.13284501  1
  O  O236  1  0.48696713  0.25150148  0.61913347  1
  O  O237  1  0.49981086  0.73621201  0.11922380  1
  O  O238  1  0.50227951  0.73566472  0.62845853  1
  O  O239  1  0.99650350  0.24016365  0.12521041  1
  O  O240  1  1.00404830  0.24060413  0.63207582  1
  O  O241  1  1.00516445  0.73460541  0.13126380  1
  O  O242  1  0.98884034  0.74029253  0.63066063  1
  O  O243  1  0.00895273  0.26160375  0.37311018  1
  O  O244  1  0.00831841  0.24585047  0.86286806  1
  O  O245  1  0.01024960  0.75830887  0.37063939  1
  O  O246  1  -0.00601435  0.74815698  0.86280664  1
  O  O247  1  0.51058583  0.25523441  0.36919647  1
  O  O248  1  0.50344157  0.26313502  0.88235560  1
  O  O249  1  0.51104172  0.75901042  0.38222332  1
  O  O250  1  0.48535435  0.75860411  0.88198482  1
  O  O251  1  0.24165156  0.12597301  0.49676374  1
  O  O252  1  0.23854057  0.13757258  1.00162059  1
  O  O253  1  0.23886202  0.62609735  0.49419551  1
  O  O254  1  0.23601305  0.62519078  1.00444819  1
  O  O255  1  0.74593554  0.13457787  0.49612974  1
  O  O256  1  0.74095729  0.13107749  0.98824302  1
  O  O257  1  0.73546444  0.62127916  0.49784774  1
  O  O258  1  0.73372318  0.61755139  1.00161978  1
  O  O259  1  0.25549818  0.36408422  -0.00462576  1
  O  O260  1  0.26441209  0.37646593  0.50980018  1
  O  O261  1  0.24697973  0.87607093  0.01318709  1
  O  O262  1  0.25587483  0.87775608  0.51179104  1
  O  O263  1  0.75800640  0.36750610  0.00382698  1
  O  O264  1  0.75992557  0.36777769  0.50943525  1
  O  O265  1  0.75052994  0.87033542  -0.00132513  1
  O  O266  1  0.76561288  0.87551111  0.49492385  1
  O  O267  1  0.12955561  0.52044801  0.25315804  1
  O  O268  1  0.12972415  0.49073077  0.75661108  1
  O  O269  1  0.13330479  0.99083910  0.24525483  1
  O  O270  1  0.12521403  0.99396419  0.74877319  1
  O  O271  1  0.61535961  0.49776606  0.24517055  1
  O  O272  1  0.61859842  0.49057839  0.74020351  1
  O  O273  1  0.62091090  0.99027857  0.24711010  1
  O  O274  1  0.62395336  0.99285805  0.73512980  1
  O  O275  1  0.37214257  0.00521096  0.25848259  1
  O  O276  1  0.37505392  0.00767601  0.76063743  1
  O  O277  1  0.38143015  0.50927298  0.25966607  1
  O  O278  1  0.35998583  0.50600476  0.75158518  1
  O  O279  1  0.86601828  0.00623920  0.25200870  1
  O  O280  1  0.87383303  0.01087512  0.75338155  1
  O  O281  1  0.87555766  0.51359782  0.24763205  1
  O  O282  1  0.87457898  0.50540782  0.76014460  1
  O  O283  1  0.11147433  0.36934753  0.37517779  1
  O  O284  1  0.12633034  0.36567326  0.86741122  1
  O  O285  1  0.12314779  0.87077763  0.36889281  1
  O  O286  1  0.12421804  0.87696821  0.86438157  1
  O  O287  1  0.62830630  0.37331313  0.37028370  1
  O  O288  1  0.61794943  0.37188044  0.86539174  1
  O  O289  1  0.61651486  0.87082955  0.37485652  1
  O  O290  1  0.61900793  0.89005010  0.86482795  1
  O  O291  1  0.38249857  0.13135642  0.13001785  1
  O  O292  1  0.37731701  0.13548441  0.63176761  1
  O  O293  1  0.38105002  0.63112491  0.12917748  1
  O  O294  1  0.38049024  0.61798540  0.63662787  1
  O  O295  1  0.88537965  0.13186313  0.13259363  1
  O  O296  1  0.88159979  0.12481894  0.63482958  1
  O  O297  1  0.87989089  0.62506244  0.13235364  1
  O  O298  1  0.88095763  0.63077453  0.63250255  1
  O  O299  1  0.25619144  0.25506302  0.11768000  1
  O  O300  1  0.26193977  0.26369954  0.62405457  1
  O  O301  1  0.26336545  0.75577352  0.11876803  1
  O  O302  1  0.24626915  0.76603616  0.62887342  1
  O  O303  1  0.75636825  0.25342005  0.11761555  1
  O  O304  1  0.74295882  0.26030010  0.61405758  1
  O  O305  1  0.72262610  0.75233519  0.11426967  1
  O  O306  1  0.76436346  0.74563841  0.62131494  1
  O  O307  1  0.24352292  0.24185102  0.38233143  1
  O  O308  1  0.24040025  0.24762000  0.88261616  1
  O  O309  1  0.24371129  0.73997210  0.37396774  1
  O  O310  1  0.24693558  0.75351079  0.88131483  1
  O  O311  1  0.74595880  0.24514242  0.38205956  1
  O  O312  1  0.74598944  0.23912793  0.87803113  1
  O  O313  1  0.73454917  0.74606991  0.38340528  1
  O  O314  1  0.79222798  0.73023526  0.88106848  1
  O  O315  1  0.01073587  0.12526828  0.00674796  1
  O  O316  1  0.00472031  0.12504904  0.50552138  1
  O  O317  1  -0.00307748  0.62029646  0.00996051  1
  O  O318  1  0.01132449  0.62584335  0.50624034  1
  O  O319  1  0.50670436  0.12767224  0.01312632  1
  O  O320  1  0.50706310  0.11767002  0.50026050  1
  O  O321  1  0.50940974  0.61246949  0.00735084  1
  O  O322  1  0.50414977  0.61772387  0.50828764  1
  O  O323  1  0.49260550  0.38884489  0.50156225  1
  O  O324  1  0.49247868  0.37874718  0.99599724  1
  O  O325  1  0.49117101  0.88247591  0.49422617  1
  O  O326  1  0.50440929  0.87288044  1.00082494  1
  O  O327  1  0.99370990  0.37849251  0.49635011  1
  O  O328  1  0.98516443  0.38281120  1.00445257  1
  O  O329  1  0.99270864  0.88265924  0.49431229  1
  O  O330  1  0.98533615  0.88903252  1.03628190  1
  O  O331  1  0.48822878  0.50190629  0.38682540  1
  O  O332  1  0.50238327  0.48580092  0.88959184  1
  O  O333  1  0.49673998  0.99423367  0.38744269  1
  O  O334  1  0.48562424  1.00455248  0.87984758  1
  O  O335  1  1.00265279  0.48885211  0.38112376  1
  O  O336  1  0.98964655  0.49785654  0.88856580  1
  O  O337  1  0.99273162  0.99557881  0.37912949  1
  O  O338  1  0.98784237  1.00793759  0.87245925  1
  O  O339  1  0.01376716  0.01796314  0.12978443  1
  O  O340  1  0.00356443  0.01576756  0.61844240  1
  O  O341  1  -0.00171919  0.51254075  0.11309394  1
  O  O342  1  -0.00312726  0.51711831  0.62457288  1
  O  O343  1  0.50564476  0.00967473  0.12444894  1
  O  O344  1  0.50681261  0.00136495  0.61404329  1
  O  O345  1  0.50802128  0.50267750  0.11676317  1
  O  O346  1  0.50430292  0.50920426  0.62068673  1
  O  O347  1  0.25977085  0.37414303  0.25747642  1
  O  O348  1  0.24400693  0.38655664  0.74707483  1
  O  O349  1  0.24634308  0.87969794  0.24328706  1
  O  O350  1  0.23934366  0.87891823  0.73961269  1
  O  O351  1  0.75279454  0.37115788  0.24651602  1
  O  O352  1  0.74130118  0.36953709  0.73976919  1
  O  O353  1  0.74208450  0.88444362  0.26124049  1
  O  O354  1  0.73006092  0.87736680  0.74976180  1
  O  O355  1  0.25724109  0.11916437  0.25585289  1
  O  O356  1  0.26235378  0.12461041  0.74949609  1
  O  O357  1  0.26438748  0.63275643  0.25692664  1
  O  O358  1  0.25678524  0.61356127  0.74464562  1
  O  O359  1  0.76461810  0.13231739  0.25632748  1
  O  O360  1  0.75786988  0.12603605  0.75383643  1
  O  O361  1  0.76115861  0.62287049  0.25532755  1
  O  O362  1  0.75828568  0.62483456  0.74178953  1
  O  O363  1  0.37105607  0.12085672  0.37242943  1
  O  O364  1  0.37299747  0.11955227  0.86983077  1
  O  O365  1  0.36927944  0.62243187  0.36850233  1
  O  O366  1  0.37233753  0.61792120  0.85940515  1
  O  O367  1  0.87374168  0.12026991  0.36688931  1
  O  O368  1  0.86831693  0.12062452  0.86386975  1
  O  O369  1  0.87356821  0.62862316  0.36276814  1
  O  O370  1  0.88324442  0.60520095  0.86382756  1
  O  O371  1  0.12046873  0.38006958  0.13482261  1
  O  O372  1  0.13526540  0.36935328  0.63556862  1
  O  O373  1  0.13503243  0.87748405  0.13223037  1
  O  O374  1  0.13337395  0.87809985  0.62901394  1
  O  O375  1  0.63291558  0.38080799  0.12290155  1
  O  O376  1  0.62882561  0.38235452  0.63089986  1
  O  O377  1  0.61348492  0.88936201  0.13981119  1
  O  O378  1  0.62504181  0.88765436  0.61676561  1
  O  O379  1  0.12415542  0.24170249  0.26559462  1
  O  O380  1  0.11944196  0.25953854  0.75638620  1
  O  O381  1  0.13075254  0.75831675  0.25671473  1
  O  O382  1  0.11477993  0.75706786  0.75437141  1
  O  O383  1  0.61968614  0.24416590  0.26242240  1
  O  O384  1  0.62257547  0.26137819  0.74682589  1
  O  O385  1  0.62673054  0.76564174  0.26072129  1
  O  O386  1  0.61839015  0.76403586  0.75607304  1
  O  O387  1  0.38658079  0.24105762  0.24857357  1
  O  O388  1  0.37151072  0.24468821  0.74304017  1
  O  O389  1  0.37733656  0.74410687  0.23780124  1
  O  O390  1  0.37466544  0.73612322  0.75170307  1
  O  O391  1  0.88055224  0.24308987  0.24219026  1
  O  O392  1  0.88564121  0.24347831  0.75474192  1
  O  O393  1  0.87051442  0.74163729  0.24258901  1
  O  O394  1  0.87985390  0.74395661  0.74181268  1
  O  O395  1  0.37816417  0.49683463  0.49589287  1
  O  O396  1  0.38483593  0.49134807  1.00472905  1
  O  O397  1  0.38190992  0.99599106  0.49666516  1
  O  O398  1  0.37827586  1.00636085  0.98790498  1
  O  O399  1  0.87461745  0.49005154  0.50282491  1
  O  O400  1  0.87627991  0.49347356  0.99158206  1
  O  O401  1  0.88094161  0.99514569  0.49658145  1
  O  O402  1  0.87858657  0.99962728  0.97923856  1
  O  O403  1  0.12622428  0.01032738  0.00447808  1
  O  O404  1  0.11746631  0.01402834  0.49806773  1
  O  O405  1  0.11310413  0.51078112  -0.00124732  1
  O  O406  1  0.12489381  0.51722335  0.50244029  1
  O  O407  1  0.62268201  0.01123793  0.01069593  1
  O  O408  1  0.61828428  0.00462043  0.50725040  1
  O  O409  1  0.61765184  0.50160505  0.00801342  1
  O  O410  1  0.61225035  0.50784955  0.51228071  1
  O  O411  1  0.37729527  0.36653596  0.11176576  1
  O  O412  1  0.37147661  0.37211033  0.62186666  1
  O  O413  1  0.36986029  0.86659228  0.13088945  1
  O  O414  1  0.36064091  0.88006729  0.61908831  1
  O  O415  1  0.86822093  0.37037888  0.11692836  1
  O  O416  1  0.86604937  0.37791666  0.61930019  1
  O  O417  1  0.85492263  0.88683143  0.14348453  1
  O  O418  1  0.88209801  0.86745766  0.61596872  1
  O  O419  1  0.12851128  0.13027400  0.38233932  1
  O  O420  1  0.12583881  0.13558900  0.88286128  1
  O  O421  1  0.13039583  0.63524979  0.38713697  1
  O  O422  1  0.11530969  0.62525009  0.89255085  1
  O  O423  1  0.63091254  0.13309762  0.38113058  1
  O  O424  1  0.63023643  0.12190510  0.88067002  1
  O  O425  1  0.62061137  0.63239543  0.38444182  1
  O  O426  1  0.62300363  0.60931930  0.88415527  1
