# generated using pymatgen
data_V85Zn86O256
_symmetry_space_group_name_H-M   'P 1'
_cell_length_a   16.96110256
_cell_length_b   16.95270408
_cell_length_c   16.94083755
_cell_angle_alpha   89.98425500
_cell_angle_beta   90.02452445
_cell_angle_gamma   90.01599666
_symmetry_Int_Tables_number   1
_chemical_formula_structural   V85Zn86O256
_chemical_formula_sum   'V85 Zn86 O256'
_cell_volume   4871.10920794
_cell_formula_units_Z   1
loop_
 _symmetry_equiv_pos_site_id
 _symmetry_equiv_pos_as_xyz
  1  'x, y, z'
loop_
 _atom_site_type_symbol
 _atom_site_label
 _atom_site_symmetry_multiplicity
 _atom_site_fract_x
 _atom_site_fract_y
 _atom_site_fract_z
 _atom_site_occupancy
  V  V0  1  0.37357787  -0.00149828  0.37146049  1
  V  V1  1  -0.00404936  0.25012179  0.75157095  1
  V  V2  1  0.38573486  0.37641987  -0.00270658  1
  V  V3  1  0.00408240  0.63160982  0.63323809  1
  V  V4  1  0.49501146  0.62327533  0.11170297  1
  V  V5  1  0.74293520  0.38152048  0.62386260  1
  V  V6  1  0.00394468  0.11938668  0.12619183  1
  V  V7  1  0.00485530  0.77042928  0.25295336  1
  V  V8  1  0.74856250  0.50529188  0.25319777  1
  V  V9  1  -0.00029028  0.38381814  0.87252484  1
  V  V10  1  0.87224823  0.12671133  0.75215553  1
  V  V11  1  0.24854149  0.86621477  0.63149071  1
  V  V12  1  0.24878079  0.24744802  -0.00067861  1
  V  V13  1  0.62575555  0.12118338  0.49936328  1
  V  V14  1  0.49713949  -0.00529265  -0.00444665  1
  V  V15  1  0.75002557  0.13046477  0.87589843  1
  V  V16  1  0.62192840  0.12590409  -0.00113628  1
  V  V17  1  0.12331481  0.76371215  0.85945929  1
  V  V18  1  0.37723309  0.37502288  0.50288985  1
  V  V19  1  0.62532685  -0.00152999  0.62518799  1
  V  V20  1  0.49691501  0.25004360  0.25002800  1
  V  V21  1  0.62977678  0.87105290  0.24532223  1
  V  V22  1  0.62785665  0.62257691  0.50506323  1
  V  V23  1  0.87461668  0.25041480  0.62577081  1
  V  V24  1  0.62327579  -0.00397093  0.12385411  1
  V  V25  1  0.37301255  0.12416252  0.24778764  1
  V  V26  1  0.23576895  -0.00286113  0.24814688  1
  V  V27  1  -0.01000587  0.87961838  0.87287387  1
  V  V28  1  0.87502257  0.75322716  0.11456545  1
  V  V29  1  0.63252178  0.74415929  0.87342435  1
  V  V30  1  0.49585416  0.74702634  0.24067199  1
  V  V31  1  0.61901688  0.25776927  0.87566644  1
  V  V32  1  0.49984830  0.37690004  0.37576708  1
  V  V33  1  0.88694227  0.87736206  0.49616386  1
  V  V34  1  0.49698289  0.12425500  0.12439277  1
  V  V35  1  0.01155007  0.62587430  0.12704121  1
  V  V36  1  0.75322594  0.87632001  0.62412943  1
  V  V37  1  0.61899099  0.38282306  0.74655342  1
  V  V38  1  0.12477716  0.23982745  0.87381776  1
  V  V39  1  0.12344532  0.37472971  0.74565437  1
  V  V40  1  0.12599945  0.00216052  0.10158238  1
  V  V41  1  0.87075113  0.24163517  0.13790710  1
  V  V42  1  0.37400631  0.86358922  0.00340428  1
  V  V43  1  0.37524031  0.63492372  0.75462945  1
  V  V44  1  0.25108755  0.50339984  0.76177233  1
  V  V45  1  0.64442192  0.62546581  -0.00520855  1
  V  V46  1  0.05911485  0.44891764  0.05723123  1
  V  V47  1  0.75055871  0.24796240  0.50056886  1
  V  V48  1  0.87981524  0.62922188  0.25383834  1
  V  V49  1  0.49892135  0.87253742  0.37078130  1
  V  V50  1  0.24824824  0.12557260  0.37376689  1
  V  V51  1  0.37545087  0.50174248  0.37314420  1
  V  V52  1  0.61930126  0.50174699  0.12001732  1
  V  V53  1  0.61719375  0.86735934  0.74944794  1
  V  V54  1  0.36625206  -0.00177851  0.86939988  1
  V  V55  1  0.23356000  0.49390716  0.24696158  1
  V  V56  1  0.75385607  0.75244115  0.49822073  1
  V  V57  1  0.62718947  0.74856187  0.37319001  1
  V  V58  1  0.87765862  0.38074999  0.49826075  1
  V  V59  1  0.12591846  0.76637804  0.37728455  1
  V  V60  1  0.50422163  0.50125472  0.51066089  1
  V  V61  1  0.75247729  -0.00198968  0.75284081  1
  V  V62  1  0.24791852  0.86494130  0.12665872  1
  V  V63  1  0.00077367  0.12441455  0.62625433  1
  V  V64  1  0.75406534  0.87183502  0.10852681  1
  V  V65  1  0.00193800  0.50608850  0.49650999  1
  V  V66  1  0.37223118  0.62446706  0.24307757  1
  V  V67  1  0.50098663  0.63602021  0.63051653  1
  V  V68  1  0.12510150  0.63003588  -0.01183362  1
  V  V69  1  0.25244485  0.37818468  0.62755131  1
  V  V70  1  0.13395452  -0.00120428  0.64382818  1
  V  V71  1  0.39105006  0.50064962  0.87874469  1
  V  V72  1  0.75392942  0.12075543  0.36727047  1
  V  V73  1  0.49674909  0.24642281  0.75072408  1
  V  V74  1  0.00498513  0.26338289  0.25639082  1
  V  V75  1  0.49795335  -0.00507704  0.49895807  1
  V  V76  1  0.62428283  0.24850063  0.37556570  1
  V  V77  1  0.12433224  0.12328505  0.49858262  1
  V  V78  1  0.24986344  0.25157977  0.49859984  1
  V  V79  1  0.88175833  0.75380014  0.63460854  1
  V  V80  1  0.88513917  -0.00098928  0.36349052  1
  V  V81  1  0.87333946  0.38031975  0.00581380  1
  V  V82  1  0.24820498  0.63058608  0.38229269  1
  V  V83  1  0.74885561  0.37555282  0.12887517  1
  V  V84  1  0.62197503  0.37787357  0.25087543  1
  Zn  Zn85  1  0.75335050  0.62608611  0.37872499  1
  Zn  Zn86  1  0.36955216  0.74695203  0.61232752  1
  Zn  Zn87  1  0.24295381  0.11839556  0.87277987  1
  Zn  Zn88  1  0.25429549  0.74073938  -0.00443117  1
  Zn  Zn89  1  0.37553278  0.24435251  0.62671815  1
  Zn  Zn90  1  0.24082938  0.37666236  0.12491728  1
  Zn  Zn91  1  0.12631409  0.26073416  0.36472863  1
  Zn  Zn92  1  0.75482002  -0.00166895  0.24765928  1
  Zn  Zn93  1  0.36120391  0.86625068  0.49422575  1
  Zn  Zn94  1  0.87745455  0.49896344  0.37610423  1
  Zn  Zn95  1  0.12750676  0.63327583  0.50115448  1
  Zn  Zn96  1  0.87106686  0.62584603  0.75936650  1
  Zn  Zn97  1  0.36706769  0.11548282  0.74305252  1
  Zn  Zn98  1  0.74879215  0.25159862  0.00291197  1
  Zn  Zn99  1  0.00287212  -0.00096243  0.49804790  1
  Zn  Zn100  1  0.49671219  0.12126755  0.62610432  1
  Zn  Zn101  1  0.86880372  0.51305429  0.88067855  1
  Zn  Zn102  1  0.74935451  0.50720386  0.75679739  1
  Zn  Zn103  1  0.87227471  -0.00528816  0.89919873  1
  Zn  Zn104  1  0.12722942  0.50519671  0.62451387  1
  Zn  Zn105  1  0.49596227  0.86405100  0.86895024  1
  Zn  Zn106  1  0.36998483  0.25446569  0.12460215  1
  Zn  Zn107  1  0.18449598  0.18794351  0.18462422  1
  Zn  Zn108  1  0.18963096  0.18690041  0.68894267  1
  Zn  Zn109  1  0.18542857  0.68729116  0.19497039  1
  Zn  Zn110  1  0.18962366  0.68637453  0.69186749  1
  Zn  Zn111  1  0.68289347  0.18645946  0.18853544  1
  Zn  Zn112  1  0.68418939  0.19019647  0.68796359  1
  Zn  Zn113  1  0.68980075  0.68738496  0.18213834  1
  Zn  Zn114  1  0.69015462  0.68950496  0.68632759  1
  Zn  Zn115  1  0.31088265  0.31388310  0.31259543  1
  Zn  Zn116  1  0.31292433  0.31219939  0.81513696  1
  Zn  Zn117  1  0.31116778  0.81144366  0.30863281  1
  Zn  Zn118  1  0.30405500  0.81659397  0.81269039  1
  Zn  Zn119  1  0.81152625  0.31416113  0.31563366  1
  Zn  Zn120  1  0.79761581  0.34346746  0.82793996  1
  Zn  Zn121  1  0.81696731  0.81536084  0.31012960  1
  Zn  Zn122  1  0.81293945  0.81142723  0.81848284  1
  Zn  Zn123  1  0.18680958  0.44455646  0.43559683  1
  Zn  Zn124  1  0.19366868  0.42628009  0.93299412  1
  Zn  Zn125  1  0.18771746  0.94036831  0.44340900  1
  Zn  Zn126  1  0.18820799  0.92778387  0.93639128  1
  Zn  Zn127  1  0.68843035  0.43879402  0.43860461  1
  Zn  Zn128  1  0.68453415  0.43859009  0.93939194  1
  Zn  Zn129  1  0.69078323  0.93556136  0.43488772  1
  Zn  Zn130  1  0.68465117  0.93769700  0.93197440  1
  Zn  Zn131  1  0.31104326  0.06119911  0.05877335  1
  Zn  Zn132  1  0.31207735  0.05844954  0.56208202  1
  Zn  Zn133  1  0.30681769  0.55713168  0.06180426  1
  Zn  Zn134  1  0.31632929  0.56271633  0.56534210  1
  Zn  Zn135  1  0.80386020  0.06803774  0.06967475  1
  Zn  Zn136  1  0.81446382  0.06058543  0.55947769  1
  Zn  Zn137  1  0.81888630  0.56247759  0.06955707  1
  Zn  Zn138  1  0.81162324  0.56832779  0.57794102  1
  Zn  Zn139  1  0.43351842  0.43946743  0.18351979  1
  Zn  Zn140  1  0.43824711  0.43859358  0.69174089  1
  Zn  Zn141  1  0.43328709  0.93580327  0.18449846  1
  Zn  Zn142  1  0.43274397  0.93227487  0.68372729  1
  Zn  Zn143  1  0.93442387  0.43579129  0.19613768  1
  Zn  Zn144  1  0.93437816  0.44355962  0.68413858  1
  Zn  Zn145  1  0.94146446  0.93479502  0.05960644  1
  Zn  Zn146  1  0.94131303  0.93859619  0.69143412  1
  Zn  Zn147  1  0.05810857  0.07060459  0.30785451  1
  Zn  Zn148  1  0.05455506  0.05699620  0.81876521  1
  Zn  Zn149  1  0.06199389  0.56766587  0.31834986  1
  Zn  Zn150  1  0.06099563  0.56210782  0.81113191  1
  Zn  Zn151  1  0.56349723  0.05993903  0.31123150  1
  Zn  Zn152  1  0.56117555  0.06209723  0.81267472  1
  Zn  Zn153  1  0.56085507  0.56532095  0.31433038  1
  Zn  Zn154  1  0.56281953  0.56516584  0.81289011  1
  Zn  Zn155  1  0.43678023  0.18508556  0.43837913  1
  Zn  Zn156  1  0.43451788  0.18626603  0.93597041  1
  Zn  Zn157  1  0.43828644  0.68697779  0.43414361  1
  Zn  Zn158  1  0.44286148  0.68738471  0.92995323  1
  Zn  Zn159  1  0.93613890  0.18558264  0.43704516  1
  Zn  Zn160  1  0.93268725  0.19199711  0.94219114  1
  Zn  Zn161  1  0.94333988  0.69134032  0.43745213  1
  Zn  Zn162  1  0.94767438  0.68690158  0.93409265  1
  Zn  Zn163  1  0.04944199  0.27334875  0.05139377  1
  Zn  Zn164  1  0.08133155  0.33200650  0.53000598  1
  Zn  Zn165  1  0.06614859  0.81174828  0.06170035  1
  Zn  Zn166  1  0.06888605  0.81503451  0.56485682  1
  Zn  Zn167  1  0.55998492  0.31176200  0.06349098  1
  Zn  Zn168  1  0.56111526  0.30865982  0.56568573  1
  Zn  Zn169  1  0.56369916  0.80603608  0.05725814  1
  Zn  Zn170  1  0.56212373  0.81168328  0.56118265  1
  O  O171  1  0.12033267  0.11029967  0.12719837  1
  O  O172  1  0.11860813  0.11600968  0.62349118  1
  O  O173  1  0.11467220  0.62691152  0.12397793  1
  O  O174  1  0.11583883  0.62847963  0.62231898  1
  O  O175  1  0.61730749  0.11834927  0.11977813  1
  O  O176  1  0.62458545  0.11662139  0.61510787  1
  O  O177  1  0.62051967  0.61930439  0.11458307  1
  O  O178  1  0.61632994  0.63026510  0.61188333  1
  O  O179  1  0.38071838  0.38063021  0.38318641  1
  O  O180  1  0.37209086  0.38675739  0.88643774  1
  O  O181  1  0.38159815  0.88161833  0.37126224  1
  O  O182  1  0.37732144  0.88259140  0.88180753  1
  O  O183  1  0.86664238  0.37787118  0.39350301  1
  O  O184  1  0.89055137  0.35895703  0.89409339  1
  O  O185  1  0.86953633  0.88989911  0.38268182  1
  O  O186  1  0.88359773  0.87507102  0.88020206  1
  O  O187  1  0.25449340  0.00501948  0.36697666  1
  O  O188  1  0.26335480  -0.00191821  0.87994896  1
  O  O189  1  0.25601835  0.50707748  0.36588662  1
  O  O190  1  0.25523980  0.49582213  0.86406539  1
  O  O191  1  0.75589711  0.00681040  0.37185263  1
  O  O192  1  0.75202427  0.00943341  0.86812551  1
  O  O193  1  0.74963742  0.50411822  0.36366588  1
  O  O194  1  0.76491264  0.45841565  0.86461161  1
  O  O195  1  0.24777135  0.49756569  0.14267724  1
  O  O196  1  0.25402644  0.48955567  0.63262922  1
  O  O197  1  0.24012953  0.99833786  0.12951969  1
  O  O198  1  0.23613694  1.00295414  0.62925072  1
  O  O199  1  0.74079792  0.49755939  0.13717045  1
  O  O200  1  0.74822481  0.48230764  0.62043082  1
  O  O201  1  0.73986058  0.99077586  0.13028643  1
  O  O202  1  0.74458857  0.99589706  0.63115367  1
  O  O203  1  -0.00303265  0.36316672  0.25711112  1
  O  O204  1  0.00199416  0.36971809  0.75491068  1
  O  O205  1  -0.00097907  0.86459685  0.24697118  1
  O  O206  1  -0.00478247  0.87818118  0.77047855  1
  O  O207  1  0.50327815  0.37161936  0.25460228  1
  O  O208  1  0.51090691  0.36497477  0.74254735  1
  O  O209  1  0.50632115  0.86541435  0.24812683  1
  O  O210  1  0.51472098  0.87981818  0.74698861  1
  O  O211  1  0.49364208  0.12850488  0.24550894  1
  O  O212  1  0.49739740  0.13224368  0.74772985  1
  O  O213  1  0.49329149  0.62996338  0.24158916  1
  O  O214  1  0.49111152  0.61653600  0.73940146  1
  O  O215  1  1.00094959  0.13590852  0.23287047  1
  O  O216  1  0.99027065  0.12772579  0.74670020  1
  O  O217  1  0.99328565  0.62533592  0.24391443  1
  O  O218  1  0.99806487  0.62338982  0.73542737  1
  O  O219  1  0.37098672  0.26231447  -0.00257311  1
  O  O220  1  0.37071328  0.25958248  0.49946836  1
  O  O221  1  0.37389624  0.75941432  -0.00759815  1
  O  O222  1  0.38073113  0.75496585  0.49777704  1
  O  O223  1  0.87270916  0.26108950  0.02025978  1
  O  O224  1  0.87088346  0.25647840  0.50594446  1
  O  O225  1  0.88327957  0.74205802  0.01783751  1
  O  O226  1  0.87113908  0.75995817  0.50144615  1
  O  O227  1  0.13606753  0.23039125  0.51579040  1
  O  O228  1  0.13687892  0.25656509  0.98552294  1
  O  O229  1  0.11983169  0.75156205  0.48191700  1
  O  O230  1  0.12853956  0.73706786  0.99715651  1
  O  O231  1  0.62816086  0.24175119  0.49345515  1
  O  O232  1  0.62298863  0.24487639  0.99258419  1
  O  O233  1  0.63231189  0.74489787  0.49382527  1
  O  O234  1  0.62685063  0.73175062  0.99553363  1
  O  O235  1  0.49677755  0.24299826  0.13339263  1
  O  O236  1  0.49821983  0.24313002  0.63447813  1
  O  O237  1  0.50391017  0.73972861  0.13423459  1
  O  O238  1  0.49826089  0.73891699  0.62344177  1
  O  O239  1  0.98478645  0.25261524  0.14186864  1
  O  O240  1  0.99641429  0.23579669  0.63397928  1
  O  O241  1  0.99547901  0.74448635  0.13588572  1
  O  O242  1  0.99608347  0.74185080  0.61972614  1
  O  O243  1  -0.00182173  0.23972768  0.35820685  1
  O  O244  1  0.00640685  0.25494309  0.86963169  1
  O  O245  1  0.01162626  0.75040664  0.36262454  1
  O  O246  1  0.01477101  0.76318924  0.88105198  1
  O  O247  1  0.50468296  0.25580919  0.37070136  1
  O  O248  1  0.51027804  0.24142712  0.86752468  1
  O  O249  1  0.50762261  0.75326255  0.36050611  1
  O  O250  1  0.51993164  0.75166792  0.87826231  1
  O  O251  1  0.24561527  0.12761219  0.49136562  1
  O  O252  1  0.26102824  0.14245750  0.99322042  1
  O  O253  1  0.25293394  0.61900549  0.48543947  1
  O  O254  1  0.22943970  0.62234124  1.00766408  1
  O  O255  1  0.74357478  0.12841281  0.49165148  1
  O  O256  1  0.73927083  0.13091749  0.99394029  1
  O  O257  1  0.74365968  0.63195257  0.50187256  1
  O  O258  1  0.74220000  0.62060610  1.00564419  1
  O  O259  1  0.25963096  0.36525874  0.00342621  1
  O  O260  1  0.26509836  0.37689865  0.50751791  1
  O  O261  1  0.25830257  0.87039235  0.00890273  1
  O  O262  1  0.25084617  0.89028507  0.52163467  1
  O  O263  1  0.75549105  0.37111902  0.01262495  1
  O  O264  1  0.75133400  0.36667838  0.50626694  1
  O  O265  1  0.74305330  0.87698315  0.00985103  1
  O  O266  1  0.75786206  0.87096156  0.50538823  1
  O  O267  1  0.13555866  0.50017776  0.25828667  1
  O  O268  1  0.13386158  0.49448676  0.74764524  1
  O  O269  1  0.13535650  1.00377344  0.25068745  1
  O  O270  1  0.12326174  1.00549341  0.74154306  1
  O  O271  1  0.63019204  0.49880764  0.24475939  1
  O  O272  1  0.62742036  0.48584916  0.75709246  1
  O  O273  1  0.62191736  0.98639681  0.24194468  1
  O  O274  1  0.63511568  0.99463587  0.74629324  1
  O  O275  1  0.36993495  0.00848441  0.25381617  1
  O  O276  1  0.38435070  -0.00352635  0.76679890  1
  O  O277  1  0.37350812  0.50928786  0.25641837  1
  O  O278  1  0.37072616  0.50225884  0.76317745  1
  O  O279  1  0.87372719  -0.00285531  0.26538792  1
  O  O280  1  0.86105769  0.00773081  0.74793926  1
  O  O281  1  0.86608744  0.50940479  0.25290974  1
  O  O282  1  0.87051155  0.50000114  0.75572239  1
  O  O283  1  0.12286971  0.35590374  0.42281192  1
  O  O284  1  0.11579920  0.36740674  0.86574800  1
  O  O285  1  0.13254909  0.86552834  0.37483220  1
  O  O286  1  0.11643626  0.86937087  0.87188964  1
  O  O287  1  0.61888546  0.36987927  0.37060772  1
  O  O288  1  0.62538885  0.36237328  0.86690324  1
  O  O289  1  0.61976116  0.86947811  0.36398922  1
  O  O290  1  0.62271800  0.86838142  0.86441197  1
  O  O291  1  0.38008993  0.12564085  0.13102817  1
  O  O292  1  0.37834432  0.12553160  0.62542002  1
  O  O293  1  0.38251847  0.61510248  0.13075169  1
  O  O294  1  0.38294515  0.62782201  0.63391803  1
  O  O295  1  0.87585790  0.13916658  0.13032611  1
  O  O296  1  0.88160283  0.12887192  0.62848473  1
  O  O297  1  0.88438596  0.63338419  0.13563033  1
  O  O298  1  0.89086101  0.63980462  0.62041875  1
  O  O299  1  0.24910197  0.25534353  0.11707380  1
  O  O300  1  0.25453929  0.26405923  0.61918212  1
  O  O301  1  0.24298356  0.76235481  0.12780414  1
  O  O302  1  0.24596684  0.76185916  0.62517475  1
  O  O303  1  0.75697486  0.25457062  0.13087224  1
  O  O304  1  0.75380060  0.25173051  0.61600133  1
  O  O305  1  0.76675060  0.75595073  0.12931631  1
  O  O306  1  0.76008214  0.75968432  0.61506618  1
  O  O307  1  0.24903028  0.24281978  0.38075472  1
  O  O308  1  0.23922801  0.25456324  0.88131714  1
  O  O309  1  0.23600293  0.74297590  0.36286474  1
  O  O310  1  0.23047411  0.75822898  0.87930113  1
  O  O311  1  0.74465728  0.24135299  0.38052340  1
  O  O312  1  0.73956683  0.24542321  0.87674599  1
  O  O313  1  0.74537447  0.75054473  0.38068769  1
  O  O314  1  0.73380577  0.75412279  0.87445166  1
  O  O315  1  0.00315204  0.15578910  0.02608879  1
  O  O316  1  0.00699695  0.12564178  0.51000987  1
  O  O317  1  0.01601924  0.62312341  0.01105164  1
  O  O318  1  0.00180783  0.62093198  0.50856215  1
  O  O319  1  0.50275298  0.11627577  0.00492716  1
  O  O320  1  0.50754688  0.11084327  0.49632664  1
  O  O321  1  0.50342220  0.62603849  0.01075772  1
  O  O322  1  0.50730441  0.61784409  0.50517117  1
  O  O323  1  0.49386607  0.38100114  0.49833201  1
  O  O324  1  0.48521455  0.37339139  1.00210069  1
  O  O325  1  0.50460336  0.88540051  0.49091745  1
  O  O326  1  0.49244661  0.88006609  1.00249542  1
  O  O327  1  0.98543668  0.39244152  0.51717883  1
  O  O328  1  0.99914655  0.37843645  1.00000348  1
  O  O329  1  0.98980246  0.87742278  0.50294947  1
  O  O330  1  1.00593139  0.87322942  0.98929163  1
  O  O331  1  0.49492616  0.49515481  0.38319177  1
  O  O332  1  0.48918734  0.49705850  0.87447633  1
  O  O333  1  0.49500769  0.99225621  0.37809466  1
  O  O334  1  0.49751668  0.99429784  0.88691053  1
  O  O335  1  0.99594061  0.50649549  0.39103421  1
  O  O336  1  0.99781702  0.48584947  0.87289377  1
  O  O337  1  0.98834722  1.00822448  0.37659675  1
  O  O338  1  0.99130617  0.98837534  0.88043096  1
  O  O339  1  0.01700241  0.00643647  0.11949500  1
  O  O340  1  0.00808157  0.01073060  0.62575479  1
  O  O341  1  0.00089680  0.50369240  0.12442874  1
  O  O342  1  0.00060018  0.51627593  0.61765675  1
  O  O343  1  0.50313288  0.00272247  0.11438646  1
  O  O344  1  0.50616782  -0.00295504  0.61430046  1
  O  O345  1  0.51333862  0.50817970  0.13197084  1
  O  O346  1  0.49517793  0.50772200  0.61359462  1
  O  O347  1  0.25138385  0.38910111  0.24967334  1
  O  O348  1  0.24638014  0.38032925  0.74332036  1
  O  O349  1  0.25891586  0.88738487  0.23836890  1
  O  O350  1  0.25323747  0.88100348  0.73204372  1
  O  O351  1  0.74169791  0.38381694  0.24853865  1
  O  O352  1  0.73421982  0.36311618  0.73476975  1
  O  O353  1  0.73849771  0.87284205  0.24319456  1
  O  O354  1  0.74525795  0.88362571  0.74482350  1
  O  O355  1  0.25474198  0.12018576  0.25481726  1
  O  O356  1  0.25789743  0.13916282  0.76131851  1
  O  O357  1  0.25635700  0.61545389  0.25601857  1
  O  O358  1  0.26172038  0.61244954  0.74271568  1
  O  O359  1  0.74175644  0.12187361  0.26370927  1
  O  O360  1  0.75129757  0.12054170  0.75776296  1
  O  O361  1  0.75779198  0.61990397  0.24992332  1
  O  O362  1  0.76218835  0.61376331  0.71840352  1
  O  O363  1  0.36922883  0.11839839  0.36819528  1
  O  O364  1  0.37807985  0.10447075  0.87699072  1
  O  O365  1  0.36977130  0.61939033  0.36519929  1
  O  O366  1  0.37950503  0.61078183  0.86998518  1
  O  O367  1  0.86444593  0.11056519  0.38297732  1
  O  O368  1  0.86156361  0.12931432  0.87412054  1
  O  O369  1  0.87432148  0.62753618  0.36379046  1
  O  O370  1  0.88007763  0.62532332  0.87382377  1
  O  O371  1  0.11407529  0.38327472  0.10817062  1
  O  O372  1  0.13614976  0.37868085  0.62745154  1
  O  O373  1  0.13488398  0.89176087  0.11757675  1
  O  O374  1  0.13186409  0.89031347  0.62460135  1
  O  O375  1  0.62787956  0.38304550  0.12970224  1
  O  O376  1  0.63116720  0.36984260  0.63228242  1
  O  O377  1  0.63106288  0.87374947  0.12891889  1
  O  O378  1  0.63228703  0.87867456  0.63053784  1
  O  O379  1  0.11105123  0.25323208  0.24810343  1
  O  O380  1  0.11545978  0.25719707  0.75341612  1
  O  O381  1  0.11187308  0.75019786  0.25814238  1
  O  O382  1  0.12324080  0.74762633  0.76197569  1
  O  O383  1  0.61739131  0.25661721  0.25660635  1
  O  O384  1  0.61452410  0.25367113  0.75694863  1
  O  O385  1  0.61909411  0.75406014  0.25091409  1
  O  O386  1  0.62933913  0.75815729  0.75467553  1
  O  O387  1  0.37915368  0.24207254  0.24955685  1
  O  O388  1  0.39004416  0.25501201  0.75277931  1
  O  O389  1  0.38303763  0.73539921  0.25239691  1
  O  O390  1  0.36898814  0.73633487  0.75547503  1
  O  O391  1  0.87864222  0.25592596  0.24315074  1
  O  O392  1  0.87957854  0.24475484  0.74349723  1
  O  O393  1  0.88750818  0.74593775  0.24688892  1
  O  O394  1  0.87114897  0.75343510  0.73612043  1
  O  O395  1  0.38386487  0.49368457  0.49415599  1
  O  O396  1  0.36947275  0.49158145  0.98746512  1
  O  O397  1  0.38430026  0.99679359  0.48970008  1
  O  O398  1  0.38126885  0.98979694  0.99264125  1
  O  O399  1  0.87776574  0.49604700  0.50243967  1
  O  O400  1  0.87272815  0.48522605  1.00360066  1
  O  O401  1  0.87787167  0.99138176  0.49358255  1
  O  O402  1  0.87259927  1.00664655  1.01056312  1
  O  O403  1  0.13542103  0.00787544  0.00386513  1
  O  O404  1  0.12200956  0.01314937  0.50678741  1
  O  O405  1  0.12306875  0.50205909  -0.00412160  1
  O  O406  1  0.11621478  0.50910143  0.50496922  1
  O  O407  1  0.61645029  0.00436408  0.00378789  1
  O  O408  1  0.61998583  0.00281698  0.50238028  1
  O  O409  1  0.62786835  0.51052443  0.00839136  1
  O  O410  1  0.61619334  0.50991065  0.49432526  1
  O  O411  1  0.37170256  0.37663284  0.11063122  1
  O  O412  1  0.37210094  0.37440423  0.61751482  1
  O  O413  1  0.36287289  0.88018310  0.11363182  1
  O  O414  1  0.36283793  0.86929366  0.62196723  1
  O  O415  1  0.86712759  0.36979913  0.12542371  1
  O  O416  1  0.86412946  0.36772345  0.61775197  1
  O  O417  1  0.86919293  0.86151324  0.12428127  1
  O  O418  1  0.87354907  0.87235153  0.61733804  1
  O  O419  1  0.13036901  0.13007123  0.38314875  1
  O  O420  1  0.12117834  0.13648057  0.87127726  1
  O  O421  1  0.13458212  0.63544218  0.37668994  1
  O  O422  1  0.11645904  0.63325172  0.88458849  1
  O  O423  1  0.63054418  0.12713266  0.38161680  1
  O  O424  1  0.63425845  0.13056994  0.87853248  1
  O  O425  1  0.62614248  0.63227645  0.38560773  1
  O  O426  1  0.62704869  0.62543659  0.88712247  1
