# generated using pymatgen
data_V85Zn86O256
_symmetry_space_group_name_H-M   'P 1'
_cell_length_a   16.93624895
_cell_length_b   16.93893464
_cell_length_c   16.93502705
_cell_angle_alpha   90.08894549
_cell_angle_beta   89.90953082
_cell_angle_gamma   89.99919076
_symmetry_Int_Tables_number   1
_chemical_formula_structural   V85Zn86O256
_chemical_formula_sum   'V85 Zn86 O256'
_cell_volume   4858.34275856
_cell_formula_units_Z   1
loop_
 _symmetry_equiv_pos_site_id
 _symmetry_equiv_pos_as_xyz
  1  'x, y, z'
loop_
 _atom_site_type_symbol
 _atom_site_label
 _atom_site_symmetry_multiplicity
 _atom_site_fract_x
 _atom_site_fract_y
 _atom_site_fract_z
 _atom_site_occupancy
  V  V0  1  0.37246983  0.12618511  0.74762986  1
  V  V1  1  0.87570206  0.36777622  0.49652740  1
  V  V2  1  0.63053071  0.12046891  0.49583162  1
  V  V3  1  0.12279716  0.37901304  0.24123372  1
  V  V4  1  0.75256500  0.62690661  0.88257000  1
  V  V5  1  0.62644008  0.49654533  0.12147322  1
  V  V6  1  0.49914688  0.00464914  0.01231259  1
  V  V7  1  0.00670343  0.87602102  0.37431389  1
  V  V8  1  0.50389509  0.50793218  0.49797457  1
  V  V9  1  0.00502652  0.62077025  0.12328798  1
  V  V10  1  0.87555401  -0.00010201  0.87680019  1
  V  V11  1  0.37506560  0.62794279  0.74718560  1
  V  V12  1  0.12405829  0.36848372  0.74824902  1
  V  V13  1  0.50282234  0.37563812  0.86992991  1
  V  V14  1  0.25042405  0.12616419  0.36970913  1
  V  V15  1  0.74575301  0.49582348  0.75886926  1
  V  V16  1  0.62524979  0.50932152  0.62489758  1
  V  V17  1  0.12857251  0.62191644  0.00316952  1
  V  V18  1  0.85958481  0.87376879  0.00322822  1
  V  V19  1  0.24528483  0.75331185  0.50297409  1
  V  V20  1  0.49210306  0.62938484  0.14458340  1
  V  V21  1  0.37613947  0.00202267  0.87982302  1
  V  V22  1  -0.00768147  0.37192775  0.86814666  1
  V  V23  1  0.37431924  -0.00144721  0.37620576  1
  V  V24  1  0.24828320  0.62882009  0.37235926  1
  V  V25  1  0.63040024  0.86383471  0.25267736  1
  V  V26  1  0.87512992  0.75062369  0.62703167  1
  V  V27  1  0.88251673  0.12655319  0.75323147  1
  V  V28  1  0.49839031  0.75217969  0.75278105  1
  V  V29  1  0.62488669  -0.00190949  0.62504068  1
  V  V30  1  0.62237745  0.12826018  0.00540882  1
  V  V31  1  0.12849577  -0.01694858  0.62729118  1
  V  V32  1  0.64266646  -0.00207665  0.13450457  1
  V  V33  1  0.74895568  0.24582837  0.49979218  1
  V  V34  1  0.37305579  0.25715669  0.62378172  1
  V  V35  1  0.36799803  0.75957598  0.63197843  1
  V  V36  1  0.00446357  0.75566937  0.75083607  1
  V  V37  1  0.62912138  0.75240364  0.88340537  1
  V  V38  1  0.73968262  0.37135103  0.62999820  1
  V  V39  1  0.13064758  0.13214644  0.00161597  1
  V  V40  1  0.62580844  0.87508249  0.75125561  1
  V  V41  1  0.25081033  0.49393278  0.74254019  1
  V  V42  1  0.37113812  0.76520629  0.13185861  1
  V  V43  1  0.61881491  0.62861235  0.00226860  1
  V  V44  1  0.38375545  0.12657206  0.24736497  1
  V  V45  1  0.75484814  0.49433368  0.24427767  1
  V  V46  1  0.24896318  -0.01178614  0.74857923  1
  V  V47  1  0.62771668  0.24462449  0.37293578  1
  V  V48  1  0.24957597  0.25531766  0.50042899  1
  V  V49  1  0.86786995  0.25662261  0.12002765  1
  V  V50  1  0.12062865  0.62755582  0.49626575  1
  V  V51  1  0.37381252  0.37686475  0.49901381  1
  V  V52  1  -0.00254167  0.50009119  -0.00629887  1
  V  V53  1  0.00810758  0.12817163  0.62694639  1
  V  V54  1  0.13163274  -0.01186651  0.12802786  1
  V  V55  1  0.84132052  0.53833979  0.41038213  1
  V  V56  1  0.86992824  0.62357561  0.24278273  1
  V  V57  1  0.86066424  0.12173455  0.25243574  1
  V  V58  1  0.86384185  0.00384878  0.37261358  1
  V  V59  1  0.36455541  0.37402263  -0.00289660  1
  V  V60  1  0.37567699  0.87447078  0.50239303  1
  V  V61  1  -0.00139729  0.12247935  0.12861531  1
  V  V62  1  0.86428316  0.75440066  0.12128572  1
  V  V63  1  0.88003532  0.24946081  0.63130305  1
  V  V64  1  0.50108811  0.37466803  0.37277608  1
  V  V65  1  0.24576620  0.50197393  0.24189509  1
  V  V66  1  0.24821940  0.62470657  0.87543176  1
  V  V67  1  0.50172223  0.87893165  0.88565591  1
  V  V68  1  0.87651388  0.61986674  0.75715248  1
  V  V69  1  0.62946053  0.37214273  0.24343271  1
  V  V70  1  0.87107201  0.87639316  0.49770006  1
  V  V71  1  -0.00089475  -0.00544871  0.00195936  1
  V  V72  1  0.37614031  0.50028169  0.87351543  1
  V  V73  1  0.50044538  0.12504598  0.62308122  1
  V  V74  1  0.12299330  0.25083439  0.37247757  1
  V  V75  1  -0.00191931  0.24880285  0.25002531  1
  V  V76  1  0.75208251  0.00059110  0.75172613  1
  V  V77  1  0.37392447  0.50251504  0.36491728  1
  V  V78  1  0.62547527  0.25108647  0.86700255  1
  V  V79  1  0.12942027  0.49438419  0.62172810  1
  V  V80  1  0.12556190  0.75811196  0.87395155  1
  V  V81  1  0.00485082  0.74948193  0.25140615  1
  V  V82  1  0.00181570  0.49822934  0.49821256  1
  V  V83  1  0.37250557  0.24465203  0.11649814  1
  V  V84  1  0.74846595  0.86887932  0.62431879  1
  Zn  Zn85  1  0.25324015  0.13159860  0.87831894  1
  Zn  Zn86  1  0.50353844  0.25595753  0.74529505  1
  Zn  Zn87  1  0.50191953  0.24841333  0.24259866  1
  Zn  Zn88  1  0.00127971  0.62318027  0.62749749  1
  Zn  Zn89  1  0.59070126  0.73136233  0.37411632  1
  Zn  Zn90  1  0.75156444  0.12867614  0.87819880  1
  Zn  Zn91  1  0.49722616  0.87156041  0.36552039  1
  Zn  Zn92  1  0.25223649  0.77201594  0.01385936  1
  Zn  Zn93  1  0.50482514  0.63187669  0.62127804  1
  Zn  Zn94  1  -0.00560945  0.37674857  0.37194105  1
  Zn  Zn95  1  0.86764063  0.38684229  -0.00252265  1
  Zn  Zn96  1  0.49973257  -0.00389217  0.50105193  1
  Zn  Zn97  1  0.12796990  0.25386254  0.87780837  1
  Zn  Zn98  1  0.71406709  0.68420556  0.44738711  1
  Zn  Zn99  1  0.25721205  -0.01190863  0.24380827  1
  Zn  Zn100  1  0.24465713  0.37433205  0.11911677  1
  Zn  Zn101  1  0.00334241  0.00161902  0.49872340  1
  Zn  Zn102  1  0.12639235  0.12342222  0.50051699  1
  Zn  Zn103  1  0.13350005  0.86377830  0.25326422  1
  Zn  Zn104  1  0.49683876  0.50009805  0.00154864  1
  Zn  Zn105  1  -0.00065339  0.87557173  0.87297023  1
  Zn  Zn106  1  0.74228713  0.26055095  0.00243189  1
  Zn  Zn107  1  0.19095415  0.18703659  0.18528156  1
  Zn  Zn108  1  0.19272447  0.18842316  0.68849686  1
  Zn  Zn109  1  0.19193148  0.68846094  0.18734795  1
  Zn  Zn110  1  0.18617895  0.68454402  0.68620483  1
  Zn  Zn111  1  0.68531242  0.18302597  0.18481641  1
  Zn  Zn112  1  0.69021832  0.18456707  0.68887374  1
  Zn  Zn113  1  0.68596431  0.68308412  0.19138445  1
  Zn  Zn114  1  0.68832585  0.68703841  0.69343863  1
  Zn  Zn115  1  0.31204240  0.31410850  0.30690255  1
  Zn  Zn116  1  0.30910123  0.31040355  0.81338097  1
  Zn  Zn117  1  0.31790851  0.80740087  0.30981905  1
  Zn  Zn118  1  0.29828831  0.83030873  0.84871172  1
  Zn  Zn119  1  0.80846591  0.30787401  0.31025448  1
  Zn  Zn120  1  0.80963717  0.31163048  0.81401803  1
  Zn  Zn121  1  0.80355529  0.81828771  0.30588077  1
  Zn  Zn122  1  0.81402493  0.81144228  0.81551851  1
  Zn  Zn123  1  0.18755647  0.43534672  0.43037118  1
  Zn  Zn124  1  0.18304256  0.44084178  0.93396134  1
  Zn  Zn125  1  0.19107213  0.93681557  0.43818657  1
  Zn  Zn126  1  0.18734485  0.94330190  0.93866044  1
  Zn  Zn127  1  0.68494041  0.43406236  0.43934189  1
  Zn  Zn128  1  0.68689295  0.43571137  0.94008311  1
  Zn  Zn129  1  0.68658984  0.92810171  0.43670911  1
  Zn  Zn130  1  0.68569766  0.94368447  0.94034990  1
  Zn  Zn131  1  0.31205120  0.06065857  0.06333604  1
  Zn  Zn132  1  0.30728790  0.06440708  0.56173612  1
  Zn  Zn133  1  0.31474833  0.56496781  0.06173876  1
  Zn  Zn134  1  0.31328561  0.56480060  0.56047108  1
  Zn  Zn135  1  0.81122885  0.06927251  0.06006510  1
  Zn  Zn136  1  0.81435457  0.06004479  0.56353404  1
  Zn  Zn137  1  0.81067930  0.56271766  0.06115168  1
  Zn  Zn138  1  0.81687788  0.55709160  0.58140696  1
  Zn  Zn139  1  0.43950027  0.43556019  0.18353867  1
  Zn  Zn140  1  0.44047224  0.43847269  0.68661087  1
  Zn  Zn141  1  0.44102499  0.93620935  0.19081895  1
  Zn  Zn142  1  0.43778728  0.93707483  0.69096679  1
  Zn  Zn143  1  0.94243269  0.43859807  0.18351257  1
  Zn  Zn144  1  0.93597059  0.43707964  0.68714057  1
  Zn  Zn145  1  0.93586751  0.93565524  0.19069247  1
  Zn  Zn146  1  0.94131408  0.93945779  0.68682840  1
  Zn  Zn147  1  0.05988487  0.06012532  0.31173662  1
  Zn  Zn148  1  0.06423139  0.06081724  0.81300980  1
  Zn  Zn149  1  0.05762084  0.56168812  0.31644232  1
  Zn  Zn150  1  0.06252620  0.56018988  0.81399142  1
  Zn  Zn151  1  0.56102949  0.05726233  0.31270218  1
  Zn  Zn152  1  0.56170397  0.06649559  0.81356066  1
  Zn  Zn153  1  0.57360177  0.56237987  0.31847983  1
  Zn  Zn154  1  0.56326490  0.56258652  0.81185833  1
  Zn  Zn155  1  0.44060471  0.18688990  0.43631766  1
  Zn  Zn156  1  0.44067818  0.18845587  0.93761921  1
  Zn  Zn157  1  0.42947124  0.68708700  0.43694683  1
  Zn  Zn158  1  0.43492165  0.69258139  0.94333774  1
  Zn  Zn159  1  0.93924353  0.18315463  0.43973322  1
  Zn  Zn160  1  0.94457582  0.18892570  0.93851921  1
  Zn  Zn161  1  0.89640727  0.71618481  0.41433475  1
  Zn  Zn162  1  0.93809368  0.68881573  0.93947921  1
  Zn  Zn163  1  0.05423046  0.31392509  0.06210259  1
  Zn  Zn164  1  0.06343347  0.31152055  0.56350281  1
  Zn  Zn165  1  0.05910163  0.80731899  0.06057755  1
  Zn  Zn166  1  0.05644953  0.80956242  0.55883540  1
  Zn  Zn167  1  0.55322912  0.31306138  0.05815536  1
  Zn  Zn168  1  0.56105269  0.31380872  0.55941501  1
  Zn  Zn169  1  0.56033003  0.81428902  0.07122561  1
  Zn  Zn170  1  0.56333445  0.80364649  0.55474347  1
  O  O171  1  0.11838481  0.11734947  0.11803818  1
  O  O172  1  0.11513789  0.12731175  0.62666601  1
  O  O173  1  0.12008944  0.63186522  0.11135272  1
  O  O174  1  0.12419381  0.61123524  0.61503005  1
  O  O175  1  0.62551107  0.11344535  0.11716482  1
  O  O176  1  0.61805697  0.11990038  0.62009068  1
  O  O177  1  0.61614706  0.62109223  0.11904016  1
  O  O178  1  0.62681640  0.61493731  0.62600887  1
  O  O179  1  0.38184754  0.38049896  0.37825106  1
  O  O180  1  0.37791758  0.38004883  0.87893967  1
  O  O181  1  0.37325511  0.88494504  0.38495428  1
  O  O182  1  0.39383582  0.89340749  0.86298877  1
  O  O183  1  0.87381014  0.36220700  0.39143499  1
  O  O184  1  0.88893248  0.37151284  0.87338136  1
  O  O185  1  0.88115659  0.88751077  0.38118678  1
  O  O186  1  0.87690891  0.88060394  0.88487718  1
  O  O187  1  0.25985319  0.01164783  0.37897473  1
  O  O188  1  0.25947353  0.01133858  0.86631728  1
  O  O189  1  0.25688010  0.50502208  0.36793636  1
  O  O190  1  0.25387754  0.50960241  0.86483577  1
  O  O191  1  0.76555410  -0.00188550  0.38178121  1
  O  O192  1  0.75672838  0.00420114  0.86847479  1
  O  O193  1  0.76158911  0.48539360  0.36574029  1
  O  O194  1  0.74123006  0.50884898  0.86474116  1
  O  O195  1  0.25370421  0.49993561  0.13893833  1
  O  O196  1  0.24278072  0.50244367  0.63005325  1
  O  O197  1  0.23572828  0.99913598  0.12451979  1
  O  O198  1  0.23661297  1.00354453  0.63189263  1
  O  O199  1  0.73607055  0.50494633  0.13046715  1
  O  O200  1  0.74145318  0.49101997  0.63402519  1
  O  O201  1  0.74078304  1.00099405  0.12150591  1
  O  O202  1  0.74637657  0.98930158  0.63182256  1
  O  O203  1  0.00499291  0.36984184  0.25267439  1
  O  O204  1  0.00661827  0.38196465  0.76045640  1
  O  O205  1  0.00378554  0.86689493  0.25659171  1
  O  O206  1  -0.00732458  0.85982282  0.75258581  1
  O  O207  1  0.51190377  0.37538052  0.25692643  1
  O  O208  1  0.49401838  0.37369062  0.76392448  1
  O  O209  1  0.52269007  0.88840222  0.25070593  1
  O  O210  1  0.50991475  0.87170727  0.75829816  1
  O  O211  1  0.48683054  0.12730714  0.25521018  1
  O  O212  1  0.49065844  0.12559802  0.73743359  1
  O  O213  1  0.50492998  0.61923904  0.24208289  1
  O  O214  1  0.49078750  0.63246795  0.75004400  1
  O  O215  1  0.99466318  0.12787643  0.23993244  1
  O  O216  1  0.98998884  0.12101752  0.74430527  1
  O  O217  1  0.99470977  0.62777255  0.24104011  1
  O  O218  1  0.99055468  0.62952085  0.75168169  1
  O  O219  1  0.37489453  0.25499465  0.00838005  1
  O  O220  1  0.37049521  0.25585075  0.50360580  1
  O  O221  1  0.36910238  0.73713007  0.02179394  1
  O  O222  1  0.36549615  0.75529790  0.51298749  1
  O  O223  1  0.87622391  0.24474448  0.01509210  1
  O  O224  1  0.86953070  0.24972060  0.51075444  1
  O  O225  1  0.88003958  0.75889752  0.01230388  1
  O  O226  1  0.88366176  0.76121802  0.52137356  1
  O  O227  1  0.13274748  0.24994886  0.49128714  1
  O  O228  1  0.11858529  0.23419055  1.00640663  1
  O  O229  1  0.13187432  0.73928974  0.50737279  1
  O  O230  1  0.13067944  0.74320288  0.99174405  1
  O  O231  1  0.62859330  0.24190233  0.49337893  1
  O  O232  1  0.62105625  0.24296281  0.99447595  1
  O  O233  1  0.63069783  0.75239384  0.48506174  1
  O  O234  1  0.62009204  0.74590502  0.99125035  1
  O  O235  1  0.47976660  0.25500319  0.12693124  1
  O  O236  1  0.49416838  0.24300096  0.62420963  1
  O  O237  1  0.49252043  0.73566353  0.12349098  1
  O  O238  1  0.49101535  0.74999500  0.63385762  1
  O  O239  1  0.99136381  0.23977971  0.13030223  1
  O  O240  1  0.99076370  0.24252688  0.62244015  1
  O  O241  1  0.99269365  0.73867324  0.12910136  1
  O  O242  1  0.99441232  0.74549794  0.63473465  1
  O  O243  1  0.00735289  0.24871861  0.36941079  1
  O  O244  1  0.00789268  0.26683221  0.87989390  1
  O  O245  1  -0.01046087  0.76207704  0.36372024  1
  O  O246  1  0.00836951  0.74897752  0.86879190  1
  O  O247  1  0.51125875  0.25698996  0.37411647  1
  O  O248  1  0.50655358  0.25732956  0.87097410  1
  O  O249  1  0.48253706  0.75884844  0.37404776  1
  O  O250  1  0.50440904  0.76017682  0.87335692  1
  O  O251  1  0.25000757  0.13777570  0.48753775  1
  O  O252  1  0.23326179  0.12055662  1.00099113  1
  O  O253  1  0.24209638  0.63123310  0.49462664  1
  O  O254  1  0.24302411  0.62048631  0.98963006  1
  O  O255  1  0.73748442  0.12931025  0.50947474  1
  O  O256  1  0.73637816  0.13062711  0.99745859  1
  O  O257  1  0.78773217  0.60138656  0.48133474  1
  O  O258  1  0.73828740  0.61950641  0.98870353  1
  O  O259  1  0.25958302  0.38238964  -0.00190353  1
  O  O260  1  0.25605366  0.36269237  0.49116453  1
  O  O261  1  0.26398901  0.86615146  -0.04526967  1
  O  O262  1  0.25815587  0.86094619  0.49573772  1
  O  O263  1  0.75656634  0.37346036  -0.00147633  1
  O  O264  1  0.75669164  0.36782134  0.50985460  1
  O  O265  1  0.76034478  0.87781228  -0.00268999  1
  O  O266  1  0.76289166  0.88003547  0.51061861  1
  O  O267  1  0.13064517  0.48901776  0.25915670  1
  O  O268  1  0.13186722  0.49570790  0.74035713  1
  O  O269  1  0.12383640  1.00108453  0.23335289  1
  O  O270  1  0.13370555  1.00418030  0.73812976  1
  O  O271  1  0.63678672  0.49136792  0.24414114  1
  O  O272  1  0.63384614  0.50273582  0.74029479  1
  O  O273  1  0.62867502  1.00702614  0.23620285  1
  O  O274  1  0.63070377  0.99614809  0.74515778  1
  O  O275  1  0.37420035  0.00795298  0.25782523  1
  O  O276  1  0.37033637  0.00876215  0.75384066  1
  O  O277  1  0.36649154  0.49009776  0.25996480  1
  O  O278  1  0.36896226  0.50704475  0.75153877  1
  O  O279  1  0.87751690  0.00642122  0.26274244  1
  O  O280  1  0.87298877  0.00618570  0.75593002  1
  O  O281  1  0.86353683  0.50369668  0.23886397  1
  O  O282  1  0.86409309  0.51237453  0.74220085  1
  O  O283  1  0.12160164  0.36230210  0.36572761  1
  O  O284  1  0.11663814  0.37636847  0.86420175  1
  O  O285  1  0.10965211  0.87953218  0.37983634  1
  O  O286  1  0.11939571  0.86116715  0.87620754  1
  O  O287  1  0.62008417  0.36708933  0.36723597  1
  O  O288  1  0.61389926  0.36499053  0.88035710  1
  O  O289  1  0.62093765  0.87772192  0.36123964  1
  O  O290  1  0.62159890  0.87018106  0.87226272  1
  O  O291  1  0.36838547  0.13550596  0.13177949  1
  O  O292  1  0.38237577  0.13276161  0.62622492  1
  O  O293  1  0.39212722  0.61654646  0.12839396  1
  O  O294  1  0.37533143  0.63242610  0.63659789  1
  O  O295  1  0.88175211  0.12908505  0.13283626  1
  O  O296  1  0.88534462  0.12934555  0.63148788  1
  O  O297  1  0.88231865  0.63262291  0.12727253  1
  O  O298  1  0.87625916  0.63532278  0.63854824  1
  O  O299  1  0.26585708  0.25622917  0.13067592  1
  O  O300  1  0.26081945  0.24548617  0.61251322  1
  O  O301  1  0.26247334  0.75133378  0.12606399  1
  O  O302  1  0.25750688  0.74408598  0.61780006  1
  O  O303  1  0.76506744  0.24579433  0.12545243  1
  O  O304  1  0.75538012  0.25558860  0.62158781  1
  O  O305  1  0.76611833  0.74099337  0.12678719  1
  O  O306  1  0.75758786  0.76118680  0.63455752  1
  O  O307  1  0.24313277  0.24498237  0.37677590  1
  O  O308  1  0.24050414  0.24283000  0.86820001  1
  O  O309  1  0.25794242  0.73509848  0.38647204  1
  O  O310  1  0.23981026  0.73148917  0.86153247  1
  O  O311  1  0.73554502  0.25263016  0.38255758  1
  O  O312  1  0.73942838  0.24805901  0.87689681  1
  O  O313  1  0.79017443  0.74777228  0.38829719  1
  O  O314  1  0.73951175  0.74079529  0.87058044  1
  O  O315  1  0.00428319  0.11365840  0.01126876  1
  O  O316  1  0.00469990  0.12162376  0.51161092  1
  O  O317  1  0.00806891  0.62145004  0.00369484  1
  O  O318  1  0.00863425  0.61328027  0.50379560  1
  O  O319  1  0.51231714  0.11729718  -0.00488241  1
  O  O320  1  0.50863283  0.12362902  0.51038758  1
  O  O321  1  0.51159295  0.62204472  -0.00070507  1
  O  O322  1  0.48946117  0.61061963  0.50369508  1
  O  O323  1  0.49502072  0.38396582  0.49158536  1
  O  O324  1  0.48540543  0.37805170  0.98745865  1
  O  O325  1  0.48391511  0.87625453  0.50376264  1
  O  O326  1  0.50787230  0.88453241  0.99085262  1
  O  O327  1  0.99179369  0.37835582  0.49958182  1
  O  O328  1  0.99663587  0.38368652  0.99005727  1
  O  O329  1  0.98815708  0.87734565  0.49385390  1
  O  O330  1  0.99369765  0.88608802  1.00119558  1
  O  O331  1  0.49396690  0.49528045  0.37964191  1
  O  O332  1  0.49349549  0.49406214  0.87431108  1
  O  O333  1  0.48503620  1.00040681  0.38150664  1
  O  O334  1  0.49740697  0.99650640  0.88281931  1
  O  O335  1  0.99112718  0.49584303  0.38997720  1
  O  O336  1  1.00245186  0.48714744  0.88114978  1
  O  O337  1  0.99297471  0.99266679  0.37728458  1
  O  O338  1  0.99478569  0.99779627  0.88452738  1
  O  O339  1  0.00559698  0.00490985  0.12084280  1
  O  O340  1  0.01391599  0.00707101  0.62597249  1
  O  O341  1  0.00057878  0.51448115  0.11842422  1
  O  O342  1  0.00589303  0.49995061  0.61496717  1
  O  O343  1  0.50097478  0.00066137  0.11340359  1
  O  O344  1  0.50652141  0.00722943  0.62416916  1
  O  O345  1  0.51067405  0.50932812  0.12480826  1
  O  O346  1  0.50957728  0.50130378  0.61792159  1
  O  O347  1  0.23938648  0.38386281  0.24961856  1
  O  O348  1  0.24275230  0.38835446  0.75250189  1
  O  O349  1  0.24266293  0.87928862  0.26846704  1
  O  O350  1  0.25634126  0.88924686  0.75604828  1
  O  O351  1  0.73886539  0.37840661  0.24854879  1
  O  O352  1  0.75605633  0.38452271  0.74222881  1
  O  O353  1  0.73209187  0.88091586  0.24751850  1
  O  O354  1  0.74605989  0.88060849  0.74514653  1
  O  O355  1  0.25788548  0.12245381  0.25978100  1
  O  O356  1  0.26424472  0.11823968  0.74596367  1
  O  O357  1  0.23904653  0.61561726  0.26262746  1
  O  O358  1  0.25591143  0.61353166  0.75293877  1
  O  O359  1  0.76188405  0.12954991  0.25209703  1
  O  O360  1  0.76445669  0.11706198  0.74902361  1
  O  O361  1  0.76266460  0.61403810  0.24605711  1
  O  O362  1  0.75592497  0.61819371  0.76099429  1
  O  O363  1  0.36869405  0.12209361  0.36920651  1
  O  O364  1  0.37990499  0.11887207  0.86387445  1
  O  O365  1  0.36192296  0.61017676  0.38166963  1
  O  O366  1  0.36845235  0.62273292  0.86513786  1
  O  O367  1  0.88037140  0.11265088  0.36854401  1
  O  O368  1  0.87729295  0.12169242  0.86874438  1
  O  O369  1  0.89192988  0.61386999  0.35497289  1
  O  O370  1  0.86452439  0.63220330  0.86956675  1
  O  O371  1  0.12406459  0.36923347  0.13670905  1
  O  O372  1  0.12018062  0.38681991  0.63071221  1
  O  O373  1  0.11952575  0.88612587  0.12408260  1
  O  O374  1  0.11998361  0.88499985  0.62399535  1
  O  O375  1  0.61568836  0.38317884  0.13184730  1
  O  O376  1  0.63601142  0.37943222  0.62172696  1
  O  O377  1  0.62287784  0.88966031  0.13308040  1
  O  O378  1  0.63234152  0.87704348  0.62923048  1
  O  O379  1  0.11913517  0.25358067  0.25492030  1
  O  O380  1  0.12782405  0.26632730  0.74276858  1
  O  O381  1  0.10917929  0.74645083  0.24560873  1
  O  O382  1  0.11388709  0.73898849  0.75791103  1
  O  O383  1  0.62385473  0.25407917  0.25441474  1
  O  O384  1  0.62269149  0.24324257  0.76170303  1
  O  O385  1  0.62716064  0.75986845  0.25167903  1
  O  O386  1  0.61924439  0.75457015  0.76223364  1
  O  O387  1  0.37740002  0.24316217  0.24226946  1
  O  O388  1  0.37629206  0.24377720  0.73915570  1
  O  O389  1  0.37533607  0.74595844  0.23242790  1
  O  O390  1  0.37670286  0.74412261  0.74625677  1
  O  O391  1  0.87972533  0.24310140  0.24261250  1
  O  O392  1  0.86986415  0.24166550  0.73916230  1
  O  O393  1  0.88265649  0.74283591  0.23691185  1
  O  O394  1  0.88090641  0.74303679  0.74465020  1
  O  O395  1  0.37985831  0.49220194  0.49368704  1
  O  O396  1  0.37585062  0.49369406  0.99049249  1
  O  O397  1  0.37139021  0.99173332  0.49648680  1
  O  O398  1  0.38370975  1.01069150  0.98898208  1
  O  O399  1  0.88200353  0.48664369  0.50480791  1
  O  O400  1  0.89080584  0.50432118  1.00412286  1
  O  O401  1  0.87902112  0.99477834  0.49236414  1
  O  O402  1  0.88078256  0.99504287  0.99812959  1
  O  O403  1  0.11774593  0.00502010  0.01007242  1
  O  O404  1  0.12798423  0.00293624  0.51493732  1
  O  O405  1  0.11313783  0.50990854  -0.00365523  1
  O  O406  1  0.11975637  0.49970293  0.50355400  1
  O  O407  1  0.61880392  0.00735255  0.00921343  1
  O  O408  1  0.62456704  0.00480637  0.50561693  1
  O  O409  1  0.62111159  0.50820128  0.00761913  1
  O  O410  1  0.61575860  0.49444727  0.50918066  1
  O  O411  1  0.37167582  0.36889489  0.11389247  1
  O  O412  1  0.38165653  0.36360041  0.61846620  1
  O  O413  1  0.38082215  0.86528135  0.12509990  1
  O  O414  1  0.37477006  0.86589086  0.62249149  1
  O  O415  1  0.88368996  0.35846350  0.12308459  1
  O  O416  1  0.86849669  0.36559844  0.61853951  1
  O  O417  1  0.87821004  0.86213837  0.12054255  1
  O  O418  1  0.86874911  0.87234068  0.62108832  1
  O  O419  1  0.13159405  0.13392469  0.37334332  1
  O  O420  1  0.11885045  0.12414512  0.89324208  1
  O  O421  1  0.13114863  0.61734127  0.38925932  1
  O  O422  1  0.13056967  0.62909274  0.88331627  1
  O  O423  1  0.61799510  0.13049422  0.38549513  1
  O  O424  1  0.62563165  0.13422912  0.88214505  1
  O  O425  1  0.63899000  0.62847150  0.37593697  1
  O  O426  1  0.62898722  0.63380282  0.88189883  1
