# generated using pymatgen
data_V85Zn86O256
_symmetry_space_group_name_H-M   'P 1'
_cell_length_a   16.93808028
_cell_length_b   16.92670134
_cell_length_c   16.93665111
_cell_angle_alpha   90.00350164
_cell_angle_beta   89.98214114
_cell_angle_gamma   90.12752850
_symmetry_Int_Tables_number   1
_chemical_formula_structural   V85Zn86O256
_chemical_formula_sum   'V85 Zn86 O256'
_cell_volume   4855.82427586
_cell_formula_units_Z   1
loop_
 _symmetry_equiv_pos_site_id
 _symmetry_equiv_pos_as_xyz
  1  'x, y, z'
loop_
 _atom_site_type_symbol
 _atom_site_label
 _atom_site_symmetry_multiplicity
 _atom_site_fract_x
 _atom_site_fract_y
 _atom_site_fract_z
 _atom_site_occupancy
  V  V0  1  0.50319801  0.87804729  0.38006917  1
  V  V1  1  0.00134000  0.12604658  0.12128203  1
  V  V2  1  0.62152594  0.12175143  0.49846671  1
  V  V3  1  0.24996791  0.12391066  0.37982722  1
  V  V4  1  -0.00352844  0.73665651  0.25520808  1
  V  V5  1  0.62239157  0.25352468  0.37090704  1
  V  V6  1  0.37619499  0.12281632  0.74840113  1
  V  V7  1  0.12004111  0.51455459  0.12052919  1
  V  V8  1  0.62291810  0.50619072  0.61558785  1
  V  V9  1  0.37476772  0.25190508  0.62104233  1
  V  V10  1  0.37455340  0.13254010  0.24727295  1
  V  V11  1  0.88588307  0.88126174  0.49707270  1
  V  V12  1  0.87880418  0.73387605  0.12944718  1
  V  V13  1  0.62421546  -0.00132111  0.12580536  1
  V  V14  1  0.75291965  0.38330861  0.62532059  1
  V  V15  1  0.74333175  0.74055637  -0.00069185  1
  V  V16  1  0.25498209  0.75635491  -0.00466357  1
  V  V17  1  0.49765955  -0.01008446  0.00174761  1
  V  V18  1  0.49007058  0.74637438  0.25339996  1
  V  V19  1  0.38193303  0.75130108  0.63076135  1
  V  V20  1  0.75937798  0.51006513  0.24573830  1
  V  V21  1  0.61654492  0.87102094  0.75131871  1
  V  V22  1  0.87543017  0.25635991  0.62090109  1
  V  V23  1  0.25226857  0.12562658  0.87485958  1
  V  V24  1  0.12697752  0.49407671  0.63168329  1
  V  V25  1  -0.00246435  0.25436759  0.24587595  1
  V  V26  1  0.87730089  0.87280427  -0.00331089  1
  V  V27  1  0.87144342  -0.00209084  0.87536302  1
  V  V28  1  0.12961431  0.13009793  -0.00167545  1
  V  V29  1  0.62597982  0.87287325  0.25386262  1
  V  V30  1  0.37478601  0.74874447  0.12137107  1
  V  V31  1  0.25715029  0.37294529  0.12752221  1
  V  V32  1  0.74981687  0.12340591  0.37613494  1
  V  V33  1  0.25455446  0.62770687  0.37193417  1
  V  V34  1  0.75911271  0.37049604  0.11640608  1
  V  V35  1  0.37988093  0.62467432  0.75028690  1
  V  V36  1  0.06778616  0.07002051  0.45689237  1
  V  V37  1  0.87152609  0.51598546  0.38224810  1
  V  V38  1  0.79205124  0.18218834  0.93135302  1
  V  V39  1  0.25230590  0.62503524  0.87957328  1
  V  V40  1  0.00332007  -0.00450236  -0.00739707  1
  V  V41  1  0.49801771  0.13337047  0.12384142  1
  V  V42  1  0.25545258  0.50679395  0.24854683  1
  V  V43  1  0.86666753  0.61816540  0.75087712  1
  V  V44  1  0.37568389  0.87754682  0.49995931  1
  V  V45  1  0.62378167  0.00042352  0.62325963  1
  V  V46  1  0.12239999  0.25413275  0.38042307  1
  V  V47  1  0.74806969  0.74042362  0.49695015  1
  V  V48  1  0.00133831  0.74979895  0.75260066  1
  V  V49  1  0.37555163  -0.00864802  0.87816069  1
  V  V50  1  0.51079081  0.50801993  0.00169282  1
  V  V51  1  0.62600450  0.12260092  -0.00373778  1
  V  V52  1  0.01019316  0.37833231  0.88296423  1
  V  V53  1  0.62757196  0.38454188  0.74905429  1
  V  V54  1  0.61754207  0.74134293  0.87406288  1
  V  V55  1  0.75032846  0.87524752  0.62263579  1
  V  V56  1  -0.00093907  0.62008225  0.62303616  1
  V  V57  1  0.11418088  0.00152921  0.62575040  1
  V  V58  1  0.11643137  0.87672380  0.25203491  1
  V  V59  1  0.24564217  0.87475308  0.62624769  1
  V  V60  1  0.62692451  0.73506091  0.37836032  1
  V  V61  1  0.49887484  0.11877393  0.61965067  1
  V  V62  1  0.74931729  0.00120278  0.75435138  1
  V  V63  1  -0.01313743  0.38226087  0.38266550  1
  V  V64  1  0.75249556  -0.00222811  0.25370679  1
  V  V65  1  0.37985956  0.00151603  0.37796130  1
  V  V66  1  0.75271663  0.87152693  0.12698867  1
  V  V67  1  0.24725413  -0.00112157  0.74958619  1
  V  V68  1  0.86666902  0.48978816  0.88024576  1
  V  V69  1  0.37614680  0.38108522  0.49720786  1
  V  V70  1  0.24665502  0.74881233  0.50192827  1
  V  V71  1  0.74911113  0.25716494  0.50050565  1
  V  V72  1  0.62832572  0.38326868  0.24196368  1
  V  V73  1  0.51120294  0.62271803  0.12794358  1
  V  V74  1  0.49813844  0.37574680  0.87827350  1
  V  V75  1  0.62641992  0.24581904  0.87624693  1
  V  V76  1  0.87205605  0.12703289  0.24809576  1
  V  V77  1  0.50193855  0.24942872  0.74868331  1
  V  V78  1  0.07590624  0.68669647  0.93523613  1
  V  V79  1  0.87149582  0.12760402  0.74731585  1
  V  V80  1  0.26376862  0.24993442  0.00463681  1
  V  V81  1  0.00901969  0.25916899  0.74677055  1
  V  V82  1  0.12292996  0.37832223  0.24794858  1
  V  V83  1  0.12129354  0.61610663  0.49883962  1
  V  V84  1  0.11967486  0.87094371  0.76327562  1
  Zn  Zn85  1  0.89142858  0.00094355  0.37918032  1
  Zn  Zn86  1  0.13792910  0.26054745  0.86327784  1
  Zn  Zn87  1  0.13337873  -0.00255960  0.12106420  1
  Zn  Zn88  1  0.24895002  0.48978510  0.75807790  1
  Zn  Zn89  1  0.25293403  -0.00473289  0.24704683  1
  Zn  Zn90  1  0.25522821  0.87487407  0.12558015  1
  Zn  Zn91  1  0.11710286  0.75409312  0.37913673  1
  Zn  Zn92  1  0.50402262  0.51220765  0.49140295  1
  Zn  Zn93  1  0.24735802  0.25098925  0.49996495  1
  Zn  Zn94  1  -0.00138952  0.50544106  0.00583317  1
  Zn  Zn95  1  0.37488597  0.49957826  0.87886184  1
  Zn  Zn96  1  0.00193432  0.12766177  0.62305733  1
  Zn  Zn97  1  0.87388294  0.25132062  0.10430626  1
  Zn  Zn98  1  0.50491429  0.63148322  0.62412903  1
  Zn  Zn99  1  0.38159215  0.37595062  0.00921750  1
  Zn  Zn100  1  0.37813633  0.50486800  0.37107497  1
  Zn  Zn101  1  0.87370505  0.74858294  0.62661116  1
  Zn  Zn102  1  0.49749033  0.25743257  0.24339263  1
  Zn  Zn103  1  0.24776540  0.37296664  0.62912913  1
  Zn  Zn104  1  0.74223998  0.61485752  0.87318757  1
  Zn  Zn105  1  0.49510638  0.86783253  0.87564374  1
  Zn  Zn106  1  0.50068249  0.38100616  0.37235347  1
  Zn  Zn107  1  0.18908531  0.18894837  0.18954538  1
  Zn  Zn108  1  0.18811063  0.18303896  0.68232053  1
  Zn  Zn109  1  0.18657709  0.69231489  0.18762015  1
  Zn  Zn110  1  0.18876772  0.68423269  0.69227672  1
  Zn  Zn111  1  0.68734578  0.19088632  0.18349247  1
  Zn  Zn112  1  0.68868461  0.19046136  0.68839651  1
  Zn  Zn113  1  0.68555624  0.68969051  0.19045317  1
  Zn  Zn114  1  0.68834372  0.68978328  0.68873190  1
  Zn  Zn115  1  0.31103856  0.31370264  0.31362516  1
  Zn  Zn116  1  0.31406012  0.31395652  0.80924648  1
  Zn  Zn117  1  0.30905897  0.81332105  0.31202040  1
  Zn  Zn118  1  0.30790902  0.80958952  0.81191280  1
  Zn  Zn119  1  0.80882652  0.31275830  0.30739514  1
  Zn  Zn120  1  0.81760810  0.32152138  0.80378342  1
  Zn  Zn121  1  0.81796201  0.81070123  0.31807369  1
  Zn  Zn122  1  0.80918761  0.80945488  0.81287321  1
  Zn  Zn123  1  0.19061232  0.43731774  0.43906831  1
  Zn  Zn124  1  0.18995924  0.44037116  0.94301683  1
  Zn  Zn125  1  0.19092692  0.93183720  0.43061425  1
  Zn  Zn126  1  0.18900412  0.93737477  0.93969503  1
  Zn  Zn127  1  0.69263818  0.44007807  0.43282047  1
  Zn  Zn128  1  0.68445282  0.43429709  0.93872425  1
  Zn  Zn129  1  0.69004038  0.93626189  0.43905726  1
  Zn  Zn130  1  0.68741293  0.93151360  0.93767517  1
  Zn  Zn131  1  0.31593993  0.06008943  0.06390951  1
  Zn  Zn132  1  0.30843731  0.06065841  0.56013794  1
  Zn  Zn133  1  0.31919456  0.56541675  0.06174131  1
  Zn  Zn134  1  0.31170476  0.56441777  0.56316649  1
  Zn  Zn135  1  0.81611108  0.05548686  0.06874617  1
  Zn  Zn136  1  0.81299227  0.06383147  0.56321220  1
  Zn  Zn137  1  0.80793970  0.55615008  0.06056673  1
  Zn  Zn138  1  0.81454658  0.56000303  0.56156326  1
  Zn  Zn139  1  0.43963359  0.44282369  0.18788794  1
  Zn  Zn140  1  0.43668499  0.43926978  0.68871150  1
  Zn  Zn141  1  0.43610642  0.93717930  0.19065530  1
  Zn  Zn142  1  0.43642146  0.93753525  0.68680484  1
  Zn  Zn143  1  0.93512513  0.44117231  0.18669241  1
  Zn  Zn144  1  0.93923267  0.43889847  0.69000624  1
  Zn  Zn145  1  0.93943087  0.93778990  0.18427409  1
  Zn  Zn146  1  0.93633343  0.93390298  0.68885724  1
  Zn  Zn147  1  0.06497713  0.06437313  0.29472002  1
  Zn  Zn148  1  0.06114967  0.06624199  0.81121977  1
  Zn  Zn149  1  0.06411563  0.56126125  0.31441274  1
  Zn  Zn150  1  0.05507201  0.55619678  0.80687602  1
  Zn  Zn151  1  0.56090507  0.06283157  0.31050081  1
  Zn  Zn152  1  0.56248061  0.06050337  0.81274023  1
  Zn  Zn153  1  0.56361104  0.56048239  0.30887483  1
  Zn  Zn154  1  0.55779648  0.56218804  0.80849916  1
  Zn  Zn155  1  0.43903522  0.19135800  0.43645020  1
  Zn  Zn156  1  0.44009326  0.18272101  0.93722938  1
  Zn  Zn157  1  0.43758079  0.68705070  0.44305336  1
  Zn  Zn158  1  0.43551027  0.68558960  0.94134518  1
  Zn  Zn159  1  0.93025886  0.19770993  0.43251068  1
  Zn  Zn160  1  0.95605254  0.18725402  0.92891690  1
  Zn  Zn161  1  0.93617185  0.69247090  0.44085637  1
  Zn  Zn162  1  0.91507330  0.68261805  0.93841779  1
  Zn  Zn163  1  0.06841862  0.31306597  0.06133941  1
  Zn  Zn164  1  0.05796451  0.31556630  0.55826962  1
  Zn  Zn165  1  0.05974349  0.81508757  0.07141807  1
  Zn  Zn166  1  0.06268871  0.80871312  0.56995867  1
  Zn  Zn167  1  0.57054047  0.31393806  0.05902081  1
  Zn  Zn168  1  0.56027856  0.31630867  0.55967621  1
  Zn  Zn169  1  0.56331978  0.80888869  0.06370506  1
  Zn  Zn170  1  0.56413728  0.81172086  0.55927172  1
  O  O171  1  0.11834806  0.12431346  0.11795753  1
  O  O172  1  0.12141497  0.11196618  0.62197945  1
  O  O173  1  0.12721894  0.61264671  0.12682402  1
  O  O174  1  0.11880354  0.61839661  0.61972000  1
  O  O175  1  0.61956486  0.11813684  0.11913784  1
  O  O176  1  0.61828830  0.12340934  0.61823460  1
  O  O177  1  0.60995353  0.63617367  0.12099257  1
  O  O178  1  0.62714011  0.60844894  0.63438063  1
  O  O179  1  0.37588256  0.37753603  0.38321830  1
  O  O180  1  0.39113553  0.37213473  0.87689337  1
  O  O181  1  0.38142745  0.88238931  0.37761299  1
  O  O182  1  0.37657001  0.88721414  0.86624356  1
  O  O183  1  0.88515876  0.37392331  0.36954538  1
  O  O184  1  0.88450572  0.38548970  0.87226566  1
  O  O185  1  0.87345811  0.88193227  0.39134930  1
  O  O186  1  0.86995526  0.87623273  0.88970336  1
  O  O187  1  0.25827295  0.00737834  0.37073828  1
  O  O188  1  0.25789689  0.00528312  0.87161245  1
  O  O189  1  0.24770173  0.50904112  0.36588765  1
  O  O190  1  0.25379686  0.50847571  0.87768094  1
  O  O191  1  0.74905549  0.00770413  0.36822088  1
  O  O192  1  0.75625452  -0.00657622  0.86585058  1
  O  O193  1  0.76343045  0.49589987  0.36162336  1
  O  O194  1  0.76164626  0.49427981  0.87723245  1
  O  O195  1  0.24129308  0.49551816  0.12973273  1
  O  O196  1  0.23458953  0.50242809  0.62597228  1
  O  O197  1  0.25159916  0.99470018  0.12801342  1
  O  O198  1  0.24144347  0.99468012  0.63061352  1
  O  O199  1  0.75714169  0.48789007  0.13691472  1
  O  O200  1  0.74103191  0.48967529  0.62019680  1
  O  O201  1  0.74449405  0.99195073  0.13345179  1
  O  O202  1  0.74454057  0.99412492  0.63238142  1
  O  O203  1  0.00645193  0.37120901  0.25320665  1
  O  O204  1  -0.00298789  0.36691515  0.76140052  1
  O  O205  1  0.01087020  0.87068474  0.24450508  1
  O  O206  1  0.00314724  0.85919288  0.74843817  1
  O  O207  1  0.51367711  0.37615379  0.24722840  1
  O  O208  1  0.50714978  0.36867589  0.75676926  1
  O  O209  1  0.50490024  0.86696380  0.26111223  1
  O  O210  1  0.51346559  0.88040798  0.75083754  1
  O  O211  1  0.49417504  0.12756596  0.24044596  1
  O  O212  1  0.49685069  0.12954117  0.74079416  1
  O  O213  1  0.50449882  0.63177487  0.23766056  1
  O  O214  1  0.48542798  0.62394875  0.74333024  1
  O  O215  1  0.99333488  0.13224496  0.23838662  1
  O  O216  1  0.98677532  0.13586899  0.75155806  1
  O  O217  1  1.00407163  0.63819793  0.25025861  1
  O  O218  1  0.99167853  0.63273798  0.74523275  1
  O  O219  1  0.36702483  0.24976903  -0.00055157  1
  O  O220  1  0.37535818  0.25908127  0.50571184  1
  O  O221  1  0.36758496  0.75212259  0.00697489  1
  O  O222  1  0.36199732  0.75742787  0.50745804  1
  O  O223  1  0.86606270  0.23320870  -0.01303563  1
  O  O224  1  0.86452952  0.24795457  0.51207497  1
  O  O225  1  0.86876882  0.75602813  0.01193500  1
  O  O226  1  0.86280346  0.76176668  0.50173375  1
  O  O227  1  0.12535582  0.25624259  0.48536433  1
  O  O228  1  0.13440206  0.23930869  0.99637150  1
  O  O229  1  0.13409299  0.74511712  0.50227350  1
  O  O230  1  0.12792890  0.74798326  1.00025035  1
  O  O231  1  0.63012565  0.24398120  0.49325368  1
  O  O232  1  0.62651416  0.24353888  0.98454783  1
  O  O233  1  0.63861731  0.75486399  0.49300835  1
  O  O234  1  0.63206957  0.75581474  0.98648775  1
  O  O235  1  0.50741113  0.23699874  0.12202707  1
  O  O236  1  0.49192220  0.24081472  0.62656842  1
  O  O237  1  0.49661578  0.74358104  0.13275407  1
  O  O238  1  0.48533611  0.75594813  0.62285448  1
  O  O239  1  0.99657606  0.24117759  0.12326296  1
  O  O240  1  0.99227304  0.25400850  0.62974646  1
  O  O241  1  0.98450886  0.75148578  0.13361358  1
  O  O242  1  0.99640144  0.73804691  0.63615272  1
  O  O243  1  0.00392478  0.26142126  0.36753305  1
  O  O244  1  0.00768955  0.26359270  0.86492165  1
  O  O245  1  -0.00338443  0.75042864  0.35985152  1
  O  O246  1  0.00798042  0.73810377  0.87555819  1
  O  O247  1  0.51403666  0.25201232  0.37073330  1
  O  O248  1  0.50788926  0.25483858  0.87117487  1
  O  O249  1  0.50532245  0.75479534  0.36972135  1
  O  O250  1  0.51301952  0.75055770  0.88141284  1
  O  O251  1  0.25417325  0.12924861  0.48462252  1
  O  O252  1  0.24680441  0.13085673  0.99752953  1
  O  O253  1  0.24144384  0.63273361  0.49590682  1
  O  O254  1  0.25559468  0.63387368  0.98775362  1
  O  O255  1  0.74149875  0.13625451  0.49851407  1
  O  O256  1  0.74354631  0.11697472  0.99992814  1
  O  O257  1  0.75417105  0.64228633  0.50617875  1
  O  O258  1  0.75287233  0.63675744  0.99773560  1
  O  O259  1  0.25303946  0.36621161  0.00910740  1
  O  O260  1  0.25899928  0.37100124  0.50581287  1
  O  O261  1  0.24478034  0.86093942  0.00211995  1
  O  O262  1  0.25419039  0.86781176  0.50457105  1
  O  O263  1  0.74460067  0.37881418  0.01795573  1
  O  O264  1  0.74271715  0.36310863  0.50695928  1
  O  O265  1  0.75598439  0.86450363  0.00771978  1
  O  O266  1  0.75432988  0.87127315  0.51176732  1
  O  O267  1  0.13137067  0.49386178  0.24217370  1
  O  O268  1  0.12713133  0.50445949  0.73506297  1
  O  O269  1  0.12782349  0.98860149  0.24369998  1
  O  O270  1  0.12701901  0.99518400  0.74398981  1
  O  O271  1  0.63865801  0.48757750  0.25475609  1
  O  O272  1  0.62226389  0.48828323  0.74345850  1
  O  O273  1  0.63035076  0.99361518  0.24459713  1
  O  O274  1  0.63099693  0.99432986  0.74411668  1
  O  O275  1  0.37632400  0.01015138  0.26222644  1
  O  O276  1  0.36890777  0.00527319  0.75495253  1
  O  O277  1  0.35909946  0.49889028  0.24934341  1
  O  O278  1  0.37179690  0.50945694  0.75289540  1
  O  O279  1  0.87451557  0.01071157  0.25307746  1
  O  O280  1  0.87251378  0.00748226  0.75630825  1
  O  O281  1  0.86470355  0.49897260  0.25758961  1
  O  O282  1  0.88196633  0.50713236  0.76515463  1
  O  O283  1  0.11754554  0.37297314  0.36511396  1
  O  O284  1  0.11487629  0.37767971  0.87669120  1
  O  O285  1  0.12517813  0.87205006  0.35881344  1
  O  O286  1  0.12391277  0.88293994  0.86209387  1
  O  O287  1  0.62789826  0.36845692  0.36285719  1
  O  O288  1  0.61714097  0.36840785  0.86773988  1
  O  O289  1  0.61763954  0.87114067  0.37268304  1
  O  O290  1  0.62282550  0.86562231  0.86604306  1
  O  O291  1  0.38565929  0.12050160  0.13495172  1
  O  O292  1  0.38230440  0.12817393  0.62553210  1
  O  O293  1  0.38850470  0.63944073  0.12300096  1
  O  O294  1  0.36959017  0.63583345  0.63377571  1
  O  O295  1  0.88223789  0.12811436  0.13039806  1
  O  O296  1  0.87832889  0.13406770  0.63132775  1
  O  O297  1  0.87302976  0.63598523  0.12098894  1
  O  O298  1  0.88221792  0.62247308  0.63200996  1
  O  O299  1  0.24499464  0.25933586  0.11702076  1
  O  O300  1  0.26463598  0.24496168  0.62149770  1
  O  O301  1  0.25856654  0.74642546  0.11557659  1
  O  O302  1  0.25345219  0.75586405  0.61929710  1
  O  O303  1  0.75618233  0.26338009  0.12762032  1
  O  O304  1  0.75518502  0.25868673  0.61851788  1
  O  O305  1  0.75899604  0.75307469  0.12246396  1
  O  O306  1  0.74953594  0.75832445  0.61590673  1
  O  O307  1  0.23807352  0.24264143  0.37257039  1
  O  O308  1  0.25309312  0.24351356  0.88348325  1
  O  O309  1  0.24493320  0.74533649  0.38460802  1
  O  O310  1  0.24960307  0.74246949  0.88385473  1
  O  O311  1  0.74181755  0.24550456  0.38145708  1
  O  O312  1  0.74439884  0.25210422  0.86736399  1
  O  O313  1  0.74266117  0.75556793  0.38825797  1
  O  O314  1  0.74002872  0.74701020  0.88399864  1
  O  O315  1  0.01105411  0.12049544  0.00356894  1
  O  O316  1  -0.00007785  0.13354149  0.50227892  1
  O  O317  1  0.01006647  0.63043435  -0.01040526  1
  O  O318  1  0.00896499  0.63442773  0.51068347  1
  O  O319  1  0.50659304  0.11486787  0.00644124  1
  O  O320  1  0.51116924  0.13008104  0.50597384  1
  O  O321  1  0.49919858  0.61556819  0.00918888  1
  O  O322  1  0.49677101  0.62449753  0.51148897  1
  O  O323  1  0.49049462  0.37895073  0.49484605  1
  O  O324  1  0.50222788  0.38222709  0.99509770  1
  O  O325  1  0.49293004  0.86995800  0.48747694  1
  O  O326  1  0.50432533  0.88675542  0.99973869  1
  O  O327  1  0.99924506  0.37695691  0.48070585  1
  O  O328  1  1.00140591  0.37142527  0.98557528  1
  O  O329  1  0.98389130  0.86783755  0.50898918  1
  O  O330  1  0.99247149  0.88494961  1.00555075  1
  O  O331  1  0.49542113  0.49934699  0.37423910  1
  O  O332  1  0.50046218  0.49327795  0.88407664  1
  O  O333  1  0.49344551  0.99071123  0.37187389  1
  O  O334  1  0.49295046  0.99810953  0.88338877  1
  O  O335  1  0.98560427  0.49041094  0.36524942  1
  O  O336  1  0.99515285  0.48893138  0.87922665  1
  O  O337  1  1.00996014  1.01740176  0.38570087  1
  O  O338  1  0.99163538  1.00858298  0.88713318  1
  O  O339  1  -0.00043934  0.01301202  0.11246106  1
  O  O340  1  0.01007762  0.00110494  0.62949874  1
  O  O341  1  0.01415443  0.49703720  0.12495197  1
  O  O342  1  0.00982898  0.51106211  0.62931693  1
  O  O343  1  0.50453455  0.00548795  0.11957229  1
  O  O344  1  0.50444353  0.01201394  0.62681757  1
  O  O345  1  0.49986506  0.51438346  0.11901969  1
  O  O346  1  0.51678728  0.49664219  0.62367100  1
  O  O347  1  0.24145912  0.38167156  0.24613690  1
  O  O348  1  0.25171134  0.37588890  0.74318434  1
  O  O349  1  0.23602942  0.87199966  0.24757685  1
  O  O350  1  0.24011921  0.88058156  0.74603318  1
  O  O351  1  0.74344991  0.38105564  0.24191623  1
  O  O352  1  0.73900677  0.37017235  0.73742345  1
  O  O353  1  0.74803846  0.87847993  0.24771879  1
  O  O354  1  0.74350593  0.87874150  0.73935823  1
  O  O355  1  0.25687694  0.12409661  0.25990206  1
  O  O356  1  0.25595413  0.11806385  0.75424255  1
  O  O357  1  0.24089703  0.61921313  0.25969458  1
  O  O358  1  0.25751069  0.62384059  0.76372053  1
  O  O359  1  0.75649238  0.12022375  0.25235053  1
  O  O360  1  0.76284950  0.11988184  0.74332342  1
  O  O361  1  0.74604698  0.60851808  0.24271881  1
  O  O362  1  0.76346540  0.62800816  0.75017270  1
  O  O363  1  0.37074569  0.11985829  0.37097573  1
  O  O364  1  0.37210632  0.11573817  0.86774809  1
  O  O365  1  0.35816085  0.62619673  0.38141434  1
  O  O366  1  0.36964491  0.62519690  0.86741210  1
  O  O367  1  0.86788762  0.12278960  0.36770579  1
  O  O368  1  0.86726255  0.12429682  0.87010148  1
  O  O369  1  0.87839207  0.61510665  0.37755443  1
  O  O370  1  0.86787220  0.61056404  0.86722640  1
  O  O371  1  0.13315116  0.37693502  0.13649617  1
  O  O372  1  0.12194226  0.39185287  0.61628731  1
  O  O373  1  0.12893598  0.87669089  0.13655697  1
  O  O374  1  0.12855645  0.88248604  0.63323421  1
  O  O375  1  0.63567793  0.36886397  0.13752150  1
  O  O376  1  0.63100225  0.38027959  0.63125825  1
  O  O377  1  0.63225586  0.87706928  0.13300851  1
  O  O378  1  0.63003819  0.87956909  0.63026020  1
  O  O379  1  0.11781037  0.25661457  0.25891741  1
  O  O380  1  0.11307439  0.24292862  0.74660209  1
  O  O381  1  0.11002160  0.75771598  0.24811356  1
  O  O382  1  0.11530670  0.75775220  0.74676179  1
  O  O383  1  0.62616168  0.25949351  0.25659047  1
  O  O384  1  0.61995743  0.25524791  0.75797606  1
  O  O385  1  0.61829384  0.75648110  0.25961595  1
  O  O386  1  0.62973300  0.75810821  0.76240169  1
  O  O387  1  0.37883567  0.23721600  0.25698124  1
  O  O388  1  0.38331249  0.24200965  0.74137916  1
  O  O389  1  0.38674739  0.74948484  0.24974896  1
  O  O390  1  0.36838406  0.74285069  0.74033678  1
  O  O391  1  0.87990256  0.23747924  0.25101790  1
  O  O392  1  0.88074367  0.24520695  0.73939702  1
  O  O393  1  0.88377359  0.75459530  0.23972742  1
  O  O394  1  0.88269788  0.74190925  0.75192077  1
  O  O395  1  0.37350130  0.48979435  0.50086853  1
  O  O396  1  0.38908076  0.49543027  0.99924737  1
  O  O397  1  0.37088066  0.99393974  0.48705270  1
  O  O398  1  0.38497566  1.00498751  0.98923109  1
  O  O399  1  0.86774404  0.49819368  0.48158998  1
  O  O400  1  0.88094895  0.50598236  0.98442882  1
  O  O401  1  0.87220341  0.98726740  0.50086108  1
  O  O402  1  0.88138398  0.99290289  0.99472515  1
  O  O403  1  0.11926855  0.01033486  -0.00054015  1
  O  O404  1  0.12701907  -0.00241457  0.50627693  1
  O  O405  1  0.12188708  0.49630871  0.01729832  1
  O  O406  1  0.12748615  0.51193782  0.50704645  1
  O  O407  1  0.61909305  0.00224282  0.00529239  1
  O  O408  1  0.63183947  0.01296824  0.50692752  1
  O  O409  1  0.61065264  0.49839541  -0.00163390  1
  O  O410  1  0.62689287  0.49540902  0.51234262  1
  O  O411  1  0.36168803  0.37746626  0.12957874  1
  O  O412  1  0.37844907  0.36564024  0.61748116  1
  O  O413  1  0.37644298  0.85677225  0.13501412  1
  O  O414  1  0.36665263  0.87114380  0.62158465  1
  O  O415  1  0.86527983  0.36959660  0.12616853  1
  O  O416  1  0.86599339  0.36938081  0.63069175  1
  O  O417  1  0.86820127  0.87338539  0.11488710  1
  O  O418  1  0.86553662  0.87319222  0.61906588  1
  O  O419  1  0.12761619  0.12893354  0.37912550  1
  O  O420  1  0.13413309  0.12720721  0.88203534  1
  O  O421  1  0.13017840  0.62852153  0.38452990  1
  O  O422  1  0.13018773  0.62185200  0.87477289  1
  O  O423  1  0.62925538  0.13102260  0.38058651  1
  O  O424  1  0.62435524  0.13271389  0.87971193  1
  O  O425  1  0.62439655  0.63622564  0.37155676  1
  O  O426  1  0.62590532  0.63655750  0.86621395  1
