# generated using pymatgen
data_V85Zn86O256
_symmetry_space_group_name_H-M   'P 1'
_cell_length_a   16.91888131
_cell_length_b   16.92083924
_cell_length_c   16.91552135
_cell_angle_alpha   90.08198503
_cell_angle_beta   90.07817590
_cell_angle_gamma   90.03139120
_symmetry_Int_Tables_number   1
_chemical_formula_structural   V85Zn86O256
_chemical_formula_sum   'V85 Zn86 O256'
_cell_volume   4842.59351806
_cell_formula_units_Z   1
loop_
 _symmetry_equiv_pos_site_id
 _symmetry_equiv_pos_as_xyz
  1  'x, y, z'
loop_
 _atom_site_type_symbol
 _atom_site_label
 _atom_site_symmetry_multiplicity
 _atom_site_fract_x
 _atom_site_fract_y
 _atom_site_fract_z
 _atom_site_occupancy
  V  V0  1  0.36330984  0.37921574  0.49573680  1
  V  V1  1  0.63562391  0.24590363  0.37243547  1
  V  V2  1  0.25015505  0.62689774  0.87260974  1
  V  V3  1  0.74892396  0.49876863  0.74629360  1
  V  V4  1  0.74788284  0.62423806  0.87492061  1
  V  V5  1  0.12476910  0.62611903  -0.00484497  1
  V  V6  1  0.74858862  0.25150588  -0.00064385  1
  V  V7  1  0.62575660  0.62261773  0.00392672  1
  V  V8  1  0.00726445  0.00332047  0.50145263  1
  V  V9  1  0.88739664  0.24625790  0.12768231  1
  V  V10  1  0.50230208  0.88418753  0.87510715  1
  V  V11  1  -0.00438976  0.87649763  0.86945897  1
  V  V12  1  0.50274835  0.49982691  0.00325465  1
  V  V13  1  0.62352612  0.37830263  0.24391262  1
  V  V14  1  0.63089083  0.87615248  0.24799945  1
  V  V15  1  0.88246808  0.38504202  0.49601934  1
  V  V16  1  -0.00093549  0.37083672  0.86644052  1
  V  V17  1  0.62204069  0.75286626  0.86804308  1
  V  V18  1  0.12454282  0.12773923  0.00936210  1
  V  V19  1  -0.00215658  0.00516263  -0.00273979  1
  V  V20  1  0.12138473  0.75083880  0.86607350  1
  V  V21  1  0.88319903  0.24975888  0.62961759  1
  V  V22  1  0.75203833  0.50121547  0.24752642  1
  V  V23  1  0.24845966  0.49599733  0.74068524  1
  V  V24  1  0.23818916  0.64055341  0.38488663  1
  V  V25  1  0.49769881  0.24606150  0.25152951  1
  V  V26  1  0.63813574  0.12250930  0.49715041  1
  V  V27  1  0.75137396  0.37316235  0.62042353  1
  V  V28  1  0.50350207  0.37981091  0.38449809  1
  V  V29  1  0.74434858  0.87066137  0.63569442  1
  V  V30  1  0.62054235  0.61561449  0.49725080  1
  V  V31  1  0.87690537  0.49976792  0.87223810  1
  V  V32  1  0.87740118  0.62523255  0.25098319  1
  V  V33  1  0.87693542  0.88164639  0.00276893  1
  V  V34  1  0.86426439  0.00135296  0.37723230  1
  V  V35  1  0.49944238  0.12076283  0.12398110  1
  V  V36  1  0.50020532  0.37541879  0.87322582  1
  V  V37  1  0.50292882  0.61966349  0.12688098  1
  V  V38  1  0.88192950  0.62869100  0.74978596  1
  V  V39  1  0.37380428  0.00719836  0.37050981  1
  V  V40  1  0.37489481  0.37433829  0.00194493  1
  V  V41  1  0.12389216  0.50024733  0.12406093  1
  V  V42  1  0.36672298  0.25095796  0.61591958  1
  V  V43  1  -0.00273885  0.39733208  0.37005519  1
  V  V44  1  0.00603557  0.12638811  0.63259370  1
  V  V45  1  0.36688437  0.75226668  0.12276444  1
  V  V46  1  0.37219091  0.24415726  0.12926259  1
  V  V47  1  0.62499706  -0.00423374  0.63450974  1
  V  V48  1  0.12337831  0.37117307  0.74175415  1
  V  V49  1  -0.00052402  0.50183181  -0.00567940  1
  V  V50  1  0.24567403  0.49916981  0.25661412  1
  V  V51  1  0.25060972  0.00933487  0.24638089  1
  V  V52  1  0.00287614  0.75390673  0.24954702  1
  V  V53  1  0.12781541  0.87675473  0.74900934  1
  V  V54  1  0.49844385  0.25098003  0.74702634  1
  V  V55  1  0.10808766  0.24032513  0.37901227  1
  V  V56  1  0.13267033  0.00295282  0.62396168  1
  V  V57  1  0.37333000  0.88451812  0.00366296  1
  V  V58  1  0.37214210  0.74798428  0.62261740  1
  V  V59  1  0.50113412  0.00048846  0.49866935  1
  V  V60  1  0.88373191  0.74996146  0.63426871  1
  V  V61  1  0.50108152  0.12547308  0.62209799  1
  V  V62  1  0.36857703  0.11869710  0.74958158  1
  V  V63  1  0.37443862  0.50001701  0.87594044  1
  V  V64  1  0.12695995  -0.00454319  0.12323216  1
  V  V65  1  0.75467823  0.62068475  0.37634742  1
  V  V66  1  0.75140234  0.75327960  0.00113289  1
  V  V67  1  0.74924886  0.37959147  0.12254547  1
  V  V68  1  0.13416238  0.87137561  0.24887548  1
  V  V69  1  0.24840962  0.13184709  0.38862100  1
  V  V70  1  0.37017981  0.87076729  0.49808804  1
  V  V71  1  0.37198326  0.62428153  0.25208788  1
  V  V72  1  0.50007508  0.87556866  0.37447913  1
  V  V73  1  0.62061708  0.11899696  -0.00130010  1
  V  V74  1  0.06500283  0.58432909  0.57004658  1
  V  V75  1  0.49878816  0.61742858  0.62087191  1
  V  V76  1  0.25125735  0.87544840  0.62793288  1
  V  V77  1  0.24944412  0.37472747  0.12657799  1
  V  V78  1  0.50026376  0.74954066  0.24838269  1
  V  V79  1  0.62608420  0.74819291  0.37606334  1
  V  V80  1  0.12321345  0.24549286  0.86982009  1
  V  V81  1  0.00914610  0.87149757  0.37779966  1
  V  V82  1  0.87578006  0.87047034  0.50405631  1
  V  V83  1  0.75642465  0.12079731  0.87270968  1
  V  V84  1  0.37644443  0.62625067  0.75060473  1
  Zn  Zn85  1  0.87472173  0.37605209  -0.00175732  1
  Zn  Zn86  1  0.75545472  -0.00450250  0.75573581  1
  Zn  Zn87  1  0.75691671  0.24677725  0.49562316  1
  Zn  Zn88  1  0.25028739  0.24934243  -0.00227036  1
  Zn  Zn89  1  0.62399764  0.37533799  0.74536844  1
  Zn  Zn90  1  0.88289089  0.12258007  0.75465922  1
  Zn  Zn91  1  0.62534655  0.25002472  0.87184957  1
  Zn  Zn92  1  0.11599682  0.36804264  0.24862964  1
  Zn  Zn93  1  0.24563760  0.11847552  0.87278064  1
  Zn  Zn94  1  0.75202789  0.88011911  0.12507732  1
  Zn  Zn95  1  0.74999293  0.74604748  0.50354018  1
  Zn  Zn96  1  0.50257401  0.75345209  0.74792221  1
  Zn  Zn97  1  -0.00014966  0.62708006  0.12378074  1
  Zn  Zn98  1  0.87705738  0.75267944  0.12393785  1
  Zn  Zn99  1  0.87900726  0.13630268  0.25759691  1
  Zn  Zn100  1  0.37258475  0.00101889  0.87543818  1
  Zn  Zn101  1  0.23868081  0.37295030  0.61392252  1
  Zn  Zn102  1  0.62134367  0.49541721  0.61843498  1
  Zn  Zn103  1  0.74802232  0.01556229  0.24797524  1
  Zn  Zn104  1  0.37834075  0.50462123  0.37947117  1
  Zn  Zn105  1  0.24676073  0.75605952  0.00149032  1
  Zn  Zn106  1  0.62446237  -0.00118281  0.12406840  1
  Zn  Zn107  1  0.18316289  0.18805003  0.19413517  1
  Zn  Zn108  1  0.18610837  0.18955482  0.68405972  1
  Zn  Zn109  1  0.18530911  0.68553252  0.18932668  1
  Zn  Zn110  1  0.17034092  0.69979239  0.65602300  1
  Zn  Zn111  1  0.69428432  0.18634388  0.18785305  1
  Zn  Zn112  1  0.68751138  0.18936608  0.68571043  1
  Zn  Zn113  1  0.68837868  0.69007849  0.18619086  1
  Zn  Zn114  1  0.68863839  0.68482685  0.68586638  1
  Zn  Zn115  1  0.31118055  0.31179810  0.31255373  1
  Zn  Zn116  1  0.31027006  0.30776983  0.81051902  1
  Zn  Zn117  1  0.31224973  0.81473751  0.31124203  1
  Zn  Zn118  1  0.31316725  0.81433110  0.81240988  1
  Zn  Zn119  1  0.81754531  0.31398969  0.30909805  1
  Zn  Zn120  1  0.81359441  0.30967420  0.80967731  1
  Zn  Zn121  1  0.81619873  0.81147392  0.31557539  1
  Zn  Zn122  1  0.81165128  0.81517797  0.81614696  1
  Zn  Zn123  1  0.17394387  0.45106980  0.44083640  1
  Zn  Zn124  1  0.18624561  0.43560076  0.93264898  1
  Zn  Zn125  1  0.19019650  0.93678532  0.43744311  1
  Zn  Zn126  1  0.19321659  0.94129844  0.93428112  1
  Zn  Zn127  1  0.69302979  0.43654403  0.43402333  1
  Zn  Zn128  1  0.68499149  0.43823657  0.93535287  1
  Zn  Zn129  1  0.68713516  0.93105126  0.44619117  1
  Zn  Zn130  1  0.68538669  0.93992173  0.93868732  1
  Zn  Zn131  1  0.30859812  0.06374419  0.06122995  1
  Zn  Zn132  1  0.31423628  0.05997988  0.56250144  1
  Zn  Zn133  1  0.31119451  0.56272386  0.06334925  1
  Zn  Zn134  1  0.31089532  0.55890762  0.55891532  1
  Zn  Zn135  1  0.81077043  0.06300035  0.06441454  1
  Zn  Zn136  1  0.81739552  0.05693116  0.57099324  1
  Zn  Zn137  1  0.81451725  0.56295461  0.06466053  1
  Zn  Zn138  1  0.82005191  0.56483701  0.56281412  1
  Zn  Zn139  1  0.43601391  0.43650935  0.19133272  1
  Zn  Zn140  1  0.43284149  0.43684139  0.68389055  1
  Zn  Zn141  1  0.43731169  0.93742352  0.18830561  1
  Zn  Zn142  1  0.44199565  0.93481768  0.68871916  1
  Zn  Zn143  1  0.93461010  0.43763978  0.18493109  1
  Zn  Zn144  1  0.94295725  0.44441860  0.68051140  1
  Zn  Zn145  1  0.95419482  0.97196662  0.20415485  1
  Zn  Zn146  1  0.93772576  0.94088159  0.69078876  1
  Zn  Zn147  1  0.05945059  0.06539629  0.31313670  1
  Zn  Zn148  1  0.06621605  0.05758433  0.81223608  1
  Zn  Zn149  1  0.06507580  0.56787137  0.31356770  1
  Zn  Zn150  1  0.07889601  0.57538113  0.77255923  1
  Zn  Zn151  1  0.56419759  0.06392928  0.31092068  1
  Zn  Zn152  1  0.56153336  0.06552778  0.81334920  1
  Zn  Zn153  1  0.56541245  0.55879033  0.31028618  1
  Zn  Zn154  1  0.56296984  0.56332832  0.80981372  1
  Zn  Zn155  1  0.43966364  0.19003633  0.43625187  1
  Zn  Zn156  1  0.43672515  0.18911852  0.93766146  1
  Zn  Zn157  1  0.43679796  0.68700499  0.43729786  1
  Zn  Zn158  1  0.43821663  0.69215067  0.93926536  1
  Zn  Zn159  1  0.93624896  0.18401054  0.44758196  1
  Zn  Zn160  1  0.93782762  0.18995579  0.94250710  1
  Zn  Zn161  1  0.94175854  0.68736627  0.43683644  1
  Zn  Zn162  1  0.93781791  0.69012076  0.93251251  1
  Zn  Zn163  1  0.06446080  0.31717515  0.05557867  1
  Zn  Zn164  1  0.06188659  0.30895747  0.55296462  1
  Zn  Zn165  1  0.06351020  0.81504145  0.06267849  1
  Zn  Zn166  1  0.06428232  0.79932860  0.55912822  1
  Zn  Zn167  1  0.56310018  0.30776142  0.06324514  1
  Zn  Zn168  1  0.56392402  0.30950146  0.55999644  1
  Zn  Zn169  1  0.55837337  0.81137305  0.06006065  1
  Zn  Zn170  1  0.56078468  0.80809733  0.56102096  1
  O  O171  1  0.12723494  0.11993498  0.11570768  1
  O  O172  1  0.12191256  0.11423994  0.62699043  1
  O  O173  1  0.12372905  0.61793436  0.11510950  1
  O  O174  1  0.12235481  0.59994074  0.66841687  1
  O  O175  1  0.61662059  0.12961040  0.11694674  1
  O  O176  1  0.62054901  0.11856667  0.61698761  1
  O  O177  1  0.61517207  0.63038398  0.11693113  1
  O  O178  1  0.61692685  0.62390114  0.61524288  1
  O  O179  1  0.38186875  0.37409586  0.38427592  1
  O  O180  1  0.38358520  0.37765439  0.87976072  1
  O  O181  1  0.37829254  0.88289379  0.38191519  1
  O  O182  1  0.38453367  0.87427472  0.88544411  1
  O  O183  1  0.88561128  0.37033295  0.38571348  1
  O  O184  1  0.88253852  0.37952928  0.87385608  1
  O  O185  1  0.88306005  0.87588228  0.38930004  1
  O  O186  1  0.88604043  0.86900839  0.88517524  1
  O  O187  1  0.25572008  0.00883243  0.37054025  1
  O  O188  1  0.25887392  0.00519936  0.87221497  1
  O  O189  1  0.24951337  0.50558879  0.36502229  1
  O  O190  1  0.25874158  0.50513518  0.87159408  1
  O  O191  1  0.76292114  -0.00568273  0.38683837  1
  O  O192  1  0.74460993  0.01652270  0.87484303  1
  O  O193  1  0.74833844  0.51261226  0.36487905  1
  O  O194  1  0.75603932  0.50246152  0.86700180  1
  O  O195  1  0.24482672  0.49597972  0.13398470  1
  O  O196  1  0.25716906  0.49377046  0.63739191  1
  O  O197  1  0.24036395  1.00405169  0.13340538  1
  O  O198  1  0.24105390  0.99287422  0.62088800  1
  O  O199  1  0.75150257  0.48804359  0.12842930  1
  O  O200  1  0.75160091  0.48992909  0.63018325  1
  O  O201  1  0.74478855  0.99665308  0.12899049  1
  O  O202  1  0.73995424  0.98886387  0.62316234  1
  O  O203  1  -0.00399581  0.38126017  0.26550620  1
  O  O204  1  0.00720861  0.38230205  0.75886492  1
  O  O205  1  0.01013125  0.87340821  0.25833108  1
  O  O206  1  0.00839364  0.88013436  0.76255661  1
  O  O207  1  0.50806776  0.36691458  0.25374325  1
  O  O208  1  0.49782899  0.36979324  0.75549592  1
  O  O209  1  0.50894251  0.87043301  0.25603082  1
  O  O210  1  0.49401417  0.87031170  0.76832802  1
  O  O211  1  0.50532128  0.13951122  0.24370028  1
  O  O212  1  0.49380150  0.13352840  0.74249506  1
  O  O213  1  0.49387391  0.62708879  0.24409909  1
  O  O214  1  0.49361160  0.62790030  0.74206186  1
  O  O215  1  0.97763933  0.08194772  0.24076117  1
  O  O216  1  1.00289919  0.12008780  0.73726829  1
  O  O217  1  0.99353038  0.63439404  0.24972966  1
  O  O218  1  0.97989274  0.62875382  0.76679262  1
  O  O219  1  0.37347970  0.25834511  0.00863345  1
  O  O220  1  0.37971267  0.26269644  0.50508591  1
  O  O221  1  0.37188267  0.75637321  0.00857951  1
  O  O222  1  0.38248028  0.76333315  0.50589758  1
  O  O223  1  0.86259898  0.25540254  0.00515539  1
  O  O224  1  0.87353905  0.25845956  0.51023131  1
  O  O225  1  0.86639329  0.75513707  -0.00028489  1
  O  O226  1  0.87594850  0.75766846  0.51254420  1
  O  O227  1  0.13063297  0.25725858  0.47678452  1
  O  O228  1  0.12540691  0.24262696  0.99169130  1
  O  O229  1  0.10877386  0.69680124  0.55768898  1
  O  O230  1  0.12762834  0.74295421  0.99170792  1
  O  O231  1  0.62875215  0.24038168  0.49120083  1
  O  O232  1  0.63582510  0.24378690  0.99877096  1
  O  O233  1  0.62592321  0.73860564  0.49107757  1
  O  O234  1  0.62959335  0.74076742  0.99252066  1
  O  O235  1  0.49237237  0.24521524  0.13281551  1
  O  O236  1  0.49132250  0.24654307  0.62942326  1
  O  O237  1  0.49089397  0.73782362  0.12884390  1
  O  O238  1  0.48985951  0.74186912  0.62715036  1
  O  O239  1  0.98557118  0.25926596  0.11491127  1
  O  O240  1  0.99646749  0.23818320  0.61705390  1
  O  O241  1  0.99977707  0.74987794  0.13629219  1
  O  O242  1  0.98080425  0.76268243  0.63727940  1
  O  O243  1  0.00597425  0.24364703  0.37607887  1
  O  O244  1  0.00657121  0.26067192  0.87957918  1
  O  O245  1  -0.00410552  0.75990328  0.36297854  1
  O  O246  1  0.01431852  0.75927145  0.87830444  1
  O  O247  1  0.50833315  0.25813510  0.36731385  1
  O  O248  1  0.49921083  0.25925356  0.86545942  1
  O  O249  1  0.50483837  0.75496434  0.36764552  1
  O  O250  1  0.50800723  0.75662046  0.87351760  1
  O  O251  1  0.25006350  0.11989313  0.48737889  1
  O  O252  1  0.23887004  0.12904064  0.99718840  1
  O  O253  1  0.26141467  0.62420230  0.48215062  1
  O  O254  1  0.24469107  0.62384060  0.98695640  1
  O  O255  1  0.74072622  0.12416939  0.50692457  1
  O  O256  1  0.74333113  0.13262475  0.99039280  1
  O  O257  1  0.74581232  0.62474289  0.49130793  1
  O  O258  1  0.74347423  0.63090700  0.99673635  1
  O  O259  1  0.25560473  0.37573691  0.00915493  1
  O  O260  1  0.25949409  0.38217893  0.49523784  1
  O  O261  1  0.26815096  0.87228696  -0.00374134  1
  O  O262  1  0.26050927  0.87828324  0.51038213  1
  O  O263  1  0.74690383  0.37011728  0.00541965  1
  O  O264  1  0.76099968  0.37268499  0.50440829  1
  O  O265  1  0.75760182  0.86924101  -0.00372222  1
  O  O266  1  0.76019061  0.86872402  0.51134923  1
  O  O267  1  0.13116711  0.49918467  0.24288764  1
  O  O268  1  0.14079860  0.47962211  0.76915589  1
  O  O269  1  0.13186446  0.99376752  0.24265744  1
  O  O270  1  0.12441961  0.98646190  0.73924921  1
  O  O271  1  0.63821541  0.49126661  0.25037001  1
  O  O272  1  0.63794046  0.49907625  0.74679431  1
  O  O273  1  0.62928625  0.99000545  0.25198956  1
  O  O274  1  0.62690809  1.00520929  0.73697182  1
  O  O275  1  0.36510773  -0.00759586  0.26033417  1
  O  O276  1  0.38163337  0.01724837  0.74409759  1
  O  O277  1  0.36506096  0.50874024  0.25075708  1
  O  O278  1  0.36875815  0.50413724  0.75681491  1
  O  O279  1  0.86091886  -0.02426541  0.27425278  1
  O  O280  1  0.86712396  0.01003633  0.74055428  1
  O  O281  1  0.86195691  0.50921707  0.24443200  1
  O  O282  1  0.86523886  0.50712191  0.75177038  1
  O  O283  1  0.10624724  0.37595575  0.37637281  1
  O  O284  1  0.11796083  0.36331002  0.86990737  1
  O  O285  1  0.11686837  0.87805483  0.36879143  1
  O  O286  1  0.12275725  0.86939731  0.86758563  1
  O  O287  1  0.61952702  0.36958342  0.36712111  1
  O  O288  1  0.61133733  0.37401507  0.87111075  1
  O  O289  1  0.62019537  0.86781219  0.37130756  1
  O  O290  1  0.61112434  0.86868798  0.88373950  1
  O  O291  1  0.38096850  0.13755854  0.11883323  1
  O  O292  1  0.38030437  0.13174478  0.62942553  1
  O  O293  1  0.37913498  0.63014418  0.13492918  1
  O  O294  1  0.37966475  0.63058704  0.62639361  1
  O  O295  1  0.87256569  0.14516628  0.11722052  1
  O  O296  1  0.88631459  0.13356802  0.62215077  1
  O  O297  1  0.87685039  0.62935897  0.13666601  1
  O  O298  1  0.86703571  0.64125659  0.63443964  1
  O  O299  1  0.25644086  0.25581694  0.12771128  1
  O  O300  1  0.26274688  0.25333375  0.62463408  1
  O  O301  1  0.26340264  0.74378572  0.12498504  1
  O  O302  1  0.26513595  0.75774305  0.62443420  1
  O  O303  1  0.75380269  0.26283260  0.11679064  1
  O  O304  1  0.75690686  0.26151165  0.62327694  1
  O  O305  1  0.74931841  0.75471639  0.11098736  1
  O  O306  1  0.75343911  0.75706874  0.62369080  1
  O  O307  1  0.25420317  0.23267866  0.37251275  1
  O  O308  1  0.23894748  0.24591847  0.87719958  1
  O  O309  1  0.25372277  0.73954952  0.37205082  1
  O  O310  1  0.24149317  0.74248382  0.87461472  1
  O  O311  1  0.73897793  0.25784488  0.37490957  1
  O  O312  1  0.74641387  0.24587553  0.88213576  1
  O  O313  1  0.74383551  0.73813356  0.37593691  1
  O  O314  1  0.74188238  0.74677169  0.88498184  1
  O  O315  1  0.00968735  0.11555058  -0.00602525  1
  O  O316  1  -0.00082072  0.10822797  0.51042334  1
  O  O317  1  0.00484583  0.61596188  -0.00331823  1
  O  O318  1  -0.01172261  0.61686735  0.50750788  1
  O  O319  1  0.50911932  0.13544618  0.00968907  1
  O  O320  1  0.50637428  0.11949689  0.50511538  1
  O  O321  1  0.50598291  0.62153082  0.00740100  1
  O  O322  1  0.50769560  0.62704075  0.50681200  1
  O  O323  1  0.49584702  0.37081218  0.48802265  1
  O  O324  1  0.49739621  0.37952734  0.99400288  1
  O  O325  1  0.49418767  0.88064809  0.49293756  1
  O  O326  1  0.48757138  0.86835711  0.98728344  1
  O  O327  1  0.98936290  0.37517163  0.48865857  1
  O  O328  1  1.00092148  0.38813814  0.98682353  1
  O  O329  1  0.99774096  0.87371684  0.49651942  1
  O  O330  1  0.99489518  0.88013409  0.99068071  1
  O  O331  1  0.49683047  0.48428406  0.36373271  1
  O  O332  1  0.49480866  0.49419459  0.87954999  1
  O  O333  1  0.49141100  0.99667504  0.37661620  1
  O  O334  1  0.49640079  0.98821101  0.87274673  1
  O  O335  1  0.99709017  0.49575332  0.37358632  1
  O  O336  1  0.99195999  0.49444864  0.87914564  1
  O  O337  1  0.99319984  0.98759368  0.38673104  1
  O  O338  1  1.00820164  0.98939517  0.88686046  1
  O  O339  1  0.01623485  -0.00914093  0.10788382  1
  O  O340  1  0.01150371  0.00193420  0.61879397  1
  O  O341  1  0.00535655  0.50036231  0.11351152  1
  O  O342  1  0.00268350  0.52040212  0.62636907  1
  O  O343  1  0.50052754  0.01760339  0.13440079  1
  O  O344  1  0.50723360  0.00292712  0.61907214  1
  O  O345  1  0.49430216  0.51194547  0.12177656  1
  O  O346  1  0.50121169  0.51289746  0.62969679  1
  O  O347  1  0.24904479  0.38433112  0.24457506  1
  O  O348  1  0.24378385  0.37871893  0.74623720  1
  O  O349  1  0.23911529  0.88648963  0.25817979  1
  O  O350  1  0.24678680  0.87358995  0.73614103  1
  O  O351  1  0.74546772  0.38230727  0.24352849  1
  O  O352  1  0.74985346  0.38170688  0.74081757  1
  O  O353  1  0.73599324  0.86593364  0.25000010  1
  O  O354  1  0.74804674  0.87559198  0.74071664  1
  O  O355  1  0.24634062  0.11264914  0.26078193  1
  O  O356  1  0.26668099  0.13176083  0.74722804  1
  O  O357  1  0.25638532  0.61901678  0.25659694  1
  O  O358  1  0.25846471  0.61440607  0.76276829  1
  O  O359  1  0.76329186  0.12772862  0.25197129  1
  O  O360  1  0.74587498  0.12980912  0.76639607  1
  O  O361  1  0.75440324  0.62011941  0.25323917  1
  O  O362  1  0.75391709  0.61643280  0.75584831  1
  O  O363  1  0.36676252  0.11471356  0.38048529  1
  O  O364  1  0.37906571  0.12675846  0.85916925  1
  O  O365  1  0.37410499  0.62455139  0.36186163  1
  O  O366  1  0.36973144  0.62199581  0.87262385  1
  O  O367  1  0.87913709  0.10393004  0.38233989  1
  O  O368  1  0.85973135  0.13300680  0.87544196  1
  O  O369  1  0.86695234  0.63243874  0.36131530  1
  O  O370  1  0.86408232  0.62107445  0.87127678  1
  O  O371  1  0.13135327  0.38103829  0.12690897  1
  O  O372  1  0.12182187  0.36528539  0.63674874  1
  O  O373  1  0.12717751  0.88272096  0.13414023  1
  O  O374  1  0.13371779  0.87645264  0.62881828  1
  O  O375  1  0.63053700  0.37016894  0.13671545  1
  O  O376  1  0.63536057  0.37666002  0.62262162  1
  O  O377  1  0.62134673  0.87529912  0.13376121  1
  O  O378  1  0.63124443  0.88220327  0.61781381  1
  O  O379  1  0.13130050  0.25508612  0.27167840  1
  O  O380  1  0.12766918  0.25575418  0.76059302  1
  O  O381  1  0.11794220  0.76031536  0.24489320  1
  O  O382  1  0.12990482  0.76419678  0.75415381  1
  O  O383  1  0.61995131  0.25784736  0.25572828  1
  O  O384  1  0.61019510  0.25273177  0.74728796  1
  O  O385  1  0.61827744  0.75352622  0.25641018  1
  O  O386  1  0.62578418  0.74412993  0.76463731  1
  O  O387  1  0.38523034  0.25629990  0.24145454  1
  O  O388  1  0.38373432  0.24453985  0.74056939  1
  O  O389  1  0.38062304  0.74560457  0.24306444  1
  O  O390  1  0.37551868  0.74224909  0.74157173  1
  O  O391  1  0.87764246  0.25354436  0.23333826  1
  O  O392  1  0.87391274  0.24616788  0.73431315  1
  O  O393  1  0.88292409  0.74584985  0.24604912  1
  O  O394  1  0.86444382  0.74334298  0.74216032  1
  O  O395  1  0.37838948  0.48406779  0.49780643  1
  O  O396  1  0.38210614  0.49502239  0.99625466  1
  O  O397  1  0.38153418  0.99079772  0.49331114  1
  O  O398  1  0.37702813  0.98765789  1.00396395  1
  O  O399  1  0.87104782  0.48353122  0.50122645  1
  O  O400  1  0.88241962  0.49973388  0.99288868  1
  O  O401  1  0.88364944  0.98595155  0.49919515  1
  O  O402  1  0.88559902  0.99547201  1.00192129  1
  O  O403  1  0.12336963  0.00615522  0.00626457  1
  O  O404  1  0.11684571  -0.00955688  0.50954749  1
  O  O405  1  0.11837515  0.50608386  0.00040145  1
  O  O406  1  0.12334297  0.52029082  0.51537718  1
  O  O407  1  0.62450229  0.01459833  0.00292821  1
  O  O408  1  0.61892917  0.00609240  0.50494600  1
  O  O409  1  0.61943900  0.51449210  -0.00506772  1
  O  O410  1  0.62923572  0.51135055  0.49758965  1
  O  O411  1  0.36994168  0.36704395  0.12185987  1
  O  O412  1  0.37423170  0.36854703  0.60991432  1
  O  O413  1  0.38482006  0.86641566  0.11288741  1
  O  O414  1  0.37162285  0.86966620  0.61943619  1
  O  O415  1  0.86550728  0.36888054  0.11998981  1
  O  O416  1  0.87444880  0.37059290  0.61562048  1
  O  O417  1  0.87574796  0.87372453  0.10905231  1
  O  O418  1  0.86609944  0.86682825  0.62371528  1
  O  O419  1  0.13207156  0.13213870  0.37485315  1
  O  O420  1  0.12337797  0.13287779  0.88034682  1
  O  O421  1  0.13841238  0.62917792  0.37397425  1
  O  O422  1  0.13204331  0.63269109  0.87141595  1
  O  O423  1  0.62000002  0.13438026  0.38425714  1
  O  O424  1  0.62934313  0.12989874  0.88262255  1
  O  O425  1  0.63026557  0.62876632  0.37883641  1
  O  O426  1  0.62837897  0.63187651  0.88236674  1
