# generated using pymatgen
data_V85Zn86O256
_symmetry_space_group_name_H-M   'P 1'
_cell_length_a   16.93459098
_cell_length_b   16.95160606
_cell_length_c   16.94080751
_cell_angle_alpha   90.05946892
_cell_angle_beta   90.05829754
_cell_angle_gamma   90.01599874
_symmetry_Int_Tables_number   1
_chemical_formula_structural   V85Zn86O256
_chemical_formula_sum   'V85 Zn86 O256'
_cell_volume   4863.16712746
_cell_formula_units_Z   1
loop_
 _symmetry_equiv_pos_site_id
 _symmetry_equiv_pos_as_xyz
  1  'x, y, z'
loop_
 _atom_site_type_symbol
 _atom_site_label
 _atom_site_symmetry_multiplicity
 _atom_site_fract_x
 _atom_site_fract_y
 _atom_site_fract_z
 _atom_site_occupancy
  V  V0  1  0.00473870  0.12612722  0.62432816  1
  V  V1  1  0.25289946  0.62086651  0.37578592  1
  V  V2  1  0.63603977  0.00391014  0.63136469  1
  V  V3  1  0.11995939  0.61426385  0.49728206  1
  V  V4  1  0.75066732  0.62770743  0.37950336  1
  V  V5  1  -0.00024582  0.62708462  0.12564575  1
  V  V6  1  0.87721377  0.50167389  0.38092533  1
  V  V7  1  0.25076216  0.62837410  0.87256011  1
  V  V8  1  0.37184330  0.11249860  0.75220834  1
  V  V9  1  0.86838402  0.37441888  0.00687855  1
  V  V10  1  0.62366562  -0.00180785  0.12154473  1
  V  V11  1  0.00747476  -0.00355915  0.50319238  1
  V  V12  1  0.38256794  0.87940989  -0.01175908  1
  V  V13  1  0.24628502  0.74743854  0.50184807  1
  V  V14  1  0.61712971  0.37558949  0.75367113  1
  V  V15  1  0.12839891  0.00435833  0.13402657  1
  V  V16  1  0.25905139  0.36519613  0.60928851  1
  V  V17  1  0.87649746  0.62230598  0.74861634  1
  V  V18  1  0.12608343  0.13213677  0.49786237  1
  V  V19  1  0.75190038  0.01152521  0.25099035  1
  V  V20  1  0.75003792  0.62528878  0.87502056  1
  V  V21  1  0.00052447  0.25120675  0.74996911  1
  V  V22  1  -0.00386187  0.75328256  0.24556900  1
  V  V23  1  0.62019239  0.62294452  0.00198839  1
  V  V24  1  0.50425505  0.37390260  0.38740776  1
  V  V25  1  -0.00119916  0.61422335  0.62304802  1
  V  V26  1  0.12749496  0.62279678  0.00228955  1
  V  V27  1  0.62890289  0.23993214  0.37683962  1
  V  V28  1  0.13157963  0.49418972  0.62774499  1
  V  V29  1  0.37993919  0.25543423  0.12761030  1
  V  V30  1  0.50061188  0.12613641  0.13228839  1
  V  V31  1  0.25233862  0.11715973  0.87612786  1
  V  V32  1  0.37694545  0.75139484  0.12639731  1
  V  V33  1  0.00502365  0.49831912  0.00069654  1
  V  V34  1  0.62587934  0.62776697  0.50089912  1
  V  V35  1  0.74791300  0.49754851  0.74677666  1
  V  V36  1  0.87144666  0.62863339  0.24357961  1
  V  V37  1  0.49986119  0.87683182  0.37602387  1
  V  V38  1  0.50381786  0.74752513  0.25087649  1
  V  V39  1  0.74970160  0.12964862  0.86783663  1
  V  V40  1  0.25108275  0.75156048  0.00247067  1
  V  V41  1  0.12530938  0.25184378  0.36770504  1
  V  V42  1  0.87775995  0.37079722  0.49730853  1
  V  V43  1  0.76108560  0.87367332  0.12478671  1
  V  V44  1  0.37847344  0.61732518  0.24928330  1
  V  V45  1  0.49852225  0.75699037  0.75387781  1
  V  V46  1  0.29997774  0.18195227  0.43423331  1
  V  V47  1  0.75724815  0.74937185  0.00399015  1
  V  V48  1  0.00198515  -0.00653260  -0.00108934  1
  V  V49  1  0.00171631  0.74760924  0.75079840  1
  V  V50  1  0.62143832  0.75507425  0.87673517  1
  V  V51  1  0.87821541  0.49673724  0.87361666  1
  V  V52  1  0.48804338  0.48438004  -0.01219964  1
  V  V53  1  0.62242896  0.37174994  0.24440372  1
  V  V54  1  0.38477180  0.49711640  0.39368971  1
  V  V55  1  0.49743042  0.62272202  0.62004667  1
  V  V56  1  0.86427421  -0.00765919  0.86820820  1
  V  V57  1  0.50213149  0.00207899  0.50532176  1
  V  V58  1  0.37277467  0.62074839  0.75115906  1
  V  V59  1  0.25083353  0.37288860  0.13203342  1
  V  V60  1  0.36001837  0.12223709  0.24574335  1
  V  V61  1  0.12553885  0.74922238  0.37075358  1
  V  V62  1  0.36097892  -0.00282084  0.37315448  1
  V  V63  1  0.50096286  0.12162871  0.62656444  1
  V  V64  1  0.11597798  0.75282695  0.87839240  1
  V  V65  1  0.12468241  0.13220389  -0.00122028  1
  V  V66  1  0.01123902  0.36945944  0.87672237  1
  V  V67  1  0.63437992  0.75771067  0.38394468  1
  V  V68  1  0.63323977  0.87870791  0.75194040  1
  V  V69  1  0.87748931  0.00741300  0.37556822  1
  V  V70  1  0.62446182  0.12795843  -0.00213479  1
  V  V71  1  -0.00783531  0.12918614  0.12537579  1
  V  V72  1  0.26269195  0.47309823  0.77092718  1
  V  V73  1  0.12783529  0.49491598  0.13300690  1
  V  V74  1  0.62786201  0.87435507  0.24948484  1
  V  V75  1  0.00408656  0.37951746  0.36832985  1
  V  V76  1  0.49145972  0.25217799  0.75788548  1
  V  V77  1  0.05782300  0.91965829  0.81700363  1
  V  V78  1  0.25426441  0.88123916  0.13279925  1
  V  V79  1  0.22577170  0.87501401  0.62961831  1
  V  V80  1  0.74737820  0.37011328  0.61681273  1
  V  V81  1  0.25528777  0.25516298  -0.00596184  1
  V  V82  1  0.61903771  0.49829899  0.61717042  1
  V  V83  1  0.37351052  0.75652806  0.62610055  1
  V  V84  1  0.37259414  0.87355884  0.50226004  1
  Zn  Zn85  1  0.87247961  0.12379309  0.74825323  1
  Zn  Zn86  1  0.00135771  0.87788611  0.37064663  1
  Zn  Zn87  1  0.23671065  -0.00719111  0.75147327  1
  Zn  Zn88  1  0.74950766  0.49401477  0.24412067  1
  Zn  Zn89  1  0.62163223  0.25600389  0.87582249  1
  Zn  Zn90  1  0.74483147  0.86406327  0.61064781  1
  Zn  Zn91  1  0.86661894  0.74770351  0.61275048  1
  Zn  Zn92  1  0.87142868  0.24685679  0.62242043  1
  Zn  Zn93  1  0.12358290  0.36844726  0.74731339  1
  Zn  Zn94  1  0.74456193  0.25566499  0.00310088  1
  Zn  Zn95  1  0.25187108  0.49465946  0.25266972  1
  Zn  Zn96  1  -0.00061872  0.25519565  0.24692087  1
  Zn  Zn97  1  0.49953606  -0.00113512  -0.01369213  1
  Zn  Zn98  1  0.88146625  0.86999311  -0.00315078  1
  Zn  Zn99  1  0.62818408  0.49148062  0.11979394  1
  Zn  Zn100  1  0.87239589  0.13368879  0.25595336  1
  Zn  Zn101  1  0.49998250  0.61692121  0.12267272  1
  Zn  Zn102  1  0.86624459  0.26008175  0.13423260  1
  Zn  Zn103  1  0.37287415  0.24543691  0.61508509  1
  Zn  Zn104  1  0.85823420  0.86967185  0.49386058  1
  Zn  Zn105  1  0.13012005  0.88125552  0.25342708  1
  Zn  Zn106  1  0.74428260  0.21215214  0.49648295  1
  Zn  Zn107  1  0.18619887  0.19036791  0.18534332  1
  Zn  Zn108  1  0.18676139  0.18996054  0.68615626  1
  Zn  Zn109  1  0.19114701  0.68541218  0.18841627  1
  Zn  Zn110  1  0.18315924  0.68714585  0.68865082  1
  Zn  Zn111  1  0.68591709  0.19775779  0.18579489  1
  Zn  Zn112  1  0.68418267  0.19116008  0.68767892  1
  Zn  Zn113  1  0.68964566  0.68576151  0.18658220  1
  Zn  Zn114  1  0.68798977  0.68939608  0.68728436  1
  Zn  Zn115  1  0.32473224  0.31680463  0.30702399  1
  Zn  Zn116  1  0.30734272  0.30606694  0.80704706  1
  Zn  Zn117  1  0.31390910  0.80931767  0.31307088  1
  Zn  Zn118  1  0.30356201  0.80845332  0.80838839  1
  Zn  Zn119  1  0.80653262  0.31062575  0.31357855  1
  Zn  Zn120  1  0.81308182  0.31122174  0.81145250  1
  Zn  Zn121  1  0.81483494  0.81942129  0.31493969  1
  Zn  Zn122  1  0.81364632  0.80950073  0.80953041  1
  Zn  Zn123  1  0.18958929  0.43686480  0.43331883  1
  Zn  Zn124  1  0.20427526  0.43220461  0.93488069  1
  Zn  Zn125  1  0.18185743  0.93555318  0.44445159  1
  Zn  Zn126  1  0.19357214  0.94184152  0.94969504  1
  Zn  Zn127  1  0.68842506  0.43922877  0.43398898  1
  Zn  Zn128  1  0.68579583  0.44203650  0.93607928  1
  Zn  Zn129  1  0.70958316  0.99482823  0.46099779  1
  Zn  Zn130  1  0.68748308  0.93657250  0.93800489  1
  Zn  Zn131  1  0.31337729  0.06265503  0.06148530  1
  Zn  Zn132  1  0.31399457  0.05024294  0.57394521  1
  Zn  Zn133  1  0.31612021  0.56017520  0.06198017  1
  Zn  Zn134  1  0.30746866  0.56043109  0.56888030  1
  Zn  Zn135  1  0.81059022  0.06240208  0.05631498  1
  Zn  Zn136  1  0.82197828  0.05771303  0.56682544  1
  Zn  Zn137  1  0.81005685  0.55855262  0.06369279  1
  Zn  Zn138  1  0.80985163  0.56125514  0.56008183  1
  Zn  Zn139  1  0.44879556  0.43557678  0.18448620  1
  Zn  Zn140  1  0.43542119  0.43571250  0.68144950  1
  Zn  Zn141  1  0.43811777  0.93963050  0.18844201  1
  Zn  Zn142  1  0.43522262  0.93696038  0.81004181  1
  Zn  Zn143  1  0.93641955  0.44376635  0.19109714  1
  Zn  Zn144  1  0.93720528  0.43335427  0.68560192  1
  Zn  Zn145  1  0.94023511  0.94192943  0.18860052  1
  Zn  Zn146  1  0.92933554  0.93795324  0.67811681  1
  Zn  Zn147  1  0.06286084  0.06994676  0.31453305  1
  Zn  Zn148  1  0.06308248  0.08301908  0.81678640  1
  Zn  Zn149  1  0.05910730  0.56129550  0.31147144  1
  Zn  Zn150  1  0.06956971  0.55842999  0.81137489  1
  Zn  Zn151  1  0.55779864  0.05708778  0.30882742  1
  Zn  Zn152  1  0.56346995  0.06628015  0.81123511  1
  Zn  Zn153  1  0.56505968  0.55867358  0.31252763  1
  Zn  Zn154  1  0.55999847  0.56432470  0.81205371  1
  Zn  Zn155  1  0.46764256  0.17948913  0.42672476  1
  Zn  Zn156  1  0.43683618  0.18280315  0.93871530  1
  Zn  Zn157  1  0.43957477  0.68716559  0.43762523  1
  Zn  Zn158  1  0.43614018  0.68603699  0.93686676  1
  Zn  Zn159  1  0.93846974  0.19143999  0.43752216  1
  Zn  Zn160  1  0.93547374  0.18790713  0.93699173  1
  Zn  Zn161  1  0.93973968  0.68649227  0.43496449  1
  Zn  Zn162  1  0.93837813  0.68467542  0.93779261  1
  Zn  Zn163  1  0.06423146  0.31308189  0.06353661  1
  Zn  Zn164  1  0.06092282  0.31111470  0.55686020  1
  Zn  Zn165  1  0.06613317  0.81485828  0.06748059  1
  Zn  Zn166  1  0.03576979  0.79529953  0.54981906  1
  Zn  Zn167  1  0.55707537  0.31225102  0.05945145  1
  Zn  Zn168  1  0.56140446  0.30555497  0.56191087  1
  Zn  Zn169  1  0.56409040  0.81055934  0.06337149  1
  Zn  Zn170  1  0.56265202  0.81679878  0.56516732  1
  O  O171  1  0.11808945  0.12105044  0.11701789  1
  O  O172  1  0.11401968  0.13119811  0.61577989  1
  O  O173  1  0.12312494  0.61900577  0.11875501  1
  O  O174  1  0.12291875  0.61137189  0.61933956  1
  O  O175  1  0.61833394  0.11861898  0.11879350  1
  O  O176  1  0.61373891  0.11530642  0.63699012  1
  O  O177  1  0.62277350  0.63121770  0.11003507  1
  O  O178  1  0.61574627  0.61819953  0.62270926  1
  O  O179  1  0.38851592  0.38908463  0.37169456  1
  O  O180  1  0.29963965  0.41005567  0.85242216  1
  O  O181  1  0.37964072  0.87996047  0.37939922  1
  O  O182  1  0.36907532  0.86962315  0.88389804  1
  O  O183  1  0.87757921  0.38318446  0.37988004  1
  O  O184  1  0.88239651  0.38521358  0.88047951  1
  O  O185  1  0.88305974  0.88881118  0.37555781  1
  O  O186  1  0.86875004  0.88774119  0.87715358  1
  O  O187  1  0.26197949  -0.00823028  0.38136594  1
  O  O188  1  0.24528142  0.01212417  0.87498107  1
  O  O189  1  0.26578407  0.50241027  0.37241331  1
  O  O190  1  0.22436046  0.52652940  0.86931363  1
  O  O191  1  0.76259202  -0.00317715  0.35837363  1
  O  O192  1  0.76025807  0.00630043  0.87704459  1
  O  O193  1  0.75693134  0.51200773  0.37043680  1
  O  O194  1  0.75856124  0.50509920  0.86765168  1
  O  O195  1  0.24559304  0.49103365  0.12454722  1
  O  O196  1  0.24740228  0.48805765  0.63600547  1
  O  O197  1  0.24179641  0.99240488  0.11852449  1
  O  O198  1  0.24017353  0.98011137  0.62734057  1
  O  O199  1  0.74128829  0.50578499  0.13074325  1
  O  O200  1  0.74094314  0.49463133  0.63022308  1
  O  O201  1  0.74061840  0.99373498  0.12692981  1
  O  O202  1  0.73724958  1.00083290  0.63334625  1
  O  O203  1  -0.00286069  0.37710839  0.26387154  1
  O  O204  1  0.00112577  0.36981488  0.75888019  1
  O  O205  1  0.00634388  0.86683909  0.24752785  1
  O  O206  1  -0.00153894  0.86525759  0.74763910  1
  O  O207  1  0.51380102  0.38213265  0.26418737  1
  O  O208  1  0.50501398  0.36582209  0.74181133  1
  O  O209  1  0.50563700  0.86786888  0.25483271  1
  O  O210  1  0.50343997  0.86046489  0.75156502  1
  O  O211  1  0.49109089  0.11844300  0.23546343  1
  O  O212  1  0.48871264  0.13224191  0.74454114  1
  O  O213  1  0.49655058  0.63145548  0.24863004  1
  O  O214  1  0.49187670  0.63261087  0.74071806  1
  O  O215  1  0.99798906  0.12838444  0.23735449  1
  O  O216  1  0.99732519  0.13357883  0.74173628  1
  O  O217  1  0.99185302  0.63158099  0.24517066  1
  O  O218  1  0.99587643  0.62619481  0.74712920  1
  O  O219  1  0.36189750  0.24090353  0.01046830  1
  O  O220  1  0.36903823  0.23192912  0.48772522  1
  O  O221  1  0.37085835  0.75908251  0.00490288  1
  O  O222  1  0.36808284  0.75214159  0.50631561  1
  O  O223  1  0.87756497  0.26920453  -0.00166328  1
  O  O224  1  0.86395273  0.25729634  0.49833135  1
  O  O225  1  0.86207490  0.75058323  -0.00660295  1
  O  O226  1  0.91907082  0.76813875  0.50799658  1
  O  O227  1  0.12404158  0.23999788  0.48938482  1
  O  O228  1  0.14101609  0.24205954  1.00965296  1
  O  O229  1  0.12396930  0.73658438  0.48668781  1
  O  O230  1  0.13019860  0.74571226  0.99643836  1
  O  O231  1  0.62618257  0.25183089  0.48355336  1
  O  O232  1  0.62260000  0.24169354  0.99475473  1
  O  O233  1  0.61635576  0.74595360  0.48853922  1
  O  O234  1  0.63257278  0.74568477  0.99260445  1
  O  O235  1  0.48954400  0.23929098  0.11871452  1
  O  O236  1  0.49572703  0.23746678  0.62929613  1
  O  O237  1  0.49619295  0.75079262  0.13853117  1
  O  O238  1  0.49138258  0.74487114  0.63232625  1
  O  O239  1  0.99663150  0.24299827  0.12515473  1
  O  O240  1  0.99598584  0.24461569  0.62899225  1
  O  O241  1  1.00832333  0.74279757  0.13688674  1
  O  O242  1  1.00625299  0.72838144  0.63887372  1
  O  O243  1  0.00917100  0.25993506  0.37303107  1
  O  O244  1  -0.00529853  0.25918287  0.86700688  1
  O  O245  1  0.01030652  0.74902008  0.36090474  1
  O  O246  1  0.00825781  0.75127434  0.87282715  1
  O  O247  1  0.50653852  0.26807645  0.37184350  1
  O  O248  1  0.49804613  0.24649561  0.86173636  1
  O  O249  1  0.50497976  0.75456194  0.36563139  1
  O  O250  1  0.50948279  0.74218709  0.86596234  1
  O  O251  1  0.24712104  0.12213731  0.50089788  1
  O  O252  1  0.24485700  0.13134926  0.99575884  1
  O  O253  1  0.24279643  0.62915443  0.49614768  1
  O  O254  1  0.24831768  0.63275614  0.99399675  1
  O  O255  1  0.74529765  0.09923702  0.49796899  1
  O  O256  1  0.73618014  0.12202768  0.99003994  1
  O  O257  1  0.74450601  0.62500401  0.48725718  1
  O  O258  1  0.74435055  0.63171259  0.99375824  1
  O  O259  1  0.25067896  0.35990767  0.01130210  1
  O  O260  1  0.25067484  0.38036770  0.51127553  1
  O  O261  1  0.26155649  0.86943206  0.01020448  1
  O  O262  1  0.25216779  0.86660406  0.51056514  1
  O  O263  1  0.76589720  0.37976377  -0.00722427  1
  O  O264  1  0.75656796  0.38238310  0.51031841  1
  O  O265  1  0.75072907  0.86653397  0.00773781  1
  O  O266  1  0.74633429  0.89305672  0.49765935  1
  O  O267  1  0.13040862  0.50842025  0.23685615  1
  O  O268  1  0.13959266  0.49288904  0.74343174  1
  O  O269  1  0.12123786  1.00225334  0.23751751  1
  O  O270  1  0.11468960  0.99060758  0.76406306  1
  O  O271  1  0.62566843  0.48839870  0.24774128  1
  O  O272  1  0.62691363  0.49552740  0.73946906  1
  O  O273  1  0.63224181  0.99457165  0.24303731  1
  O  O274  1  0.61718687  0.98825633  0.74345452  1
  O  O275  1  0.38095011  0.00825603  0.26265187  1
  O  O276  1  0.36467347  0.00956704  0.74926318  1
  O  O277  1  0.37953770  0.51114660  0.24991484  1
  O  O278  1  0.36721684  0.51145624  0.74329684  1
  O  O279  1  0.86864460  0.00485063  0.25454491  1
  O  O280  1  0.88400143  0.00238157  0.76613941  1
  O  O281  1  0.87269355  0.51144031  0.26124395  1
  O  O282  1  0.87031743  0.50204856  0.75629084  1
  O  O283  1  0.11503841  0.36822734  0.38239054  1
  O  O284  1  0.11363381  0.37976918  0.87643500  1
  O  O285  1  0.12701748  0.86270068  0.37149101  1
  O  O286  1  0.12612081  0.86944806  0.88317301  1
  O  O287  1  0.61581458  0.37270761  0.37273692  1
  O  O288  1  0.63206652  0.37722843  0.85656294  1
  O  O289  1  0.61697913  0.86689965  0.36626077  1
  O  O290  1  0.62811345  0.86259607  0.87049675  1
  O  O291  1  0.38115006  0.12766991  0.12988479  1
  O  O292  1  0.37827074  0.12499873  0.63461548  1
  O  O293  1  0.37690658  0.63287120  0.13352435  1
  O  O294  1  0.37829794  0.63355873  0.63055077  1
  O  O295  1  0.88718669  0.12175447  0.11922179  1
  O  O296  1  0.88910881  0.12596508  0.62862872  1
  O  O297  1  0.88155150  0.62129212  0.13665046  1
  O  O298  1  0.88384622  0.62169893  0.62882484  1
  O  O299  1  0.25759395  0.25528697  0.11873011  1
  O  O300  1  0.25051787  0.26045811  0.61802815  1
  O  O301  1  0.25705788  0.75649796  0.12067020  1
  O  O302  1  0.25308015  0.75231867  0.62051456  1
  O  O303  1  0.75607823  0.24448783  0.11463753  1
  O  O304  1  0.74793071  0.25664664  0.61658026  1
  O  O305  1  0.74511262  0.76043968  0.11545363  1
  O  O306  1  0.75283594  0.74773054  0.62153308  1
  O  O307  1  0.25012170  0.25221729  0.37675060  1
  O  O308  1  0.25307533  0.24237459  0.89052512  1
  O  O309  1  0.24495141  0.74135749  0.38083319  1
  O  O310  1  0.23645742  0.74465604  0.87951685  1
  O  O311  1  0.73350494  0.24489461  0.37780508  1
  O  O312  1  0.74861005  0.24361040  0.88169102  1
  O  O313  1  0.74152280  0.74587875  0.37056146  1
  O  O314  1  0.74307482  0.74325342  0.88038840  1
  O  O315  1  0.00773620  0.11900175  0.00268091  1
  O  O316  1  0.00770741  0.12131543  0.50555234  1
  O  O317  1  0.00571810  0.61881526  0.00670385  1
  O  O318  1  0.00969710  0.62172845  0.50935300  1
  O  O319  1  0.50894462  0.12060010  0.00829249  1
  O  O320  1  0.49420064  0.11313173  0.51151666  1
  O  O321  1  0.50933685  0.62790308  0.00204463  1
  O  O322  1  0.50594655  0.63115058  0.51380410  1
  O  O323  1  0.50360980  0.37582296  0.48742072  1
  O  O324  1  0.50043027  0.38417755  0.99168922  1
  O  O325  1  0.49017342  0.87844609  0.49623764  1
  O  O326  1  0.48520446  0.87223840  1.00241738  1
  O  O327  1  0.98392445  0.37094404  0.49102145  1
  O  O328  1  0.99455391  0.38058469  0.99300523  1
  O  O329  1  1.01975260  0.89484900  0.49479840  1
  O  O330  1  0.99987246  0.88858785  1.00792308  1
  O  O331  1  0.49096059  0.49556169  0.37869038  1
  O  O332  1  0.50141983  0.50705140  0.88872209  1
  O  O333  1  0.49284303  0.99443842  0.38500585  1
  O  O334  1  0.49655237  1.00334699  0.87397853  1
  O  O335  1  0.99128610  0.49388311  0.37444545  1
  O  O336  1  0.99514735  0.49429888  0.87915122  1
  O  O337  1  0.99809117  1.00088151  0.38285521  1
  O  O338  1  1.00111557  0.99389772  0.87925140  1
  O  O339  1  0.00769984  0.00859100  0.11674742  1
  O  O340  1  -0.00044862  0.00821365  0.61120094  1
  O  O341  1  0.00965025  0.50589368  0.12148711  1
  O  O342  1  0.01136624  0.50738791  0.63421480  1
  O  O343  1  0.51247084  0.00342480  0.12280838  1
  O  O344  1  0.50117193  0.01291899  0.62082215  1
  O  O345  1  0.50747792  0.50013359  0.10850660  1
  O  O346  1  0.50667947  0.51012314  0.62890828  1
  O  O347  1  0.25387264  0.37596563  0.23733703  1
  O  O348  1  0.24054536  0.36899670  0.72814586  1
  O  O349  1  0.25183127  0.86947135  0.23684420  1
  O  O350  1  0.24260943  0.87058033  0.73519660  1
  O  O351  1  0.72916895  0.37785941  0.26207971  1
  O  O352  1  0.74366402  0.37796982  0.73614640  1
  O  O353  1  0.74551172  0.88110431  0.24075242  1
  O  O354  1  0.73479259  0.86741043  0.74928674  1
  O  O355  1  0.26041780  0.12104254  0.24107166  1
  O  O356  1  0.25148979  0.12334820  0.75804219  1
  O  O357  1  0.26201765  0.62322917  0.25855724  1
  O  O358  1  0.25783860  0.62593472  0.75588661  1
  O  O359  1  0.74953693  0.11360598  0.24136950  1
  O  O360  1  0.75080492  0.13181691  0.76318908  1
  O  O361  1  0.75858021  0.62964669  0.26082810  1
  O  O362  1  0.75601758  0.61778158  0.75621108  1
  O  O363  1  0.36771823  0.12264341  0.37173308  1
  O  O364  1  0.36330193  0.12925283  0.86659722  1
  O  O365  1  0.37579112  0.61355364  0.37021427  1
  O  O366  1  0.36257311  0.63350702  0.86404839  1
  O  O367  1  0.88304149  0.11264482  0.37348472  1
  O  O368  1  0.86664314  0.11511396  0.87580465  1
  O  O369  1  0.86966395  0.62116813  0.37087384  1
  O  O370  1  0.87299435  0.61202584  0.87138003  1
  O  O371  1  0.13497474  0.38435016  0.12178598  1
  O  O372  1  0.12792935  0.38585092  0.61787099  1
  O  O373  1  0.13655043  0.88597023  0.12632814  1
  O  O374  1  0.13020622  0.85845585  0.61606798  1
  O  O375  1  0.61736747  0.36858509  0.14049561  1
  O  O376  1  0.62845778  0.38117084  0.62862247  1
  O  O377  1  0.63122723  0.88227070  0.12888500  1
  O  O378  1  0.62297473  0.88364066  0.63613036  1
  O  O379  1  0.12485680  0.24738983  0.26321989  1
  O  O380  1  0.10825870  0.25065538  0.74628626  1
  O  O381  1  0.12225276  0.74645746  0.26030060  1
  O  O382  1  0.11205899  0.74395687  0.76260841  1
  O  O383  1  0.62437983  0.26121095  0.26266481  1
  O  O384  1  0.61284575  0.25992990  0.75005873  1
  O  O385  1  0.61926080  0.75297560  0.25728989  1
  O  O386  1  0.61609065  0.75316568  0.75791968  1
  O  O387  1  0.37365542  0.23710461  0.23952416  1
  O  O388  1  0.37790882  0.24128739  0.74559265  1
  O  O389  1  0.38447506  0.73869584  0.24973544  1
  O  O390  1  0.37931779  0.74247347  0.74398306  1
  O  O391  1  0.87840340  0.24978670  0.25009836  1
  O  O392  1  0.88546593  0.24952184  0.74528367  1
  O  O393  1  0.88511861  0.74257862  0.25551196  1
  O  O394  1  0.88874932  0.73934304  0.75510209  1
  O  O395  1  0.37575166  0.50638866  0.49125050  1
  O  O396  1  0.38846801  0.50222417  0.99845189  1
  O  O397  1  0.38140791  0.99177619  0.49612059  1
  O  O398  1  0.37656063  0.98220984  1.00387272  1
  O  O399  1  0.87015244  0.49344515  0.48705155  1
  O  O400  1  0.88296844  0.49378877  0.99231889  1
  O  O401  1  0.89393056  0.99742441  0.49249138  1
  O  O402  1  0.88542790  0.99970552  0.98518871  1
  O  O403  1  0.11846037  0.00928309  0.00950874  1
  O  O404  1  0.11629591  0.01731142  0.49254368  1
  O  O405  1  0.12340223  0.50446175  0.00842728  1
  O  O406  1  0.13367643  0.50955758  0.50712014  1
  O  O407  1  0.62269741  0.00491109  0.00700869  1
  O  O408  1  0.60673180  -0.00727246  0.51621677  1
  O  O409  1  0.61877014  0.50993235  -0.00231858  1
  O  O410  1  0.62984545  0.50845942  0.51152460  1
  O  O411  1  0.37188256  0.36231802  0.13152683  1
  O  O412  1  0.36378645  0.36805024  0.62144829  1
  O  O413  1  0.37132282  0.87004414  0.12052600  1
  O  O414  1  0.36558527  0.85983863  0.62112539  1
  O  O415  1  0.88231526  0.38096900  0.10968901  1
  O  O416  1  0.86592229  0.37489295  0.61519032  1
  O  O417  1  0.86372607  0.88272182  0.12074070  1
  O  O418  1  0.86654754  0.86893039  0.61917132  1
  O  O419  1  0.12659784  0.13760647  0.38295974  1
  O  O420  1  0.13385114  0.12914131  0.89106458  1
  O  O421  1  0.13075069  0.62511807  0.38087205  1
  O  O422  1  0.12469461  0.63704009  0.88398508  1
  O  O423  1  0.60277997  0.14208455  0.37124615  1
  O  O424  1  0.63217707  0.12869600  0.88129668  1
  O  O425  1  0.63237010  0.63259708  0.37918366  1
  O  O426  1  0.63040516  0.63413494  0.88204449  1
