# generated using pymatgen
data_V85Zn86O256
_symmetry_space_group_name_H-M   'P 1'
_cell_length_a   16.91776956
_cell_length_b   16.92433579
_cell_length_c   16.91911371
_cell_angle_alpha   90.03780301
_cell_angle_beta   89.97899273
_cell_angle_gamma   89.98186521
_symmetry_Int_Tables_number   1
_chemical_formula_structural   V85Zn86O256
_chemical_formula_sum   'V85 Zn86 O256'
_cell_volume   4844.31307091
_cell_formula_units_Z   1
loop_
 _symmetry_equiv_pos_site_id
 _symmetry_equiv_pos_as_xyz
  1  'x, y, z'
loop_
 _atom_site_type_symbol
 _atom_site_label
 _atom_site_symmetry_multiplicity
 _atom_site_fract_x
 _atom_site_fract_y
 _atom_site_fract_z
 _atom_site_occupancy
  V  V0  1  0.74508168  -0.00053045  0.74236228  1
  V  V1  1  0.49748818  0.25142297  0.25349262  1
  V  V2  1  0.50308527  0.24738891  0.75409589  1
  V  V3  1  0.50254277  0.50804276  0.00448501  1
  V  V4  1  0.74765610  0.12975656  0.87358636  1
  V  V5  1  0.25925729  0.87154107  0.60817357  1
  V  V6  1  0.38469618  0.36973586  0.49514894  1
  V  V7  1  0.87430840  0.25252298  0.13161278  1
  V  V8  1  0.88018760  0.12454673  0.74575421  1
  V  V9  1  0.25101914  -0.00675701  0.75627895  1
  V  V10  1  0.88069075  0.12922524  0.25349945  1
  V  V11  1  0.25076555  0.88013138  0.12975586  1
  V  V12  1  0.62579938  0.74403380  0.37857933  1
  V  V13  1  0.48704607  0.73775049  0.75377390  1
  V  V14  1  0.11363573  0.49996401  0.61569046  1
  V  V15  1  0.37524328  0.11722212  0.75425591  1
  V  V16  1  0.62322332  0.13139457  -0.00224369  1
  V  V17  1  0.00209557  0.37140329  0.87909795  1
  V  V18  1  0.62406905  0.87542735  0.25529075  1
  V  V19  1  0.50146660  0.00018910  0.49832905  1
  V  V20  1  0.37707326  0.50558180  0.86889364  1
  V  V21  1  0.50250907  0.75238188  0.24813812  1
  V  V22  1  0.88677598  0.62394158  0.74429166  1
  V  V23  1  0.06732953  0.68387897  0.05503266  1
  V  V24  1  0.62389631  0.25549510  0.38086189  1
  V  V25  1  0.74735781  0.25140839  -0.00201117  1
  V  V26  1  0.25401675  0.50677134  0.74425697  1
  V  V27  1  0.75179290  0.13391644  0.37863600  1
  V  V28  1  -0.00070052  0.86989051  0.37574962  1
  V  V29  1  0.12648654  -0.00089941  0.12728687  1
  V  V30  1  0.11244408  0.62888759  0.50157690  1
  V  V31  1  0.25639615  0.62944108  0.38750923  1
  V  V32  1  0.24582439  0.62335208  0.87696723  1
  V  V33  1  0.75218218  0.49768444  0.74336405  1
  V  V34  1  0.63061891  0.36971039  0.74736615  1
  V  V35  1  0.24986539  0.24844899  0.49890912  1
  V  V36  1  0.25187226  0.37422358  0.62410787  1
  V  V37  1  0.12568834  0.00119029  0.62643109  1
  V  V38  1  0.75164699  0.50218467  0.25511989  1
  V  V39  1  0.13036599  0.50318923  0.11917134  1
  V  V40  1  -0.00064783  0.00037115  0.50616697  1
  V  V41  1  0.37409255  0.37316078  -0.00096839  1
  V  V42  1  0.37564214  0.24655961  0.62577351  1
  V  V43  1  0.38299771  0.74886082  0.12161420  1
  V  V44  1  0.61949757  0.37680822  0.25352463  1
  V  V45  1  0.74693662  0.37754039  0.12574690  1
  V  V46  1  0.24168111  0.25165760  0.00084219  1
  V  V47  1  0.24768751  0.12167000  0.36966354  1
  V  V48  1  0.88083678  0.63338889  0.23886333  1
  V  V49  1  0.12081275  0.12616360  0.50230223  1
  V  V50  1  0.74847111  0.62389568  0.87394692  1
  V  V51  1  0.12740586  0.37470168  0.74882045  1
  V  V52  1  0.85709632  0.25600637  0.62068068  1
  V  V53  1  0.11245268  0.25502235  0.36770239  1
  V  V54  1  0.50839339  0.49899754  0.49679334  1
  V  V55  1  0.87070541  0.87365160  0.50241727  1
  V  V56  1  0.00317484  0.50399244  0.00381149  1
  V  V57  1  0.37416851  0.88344805  -0.00333357  1
  V  V58  1  0.75106099  0.00104543  0.25285924  1
  V  V59  1  0.00032803  0.12566176  0.12373029  1
  V  V60  1  0.37986555  0.49193689  0.37294525  1
  V  V61  1  0.87622052  0.38022265  0.49846767  1
  V  V62  1  0.25146599  0.11979105  0.87808710  1
  V  V63  1  0.62092780  0.87577114  0.73942152  1
  V  V64  1  0.50552842  0.36988238  0.87493555  1
  V  V65  1  0.37574771  -0.00199922  0.37641431  1
  V  V66  1  0.24950403  0.74700422  0.00067405  1
  V  V67  1  0.62383158  -0.00018557  0.12368687  1
  V  V68  1  0.12069969  0.74568301  0.85966690  1
  V  V69  1  0.37874091  0.62399057  0.24578964  1
  V  V70  1  0.63101963  0.12505715  0.50420697  1
  V  V71  1  0.00162620  0.24854155  0.73834580  1
  V  V72  1  0.62589061  0.75307258  0.87485424  1
  V  V73  1  -0.00368410  0.87007712  0.87022498  1
  V  V74  1  0.49618391  0.88317926  0.87408989  1
  V  V75  1  0.87435337  -0.00363164  0.88019368  1
  V  V76  1  0.75925655  0.75869182  0.00356457  1
  V  V77  1  0.12817598  0.87655873  0.25049562  1
  V  V78  1  0.89697752  0.49918865  0.37566631  1
  V  V79  1  0.88782278  0.74668249  0.62835019  1
  V  V80  1  0.37352847  0.12038886  0.24791620  1
  V  V81  1  0.87370119  0.37813217  0.00085952  1
  V  V82  1  0.62805808  0.50411626  0.62238923  1
  V  V83  1  0.50449705  0.11877798  0.62638556  1
  V  V84  1  0.74500073  0.73810918  0.50531689  1
  Zn  Zn85  1  0.36953677  0.74347574  0.60452871  1
  Zn  Zn86  1  0.12480464  0.24713887  0.87370224  1
  Zn  Zn87  1  0.87543441  0.49935863  0.87360133  1
  Zn  Zn88  1  0.11709574  0.38458017  0.26012181  1
  Zn  Zn89  1  0.24924186  0.50024770  0.24974392  1
  Zn  Zn90  1  0.49281682  0.61849121  0.62924894  1
  Zn  Zn91  1  0.76125568  0.87301673  0.12679215  1
  Zn  Zn92  1  0.13178359  0.75281836  0.37905821  1
  Zn  Zn93  1  0.87508576  0.00233292  0.37980189  1
  Zn  Zn94  1  0.49738002  0.00399225  -0.00221245  1
  Zn  Zn95  1  0.12269100  0.12288370  -0.00088109  1
  Zn  Zn96  1  -0.00026015  0.75195537  0.23520810  1
  Zn  Zn97  1  0.12178955  0.86937820  0.74354779  1
  Zn  Zn98  1  0.25217737  0.37555635  0.13137187  1
  Zn  Zn99  1  -0.00298078  -0.00325685  -0.00041903  1
  Zn  Zn100  1  0.49988065  0.12715831  0.12391294  1
  Zn  Zn101  1  0.37416932  0.24888737  0.12491414  1
  Zn  Zn102  1  0.75152386  0.62240690  0.37763938  1
  Zn  Zn103  1  0.62049011  0.50768807  0.13097068  1
  Zn  Zn104  1  0.62361432  0.63242522  0.00947072  1
  Zn  Zn105  1  0.74420598  0.87478551  0.62278249  1
  Zn  Zn106  1  0.45113600  0.83995584  0.42536192  1
  Zn  Zn107  1  0.18894331  0.18894256  0.18743294  1
  Zn  Zn108  1  0.18790492  0.18436036  0.68835661  1
  Zn  Zn109  1  0.19625181  0.69372628  0.19588592  1
  Zn  Zn110  1  0.19287735  0.68476531  0.67900619  1
  Zn  Zn111  1  0.68732227  0.18818109  0.18879256  1
  Zn  Zn112  1  0.68541326  0.18588929  0.69037883  1
  Zn  Zn113  1  0.68972640  0.68371781  0.18600139  1
  Zn  Zn114  1  0.68725215  0.68601349  0.68799481  1
  Zn  Zn115  1  0.30487594  0.31150793  0.31098969  1
  Zn  Zn116  1  0.31377872  0.31126869  0.81478490  1
  Zn  Zn117  1  0.31031813  0.81000333  0.30973854  1
  Zn  Zn118  1  0.30962461  0.81340846  0.81362253  1
  Zn  Zn119  1  0.81312216  0.31803660  0.31694238  1
  Zn  Zn120  1  0.81465771  0.31225014  0.81210019  1
  Zn  Zn121  1  0.81157763  0.81202896  0.31484028  1
  Zn  Zn122  1  0.81137164  0.81206900  0.80812631  1
  Zn  Zn123  1  0.19162927  0.43784509  0.43701055  1
  Zn  Zn124  1  0.18462978  0.43941541  0.94018214  1
  Zn  Zn125  1  0.18803079  0.94075246  0.43522396  1
  Zn  Zn126  1  0.18122784  0.93207015  0.93992245  1
  Zn  Zn127  1  0.69675522  0.43142705  0.44074495  1
  Zn  Zn128  1  0.68585561  0.43815624  0.93309922  1
  Zn  Zn129  1  0.68514027  0.93869309  0.43722311  1
  Zn  Zn130  1  0.68656784  0.93971273  0.93332466  1
  Zn  Zn131  1  0.31061192  0.06304623  0.06513334  1
  Zn  Zn132  1  0.31227437  0.05927829  0.56183408  1
  Zn  Zn133  1  0.31606187  0.56386111  0.05993889  1
  Zn  Zn134  1  0.31861675  0.55943839  0.56300232  1
  Zn  Zn135  1  0.81012728  0.06193206  0.06460427  1
  Zn  Zn136  1  0.81371234  0.06611673  0.56525394  1
  Zn  Zn137  1  0.80952559  0.56480272  0.06248069  1
  Zn  Zn138  1  0.81774703  0.56005701  0.56201048  1
  Zn  Zn139  1  0.43729276  0.43552636  0.18580529  1
  Zn  Zn140  1  0.44008382  0.43511345  0.68568044  1
  Zn  Zn141  1  0.43932245  0.93787913  0.18880318  1
  Zn  Zn142  1  0.43666239  0.93574939  0.68625469  1
  Zn  Zn143  1  0.94205583  0.44323791  0.19121176  1
  Zn  Zn144  1  0.93631663  0.43220511  0.68682944  1
  Zn  Zn145  1  0.93899428  0.94206131  0.19329898  1
  Zn  Zn146  1  0.93692927  0.93490063  0.68941061  1
  Zn  Zn147  1  0.06105842  0.06006671  0.31453395  1
  Zn  Zn148  1  0.06286170  0.06149008  0.81271333  1
  Zn  Zn149  1  0.06705467  0.57186830  0.30696952  1
  Zn  Zn150  1  0.06609242  0.55626050  0.81277432  1
  Zn  Zn151  1  0.56166290  0.06608150  0.31462182  1
  Zn  Zn152  1  0.56563198  0.06090687  0.81393168  1
  Zn  Zn153  1  0.56006111  0.56410606  0.31270565  1
  Zn  Zn154  1  0.56743844  0.55890503  0.81568058  1
  Zn  Zn155  1  0.44022295  0.18450704  0.43538831  1
  Zn  Zn156  1  0.43431286  0.18714066  0.93756364  1
  Zn  Zn157  1  0.44522575  0.67470488  0.43845288  1
  Zn  Zn158  1  0.43361113  0.68912063  0.93298082  1
  Zn  Zn159  1  0.93872306  0.19026494  0.44410843  1
  Zn  Zn160  1  0.93630110  0.18724736  0.93958936  1
  Zn  Zn161  1  0.93425724  0.68691936  0.43539816  1
  Zn  Zn162  1  0.93360793  0.68725891  0.92358461  1
  Zn  Zn163  1  0.04537240  0.33117258  0.09932224  1
  Zn  Zn164  1  0.06017318  0.31590575  0.55731260  1
  Zn  Zn165  1  -0.06648926  0.82406164  0.05290207  1
  Zn  Zn166  1  0.06625099  0.81293337  0.56140648  1
  Zn  Zn167  1  0.56119841  0.31437614  0.06634648  1
  Zn  Zn168  1  0.56679084  0.31105772  0.56697347  1
  Zn  Zn169  1  0.56607546  0.81620650  0.06227244  1
  Zn  Zn170  1  0.54777556  0.79979603  0.55927115  1
  O  O171  1  0.11708201  0.11866909  0.12750107  1
  O  O172  1  0.13227677  0.11096282  0.61671827  1
  O  O173  1  0.12732250  0.63024593  0.12079758  1
  O  O174  1  0.13071230  0.61431299  0.61039444  1
  O  O175  1  0.62471710  0.11815155  0.11777380  1
  O  O176  1  0.61728319  0.12867716  0.61734679  1
  O  O177  1  0.62513057  0.62012593  0.12177049  1
  O  O178  1  0.61956623  0.60749998  0.63398042  1
  O  O179  1  0.37028334  0.38037334  0.38234648  1
  O  O180  1  0.38133496  0.38331502  0.88264495  1
  O  O181  1  0.36990014  0.89141973  0.36655136  1
  O  O182  1  0.38256130  0.86877204  0.88511514  1
  O  O183  1  0.87820660  0.39205822  0.37571748  1
  O  O184  1  0.88385064  0.37637284  0.88250985  1
  O  O185  1  0.88092481  0.87807924  0.38456392  1
  O  O186  1  0.88052961  0.88494237  0.86388398  1
  O  O187  1  0.25750295  0.01399032  0.37990149  1
  O  O188  1  0.24340303  0.00478942  0.86744204  1
  O  O189  1  0.26328040  0.50918535  0.37406561  1
  O  O190  1  0.25558725  0.50539574  0.86821009  1
  O  O191  1  0.74880561  0.01173563  0.36557458  1
  O  O192  1  0.75588945  0.00818588  0.86505973  1
  O  O193  1  0.75292284  0.50063375  0.36342149  1
  O  O194  1  0.75045849  0.50858532  0.86577181  1
  O  O195  1  0.24442308  0.50481973  0.12540439  1
  O  O196  1  0.24713762  0.49234307  0.63016921  1
  O  O197  1  0.24374060  0.98879784  0.12360534  1
  O  O198  1  0.24580511  0.99003893  0.63102248  1
  O  O199  1  0.75146450  0.49388736  0.13823466  1
  O  O200  1  0.74591099  0.50193382  0.63464100  1
  O  O201  1  0.74036344  1.00306361  0.13764722  1
  O  O202  1  0.75429431  0.99778936  0.63837852  1
  O  O203  1  0.01716772  0.36485875  0.20948897  1
  O  O204  1  0.00547172  0.36858263  0.75960527  1
  O  O205  1  0.00642401  0.87217873  0.25935619  1
  O  O206  1  0.00646361  0.88143536  0.76204247  1
  O  O207  1  0.51179373  0.37050652  0.24796035  1
  O  O208  1  0.50555420  0.36802501  0.75718935  1
  O  O209  1  0.50812310  0.86286802  0.24621390  1
  O  O210  1  0.50315305  0.86788099  0.75681814  1
  O  O211  1  0.49340205  0.13412988  0.24839014  1
  O  O212  1  0.49444583  0.12532167  0.74686503  1
  O  O213  1  0.48767681  0.63643293  0.25503624  1
  O  O214  1  0.50014381  0.63551812  0.76182165  1
  O  O215  1  0.98634815  0.11981922  0.24546260  1
  O  O216  1  0.99125852  0.13570613  0.75685593  1
  O  O217  1  0.98735392  0.63359224  0.25185910  1
  O  O218  1  0.98571834  0.61650461  0.75719468  1
  O  O219  1  0.36631252  0.25815502  -0.00009358  1
  O  O220  1  0.37206806  0.25214151  0.50317744  1
  O  O221  1  0.37202291  0.75796079  0.00634201  1
  O  O222  1  0.43233525  0.76279489  0.50794309  1
  O  O223  1  0.86730434  0.25494772  0.01077853  1
  O  O224  1  0.87375988  0.24652414  0.51824365  1
  O  O225  1  0.86315200  0.75003658  -0.00728505  1
  O  O226  1  0.86769292  0.75488578  0.50902457  1
  O  O227  1  0.12870493  0.24173714  0.49472132  1
  O  O228  1  0.13752032  0.24927280  0.99910552  1
  O  O229  1  0.12520620  0.73413685  0.49969452  1
  O  O230  1  0.12766678  0.73912748  0.99220145  1
  O  O231  1  0.61891266  0.24033951  0.49190127  1
  O  O232  1  0.63006268  0.23949040  1.00647183  1
  O  O233  1  0.63301170  0.75677789  0.49134459  1
  O  O234  1  0.63094819  0.75150136  0.98771506  1
  O  O235  1  0.49724667  0.24993528  0.13894716  1
  O  O236  1  0.49474353  0.23778329  0.63195787  1
  O  O237  1  0.49020087  0.75558943  0.12871033  1
  O  O238  1  0.50765367  0.74118574  0.64999079  1
  O  O239  1  0.98747797  0.23332099  0.11752444  1
  O  O240  1  0.99607976  0.25432586  0.63661904  1
  O  O241  1  1.00969944  0.74781724  0.11025042  1
  O  O242  1  0.98657998  0.75375634  0.62232181  1
  O  O243  1  0.01423813  0.24243635  0.37526504  1
  O  O244  1  0.00016170  0.26015423  0.87111336  1
  O  O245  1  0.00197027  0.76353497  0.37913688  1
  O  O246  1  0.00891177  0.75537395  0.87281744  1
  O  O247  1  0.50952534  0.24562603  0.36365817  1
  O  O248  1  0.49348197  0.26181144  0.87047357  1
  O  O249  1  0.50776841  0.75261023  0.36496569  1
  O  O250  1  0.50628049  0.75745548  0.86858470  1
  O  O251  1  0.23934261  0.12802028  0.49521233  1
  O  O252  1  0.25021083  0.13150377  0.99320205  1
  O  O253  1  0.24845113  0.62021020  0.48909915  1
  O  O254  1  0.25766649  0.63335449  0.98793236  1
  O  O255  1  0.74449243  0.12171223  0.49106474  1
  O  O256  1  0.74400139  0.13005704  0.99315740  1
  O  O257  1  0.75226395  0.63459681  0.49926423  1
  O  O258  1  0.74966801  0.63501832  0.98993871  1
  O  O259  1  0.25983636  0.36802655  -0.00635185  1
  O  O260  1  0.26173238  0.36819005  0.50479659  1
  O  O261  1  0.25623284  0.86741580  0.00636600  1
  O  O262  1  0.25208262  0.87937135  0.50920391  1
  O  O263  1  0.75266269  0.37253156  0.00339941  1
  O  O264  1  0.77361271  0.36474309  0.48934261  1
  O  O265  1  0.74646888  0.86163936  -0.00316076  1
  O  O266  1  0.75998901  0.87315324  0.50085434  1
  O  O267  1  0.12703492  0.50572169  0.23529573  1
  O  O268  1  0.13406539  0.49383766  0.73871198  1
  O  O269  1  0.11865674  0.98934166  0.24084227  1
  O  O270  1  0.13373102  1.00087626  0.74093188  1
  O  O271  1  0.63103644  0.49316907  0.25341064  1
  O  O272  1  0.63284851  0.49197808  0.74480336  1
  O  O273  1  0.62936113  0.99540919  0.24674548  1
  O  O274  1  0.63273618  0.98954580  0.75346544  1
  O  O275  1  0.38338355  0.01347412  0.25723798  1
  O  O276  1  0.36763108  0.00964547  0.74714129  1
  O  O277  1  0.37824017  0.50677297  0.25558819  1
  O  O278  1  0.36681014  0.49007004  0.75807668  1
  O  O279  1  0.86640498  0.01025249  0.25668604  1
  O  O280  1  0.86921733  0.00926880  0.75432809  1
  O  O281  1  0.87254199  0.50700162  0.25860570  1
  O  O282  1  0.86813558  0.50393794  0.74852671  1
  O  O283  1  0.12730221  0.36011915  0.37858273  1
  O  O284  1  0.11815578  0.37286059  0.86888428  1
  O  O285  1  0.12001515  0.87508327  0.36972846  1
  O  O286  1  0.11959266  0.86175881  0.87068355  1
  O  O287  1  0.63057715  0.36255772  0.36916658  1
  O  O288  1  0.61466572  0.37890334  0.86330121  1
  O  O289  1  0.63054531  0.86686575  0.36141325  1
  O  O290  1  0.61653964  0.86927247  0.86838237  1
  O  O291  1  0.37769881  0.12637476  0.13382504  1
  O  O292  1  0.37978531  0.12859069  0.63312189  1
  O  O293  1  0.37203952  0.63607426  0.13320983  1
  O  O294  1  0.37911475  0.63103187  0.62096131  1
  O  O295  1  0.87848448  0.13031432  0.13320802  1
  O  O296  1  0.87025402  0.13710131  0.63824354  1
  O  O297  1  0.87394965  0.62219857  0.14028620  1
  O  O298  1  0.87432693  0.63671081  0.62884815  1
  O  O299  1  0.25325934  0.25287791  0.11559208  1
  O  O300  1  0.25541810  0.25290850  0.61959978  1
  O  O301  1  0.26100537  0.75993453  0.12119140  1
  O  O302  1  0.25245891  0.76642422  0.62492805  1
  O  O303  1  0.75508123  0.25650443  0.11999852  1
  O  O304  1  0.75897824  0.25295193  0.63163705  1
  O  O305  1  0.74690625  0.75181901  0.10642809  1
  O  O306  1  0.75332442  0.75267301  0.61793262  1
  O  O307  1  0.24443755  0.23772993  0.38303732  1
  O  O308  1  0.24932261  0.24020757  0.88098882  1
  O  O309  1  0.25338463  0.73457796  0.37542908  1
  O  O310  1  0.24236165  0.74231403  0.87880939  1
  O  O311  1  0.74214578  0.24008250  0.36819159  1
  O  O312  1  0.75621428  0.23724633  0.88001775  1
  O  O313  1  0.74426901  0.74866408  0.38613915  1
  O  O314  1  0.74403333  0.74522216  0.87971684  1
  O  O315  1  0.00157962  0.11945034  0.00774184  1
  O  O316  1  0.01201579  0.11595429  0.49789788  1
  O  O317  1  0.00201753  0.62474384  -0.00266182  1
  O  O318  1  0.01397407  0.62373906  0.49342648  1
  O  O319  1  0.50772730  0.12377343  0.00029183  1
  O  O320  1  0.50725765  0.12043856  0.50872959  1
  O  O321  1  0.49963959  0.61050606  -0.01120081  1
  O  O322  1  0.50787393  0.60201135  0.50168495  1
  O  O323  1  0.48929765  0.37583734  0.50499470  1
  O  O324  1  0.49511165  0.38085601  0.99254146  1
  O  O325  1  0.51852924  0.89785777  0.50139464  1
  O  O326  1  0.49304912  0.87607592  0.99198923  1
  O  O327  1  0.97821509  0.36060867  0.49554117  1
  O  O328  1  0.99487950  0.38321454  0.99786043  1
  O  O329  1  0.99048475  0.87967622  0.49699126  1
  O  O330  1  0.99904458  0.88073281  0.97834344  1
  O  O331  1  0.49000164  0.49897502  0.38038492  1
  O  O332  1  0.49332568  0.49072520  0.87895759  1
  O  O333  1  0.49014615  1.00824212  0.38398266  1
  O  O334  1  0.50179814  0.98725705  0.87655482  1
  O  O335  1  0.99508776  0.50073214  0.36809431  1
  O  O336  1  1.00119627  0.48834214  0.88402427  1
  O  O337  1  0.99997588  0.98959118  0.38867666  1
  O  O338  1  0.99014943  0.99612877  0.87450502  1
  O  O339  1  0.00611108  0.01033635  0.12368731  1
  O  O340  1  0.00884163  -0.00683572  0.61463992  1
  O  O341  1  0.00990994  0.50558786  0.11013573  1
  O  O342  1  0.01499327  0.49358434  0.62796181  1
  O  O343  1  0.51377065  0.00092585  0.12319161  1
  O  O344  1  0.49427192  0.01275750  0.61972647  1
  O  O345  1  0.49799109  0.49668823  0.10718066  1
  O  O346  1  0.50855488  0.49687181  0.61712389  1
  O  O347  1  0.24019105  0.38074836  0.24822013  1
  O  O348  1  0.24564615  0.38080632  0.74532193  1
  O  O349  1  0.24231494  0.87210937  0.24149989  1
  O  O350  1  0.24793007  0.88535112  0.74679174  1
  O  O351  1  0.74029314  0.38144128  0.24677388  1
  O  O352  1  0.74237371  0.38398597  0.75847371  1
  O  O353  1  0.74492670  0.88508873  0.25072034  1
  O  O354  1  0.73899612  0.88243029  0.74927635  1
  O  O355  1  0.25985408  0.12871002  0.25823802  1
  O  O356  1  0.25690215  0.11545410  0.75595989  1
  O  O357  1  0.26434447  0.62486116  0.26159971  1
  O  O358  1  0.24837338  0.61136912  0.75352868  1
  O  O359  1  0.75886286  0.12079403  0.25623620  1
  O  O360  1  0.75406942  0.11931128  0.75713428  1
  O  O361  1  0.76236879  0.61856067  0.25318696  1
  O  O362  1  0.75569334  0.61661553  0.75528045  1
  O  O363  1  0.36724507  0.11929517  0.36893264  1
  O  O364  1  0.36334900  0.12514068  0.86736633  1
  O  O365  1  0.37007153  0.61688951  0.37211381  1
  O  O366  1  0.36566279  0.61265704  0.87454347  1
  O  O367  1  0.86928839  0.12788845  0.37084020  1
  O  O368  1  0.86828318  0.12042229  0.86495091  1
  O  O369  1  0.87419515  0.61147747  0.37034854  1
  O  O370  1  0.86291349  0.62210427  0.86325576  1
  O  O371  1  0.13838968  0.39696588  0.10668510  1
  O  O372  1  0.13165356  0.38252373  0.62482165  1
  O  O373  1  0.13490759  0.88281415  0.13441834  1
  O  O374  1  0.13564185  0.88448822  0.62341774  1
  O  O375  1  0.63047882  0.38122139  0.13448430  1
  O  O376  1  0.62118418  0.38239491  0.64043301  1
  O  O377  1  0.63181615  0.88296598  0.13493423  1
  O  O378  1  0.62095708  0.86717189  0.63756228  1
  O  O379  1  0.12846639  0.24704896  0.26665576  1
  O  O380  1  0.11868278  0.25511651  0.74960851  1
  O  O381  1  0.12150354  0.76197785  0.25414789  1
  O  O382  1  0.13096220  0.74736112  0.75655366  1
  O  O383  1  0.61870549  0.25694099  0.25621348  1
  O  O384  1  0.61593501  0.25633978  0.74869430  1
  O  O385  1  0.62123291  0.75667897  0.25291992  1
  O  O386  1  0.62218699  0.75612913  0.76198056  1
  O  O387  1  0.38191049  0.24235948  0.25251681  1
  O  O388  1  0.38077689  0.23819286  0.74682363  1
  O  O389  1  0.38359184  0.74599077  0.24281392  1
  O  O390  1  0.38705715  0.75106948  0.75368677  1
  O  O391  1  0.86785169  0.24539843  0.23926834  1
  O  O392  1  0.88104973  0.24642624  0.74102902  1
  O  O393  1  0.87609139  0.73803070  0.25347073  1
  O  O394  1  0.86981725  0.74123405  0.73547523  1
  O  O395  1  0.38420985  0.48807324  0.49226487  1
  O  O396  1  0.38483129  0.49397500  0.99070375  1
  O  O397  1  0.38604852  1.00750955  0.48957119  1
  O  O398  1  0.37641852  0.98729193  1.00578080  1
  O  O399  1  0.87638610  0.49432016  0.48677261  1
  O  O400  1  0.88245322  0.49703497  0.99837876  1
  O  O401  1  0.88189286  0.99365702  0.50298625  1
  O  O402  1  0.87041366  1.00586355  0.98365527  1
  O  O403  1  0.12383390  0.00035913  0.01516447  1
  O  O404  1  0.11906609  0.00597503  0.50576825  1
  O  O405  1  0.11701471  0.51006355  0.00238248  1
  O  O406  1  0.13039267  0.50705437  0.50878001  1
  O  O407  1  0.62734147  0.00963782  0.00781336  1
  O  O408  1  0.62002385  0.01775031  0.49184714  1
  O  O409  1  0.60950314  0.49966766  -0.00346998  1
  O  O410  1  0.62059974  0.48325284  0.50957301  1
  O  O411  1  0.37283327  0.37493452  0.11073691  1
  O  O412  1  0.37150863  0.36573606  0.61807385  1
  O  O413  1  0.36963908  0.87027928  0.12071582  1
  O  O414  1  0.36227107  0.87317986  0.62502125  1
  O  O415  1  0.86762787  0.36889026  0.12089657  1
  O  O416  1  0.87418393  0.36427317  0.61779954  1
  O  O417  1  0.87412194  0.88238942  0.12547467  1
  O  O418  1  0.87155864  0.86407337  0.62014078  1
  O  O419  1  0.13076051  0.12853472  0.38120194  1
  O  O420  1  0.13707661  0.12637693  0.87658729  1
  O  O421  1  0.13839906  0.62397273  0.38552055  1
  O  O422  1  0.13721120  0.62854544  0.86902627  1
  O  O423  1  0.63283313  0.13616877  0.37980372  1
  O  O424  1  0.63509558  0.12091652  0.88450390  1
  O  O425  1  0.62893353  0.64002634  0.36744258  1
  O  O426  1  0.63575790  0.63279700  0.87639466  1
