# generated using pymatgen
data_V85Zn86O256
_symmetry_space_group_name_H-M   'P 1'
_cell_length_a   16.93476665
_cell_length_b   16.94898861
_cell_length_c   16.96578269
_cell_angle_alpha   89.99118365
_cell_angle_beta   89.94814736
_cell_angle_gamma   89.95574361
_symmetry_Int_Tables_number   1
_chemical_formula_structural   V85Zn86O256
_chemical_formula_sum   'V85 Zn86 O256'
_cell_volume   4869.63704089
_cell_formula_units_Z   1
loop_
 _symmetry_equiv_pos_site_id
 _symmetry_equiv_pos_as_xyz
  1  'x, y, z'
loop_
 _atom_site_type_symbol
 _atom_site_label
 _atom_site_symmetry_multiplicity
 _atom_site_fract_x
 _atom_site_fract_y
 _atom_site_fract_z
 _atom_site_occupancy
  V  V0  1  0.49787104  0.00525838  0.49039508  1
  V  V1  1  0.50097857  0.12287479  0.12408729  1
  V  V2  1  -0.00060705  0.49569922  0.49918320  1
  V  V3  1  0.62416460  0.62499509  0.49293240  1
  V  V4  1  0.24962717  0.73988554  0.00647609  1
  V  V5  1  0.37743056  0.37511746  0.50337053  1
  V  V6  1  0.88183736  0.87142004  0.00337238  1
  V  V7  1  0.87713358  0.24832347  0.62604678  1
  V  V8  1  0.37706380  0.63538179  0.75081375  1
  V  V9  1  0.37737162  0.24710923  0.62606949  1
  V  V10  1  0.74248555  0.49915661  0.74955934  1
  V  V11  1  0.38200142  0.49839107  0.87576462  1
  V  V12  1  0.75171362  0.62622677  0.36666577  1
  V  V13  1  0.00365680  0.51578318  -0.00332324  1
  V  V14  1  0.74693351  0.24944554  0.49794792  1
  V  V15  1  0.87110969  0.75011229  0.62480318  1
  V  V16  1  0.37083423  0.25590159  0.12627571  1
  V  V17  1  0.23862631  0.87456697  0.62559808  1
  V  V18  1  0.24905967  0.26075481  0.00369077  1
  V  V19  1  -0.00147967  0.73231982  0.24585505  1
  V  V20  1  0.74427876  0.49480683  0.24864900  1
  V  V21  1  0.37210180  0.12328079  0.74075111  1
  V  V22  1  0.12180087  0.86807513  0.24386248  1
  V  V23  1  0.87031787  0.11733788  0.24410454  1
  V  V24  1  0.00140548  0.12470529  0.12232606  1
  V  V25  1  0.87438056  0.25103355  0.12315110  1
  V  V26  1  0.75205816  0.12863721  0.87294734  1
  V  V27  1  0.87508504  0.49493485  0.87490154  1
  V  V28  1  0.37802566  0.75777614  0.13105367  1
  V  V29  1  0.74818485  0.11587334  0.37186107  1
  V  V30  1  0.24964445  0.11700889  0.37640843  1
  V  V31  1  0.12841384  0.24707081  0.36824378  1
  V  V32  1  0.12490827  0.12578618  0.00000510  1
  V  V33  1  0.24892908  0.24586424  0.49920001  1
  V  V34  1  0.00462263  0.25576264  0.24448124  1
  V  V35  1  0.11829353  0.86816144  0.76179405  1
  V  V36  1  0.00532324  0.37471879  0.37006315  1
  V  V37  1  0.25000954  0.48700607  0.23730015  1
  V  V38  1  0.87693772  0.50217661  0.36609306  1
  V  V39  1  -0.00017335  0.24542404  0.75070190  1
  V  V40  1  0.63056545  0.88580610  0.25977223  1
  V  V41  1  0.12319504  0.49784142  0.62568345  1
  V  V42  1  0.62567033  0.37142300  0.75264288  1
  V  V43  1  0.87222930  0.62389911  0.75263219  1
  V  V44  1  0.23951789  0.00050249  0.74620717  1
  V  V45  1  0.88264438  0.37550544  -0.00031025  1
  V  V46  1  0.50830553  0.87330635  0.87963897  1
  V  V47  1  0.62397077  0.12139595  0.49800110  1
  V  V48  1  0.50669203  0.25183383  0.25079242  1
  V  V49  1  0.74806798  0.75102618  0.49375111  1
  V  V50  1  0.55630554  0.06880214  0.66966649  1
  V  V51  1  0.88240127  0.87421608  0.49675889  1
  V  V52  1  0.87629584  0.73530793  0.12810889  1
  V  V53  1  0.12594540  0.62414099  0.50118681  1
  V  V54  1  0.88536816  -0.00128780  0.37365521  1
  V  V55  1  0.74587651  0.38055713  0.62329120  1
  V  V56  1  0.51117020  0.74587844  0.25746875  1
  V  V57  1  0.24848191  0.37528366  0.62597950  1
  V  V58  1  0.50642287  0.49862074  0.50422938  1
  V  V59  1  0.24947367  0.74671166  0.50126912  1
  V  V60  1  0.11430972  0.49804294  0.12857607  1
  V  V61  1  0.37442351  0.12069156  0.25414887  1
  V  V62  1  0.25033485  0.50195603  0.75287477  1
  V  V63  1  -0.00223469  0.62871955  0.62495680  1
  V  V64  1  0.50821845  0.37427531  0.37311699  1
  V  V65  1  0.50635157  0.61888318  0.63103715  1
  V  V66  1  0.12924298  -0.00400768  0.12368756  1
  V  V67  1  0.87844599  -0.01047204  0.87292751  1
  V  V68  1  0.25068804  0.12707060  0.87741947  1
  V  V69  1  0.37549161  0.49858392  0.37685770  1
  V  V70  1  0.56179408  0.81202932  0.69787580  1
  V  V71  1  0.36736907  0.87905755  0.00733442  1
  V  V72  1  0.61337057  0.50543361  0.12007905  1
  V  V73  1  0.50471948  0.24975639  0.74999086  1
  V  V74  1  0.37767253  0.62594157  0.24838425  1
  V  V75  1  0.11887628  0.25778247  0.87868509  1
  V  V76  1  0.24927651  0.62081449  0.37358426  1
  V  V77  1  0.36680642  0.88816637  0.49469568  1
  V  V78  1  0.74350906  0.37470928  0.12559359  1
  V  V79  1  0.37357822  0.00065060  0.87823030  1
  V  V80  1  0.50380998  0.37198111  0.88224197  1
  V  V81  1  0.62853819  0.13013138  -0.00035675  1
  V  V82  1  0.11512312  0.38005148  0.75365630  1
  V  V83  1  0.25389474  -0.00945497  0.24768581  1
  V  V84  1  0.73910070  0.74878380  0.00326260  1
  Zn  Zn85  1  0.74806158  0.25520747  -0.00565991  1
  Zn  Zn86  1  0.87772703  0.12164878  0.75019859  1
  Zn  Zn87  1  0.87340949  0.37523336  0.49701041  1
  Zn  Zn88  1  0.63068461  0.25364609  0.36927238  1
  Zn  Zn89  1  0.12198406  0.74706842  0.37192351  1
  Zn  Zn90  1  0.73944753  0.88370619  0.62631498  1
  Zn  Zn91  1  0.11104569  0.74028796  0.89392582  1
  Zn  Zn92  1  0.74442742  -0.00561813  0.74339592  1
  Zn  Zn93  1  0.50299399  -0.00150301  0.00508319  1
  Zn  Zn94  1  0.03407703  0.09788035  0.58732275  1
  Zn  Zn95  1  0.00452209  -0.00665184  -0.00502834  1
  Zn  Zn96  1  -0.00832272  0.75511781  0.76087791  1
  Zn  Zn97  1  0.59127499  0.61813022  0.00006716  1
  Zn  Zn98  1  0.62120822  0.74752024  0.87129227  1
  Zn  Zn99  1  0.37679416  0.75278046  0.62547431  1
  Zn  Zn100  1  0.75220869  0.88113833  0.13143152  1
  Zn  Zn101  1  0.24905897  0.62563398  0.88151470  1
  Zn  Zn102  1  0.37737698  0.37946627  0.00489743  1
  Zn  Zn103  1  0.74139425  0.62280353  0.88244938  1
  Zn  Zn104  1  0.63781458  0.00268986  0.12868264  1
  Zn  Zn105  1  0.00158617  0.87156031  0.37130203  1
  Zn  Zn106  1  0.49364795  0.87681935  0.37300347  1
  Zn  Zn107  1  0.18884817  0.18673599  0.18750913  1
  Zn  Zn108  1  0.18598870  0.19267304  0.69096485  1
  Zn  Zn109  1  0.19087928  0.68073484  0.17984504  1
  Zn  Zn110  1  0.18638734  0.68738268  0.69021302  1
  Zn  Zn111  1  0.68851583  0.18730087  0.18510397  1
  Zn  Zn112  1  0.69559512  0.19103844  0.69124056  1
  Zn  Zn113  1  0.68708753  0.68593720  0.18328104  1
  Zn  Zn114  1  0.69158395  0.68064518  0.67894154  1
  Zn  Zn115  1  0.32043227  0.30996999  0.31524949  1
  Zn  Zn116  1  0.31173372  0.31379855  0.81463414  1
  Zn  Zn117  1  0.30989092  0.81062800  0.31505374  1
  Zn  Zn118  1  0.31004380  0.81462615  0.81933818  1
  Zn  Zn119  1  0.81588992  0.31169266  0.30971428  1
  Zn  Zn120  1  0.81401748  0.31377209  0.81388455  1
  Zn  Zn121  1  0.81482175  0.80966972  0.31018794  1
  Zn  Zn122  1  0.79805397  0.81537379  0.81156568  1
  Zn  Zn123  1  0.18644232  0.43340511  0.43580160  1
  Zn  Zn124  1  0.18588511  0.44282901  0.93946737  1
  Zn  Zn125  1  0.18232977  0.93511848  0.43029619  1
  Zn  Zn126  1  0.18934504  0.93401335  0.93803475  1
  Zn  Zn127  1  0.68688292  0.43983863  0.43741525  1
  Zn  Zn128  1  0.68690833  0.43750802  0.93924795  1
  Zn  Zn129  1  0.68926578  0.93899972  0.43919278  1
  Zn  Zn130  1  0.69292902  0.94138655  0.94378668  1
  Zn  Zn131  1  0.31131281  0.06755941  0.06528810  1
  Zn  Zn132  1  0.20280402  0.05976481  0.56193351  1
  Zn  Zn133  1  0.37968500  0.58614406  0.04327303  1
  Zn  Zn134  1  0.31831382  0.56365414  0.56695690  1
  Zn  Zn135  1  0.81107769  0.05767657  0.05898498  1
  Zn  Zn136  1  0.85435475  0.03903214  0.58391180  1
  Zn  Zn137  1  0.80881732  0.56174658  0.06189144  1
  Zn  Zn138  1  0.81274022  0.56032200  0.55757295  1
  Zn  Zn139  1  0.43481932  0.43578326  0.19169621  1
  Zn  Zn140  1  0.43850628  0.43782280  0.69079494  1
  Zn  Zn141  1  0.44275751  0.93632961  0.19084432  1
  Zn  Zn142  1  0.42166268  0.93775850  0.68356293  1
  Zn  Zn143  1  0.93445902  0.44021538  0.18549711  1
  Zn  Zn144  1  0.93484020  0.43478223  0.68628730  1
  Zn  Zn145  1  0.93978346  0.93402892  0.18302265  1
  Zn  Zn146  1  0.93288739  0.93337898  0.69243699  1
  Zn  Zn147  1  0.06436497  0.06451766  0.30874354  1
  Zn  Zn148  1  0.06138511  0.06382847  0.81324361  1
  Zn  Zn149  1  0.06957147  0.55775189  0.30897194  1
  Zn  Zn150  1  0.06066855  0.57006795  0.81900692  1
  Zn  Zn151  1  0.56011687  0.06354486  0.31488971  1
  Zn  Zn152  1  0.56238884  0.06336498  0.83332432  1
  Zn  Zn153  1  0.56487666  0.56015665  0.30996617  1
  Zn  Zn154  1  0.56284179  0.56353689  0.81670333  1
  Zn  Zn155  1  0.43645372  0.18597212  0.43662244  1
  Zn  Zn156  1  0.43802617  0.18991877  0.93738927  1
  Zn  Zn157  1  0.43444295  0.68899953  0.43669493  1
  Zn  Zn158  1  0.43631129  0.69758031  0.93083289  1
  Zn  Zn159  1  0.93129910  0.18706743  0.43273739  1
  Zn  Zn160  1  0.93685425  0.18567255  0.93662578  1
  Zn  Zn161  1  0.93799616  0.68634961  0.43455280  1
  Zn  Zn162  1  0.92926873  0.68844701  0.93622733  1
  Zn  Zn163  1  0.06489950  0.32240659  0.06509802  1
  Zn  Zn164  1  0.04492335  0.27789527  0.54125832  1
  Zn  Zn165  1  0.06088814  0.80811855  0.06655668  1
  Zn  Zn166  1  0.05452051  0.93116500  0.56293405  1
  Zn  Zn167  1  0.56474662  0.31042597  0.06589742  1
  Zn  Zn168  1  0.56510751  0.31085313  0.56777388  1
  Zn  Zn169  1  0.55888701  0.81705866  0.07243624  1
  Zn  Zn170  1  0.55863112  0.80902450  0.53422010  1
  O  O171  1  0.12027458  0.11928626  0.11916200  1
  O  O172  1  0.13382618  0.11435439  0.63470417  1
  O  O173  1  0.14144352  0.59655612  0.12171280  1
  O  O174  1  0.11580051  0.61880217  0.62236832  1
  O  O175  1  0.61711146  0.12345025  0.12104833  1
  O  O176  1  0.62238373  0.13009319  0.61827568  1
  O  O177  1  0.62525023  0.60946086  0.12197970  1
  O  O178  1  0.61317727  0.62717689  0.61199890  1
  O  O179  1  0.38615917  0.37848519  0.38581684  1
  O  O180  1  0.38574055  0.38090549  0.87203530  1
  O  O181  1  0.36927429  0.87412137  0.39090886  1
  O  O182  1  0.38117831  0.88492031  0.88232784  1
  O  O183  1  0.88733867  0.38038868  0.37407704  1
  O  O184  1  0.87060064  0.38725978  0.88285363  1
  O  O185  1  0.87548697  0.88223055  0.37778659  1
  O  O186  1  0.86794036  0.88497093  0.88189744  1
  O  O187  1  0.24437268  0.01136756  0.36418730  1
  O  O188  1  0.25871299  0.00444763  0.87019083  1
  O  O189  1  0.25561566  0.50777804  0.37571029  1
  O  O190  1  0.25546669  0.49976985  0.86286444  1
  O  O191  1  0.75824196  0.01260868  0.37561055  1
  O  O192  1  0.76044318  0.00910021  0.87385948  1
  O  O193  1  0.75683097  0.50183707  0.36767593  1
  O  O194  1  0.75580897  0.50151508  0.86720246  1
  O  O195  1  0.25903951  0.49242507  0.14047023  1
  O  O196  1  0.24685401  0.49633843  0.63431428  1
  O  O197  1  0.23738340  1.00811751  0.13356264  1
  O  O198  1  0.25780414  0.98943016  0.63958648  1
  O  O199  1  0.74597218  0.49358254  0.13232797  1
  O  O200  1  0.75719650  0.48793624  0.63161599  1
  O  O201  1  0.75218748  0.99625216  0.12852313  1
  O  O202  1  0.76065670  0.99697957  0.62820450  1
  O  O203  1  -0.00577207  0.36373899  0.25298140  1
  O  O204  1  0.01121073  0.37297002  0.75126477  1
  O  O205  1  0.00869593  0.86455118  0.24889322  1
  O  O206  1  0.01545090  0.87465554  0.74628837  1
  O  O207  1  0.49205620  0.36422761  0.26219154  1
  O  O208  1  0.50799433  0.36743303  0.75478461  1
  O  O209  1  0.50856133  0.86545171  0.25540001  1
  O  O210  1  0.50007330  0.87606211  0.75183276  1
  O  O211  1  0.49220936  0.13037178  0.24570975  1
  O  O212  1  0.49852007  0.12564588  0.74433655  1
  O  O213  1  0.49387999  0.63658600  0.25832488  1
  O  O214  1  0.49162184  0.61697418  0.74086763  1
  O  O215  1  0.99454980  0.13512668  0.24140379  1
  O  O216  1  0.99969913  0.13991586  0.75152783  1
  O  O217  1  1.00678155  0.63284048  0.25011482  1
  O  O218  1  0.98291931  0.61701170  0.74213883  1
  O  O219  1  0.36582578  0.24894958  0.00823723  1
  O  O220  1  0.36779581  0.25382492  0.50451132  1
  O  O221  1  0.37061476  0.76176806  0.01205614  1
  O  O222  1  0.36393655  0.75650240  0.50192815  1
  O  O223  1  0.87579715  0.25865923  0.00585423  1
  O  O224  1  0.85938836  0.25378680  0.50588545  1
  O  O225  1  0.86633286  0.75393322  0.01083563  1
  O  O226  1  0.86886582  0.75174966  0.50574295  1
  O  O227  1  0.14494387  0.26060034  0.48651045  1
  O  O228  1  0.12916263  0.24950834  0.99491120  1
  O  O229  1  0.14161178  0.73967899  0.49493112  1
  O  O230  1  0.14427584  0.75314673  1.00898190  1
  O  O231  1  0.63324148  0.24456745  0.49926387  1
  O  O232  1  0.62950132  0.23605975  1.00638439  1
  O  O233  1  0.63472171  0.73839844  0.49401981  1
  O  O234  1  0.63406901  0.75085768  1.00961386  1
  O  O235  1  0.49420676  0.24110311  0.13209904  1
  O  O236  1  0.49125797  0.25448494  0.63832560  1
  O  O237  1  0.48776632  0.75417774  0.14315812  1
  O  O238  1  0.50365786  0.75088195  0.63229208  1
  O  O239  1  0.99743172  0.24773100  0.12862671  1
  O  O240  1  0.98897446  0.26572678  0.64061838  1
  O  O241  1  0.98559564  0.74751274  0.13010303  1
  O  O242  1  0.98924504  0.73298447  0.63446855  1
  O  O243  1  0.00800450  0.25614086  0.36354496  1
  O  O244  1  0.01163658  0.24911538  0.87027992  1
  O  O245  1  0.00127344  0.74807256  0.36169196  1
  O  O246  1  -0.00069699  0.74410092  0.87190567  1
  O  O247  1  0.50067057  0.25667532  0.36806880  1
  O  O248  1  0.49430694  0.25550444  0.85922735  1
  O  O249  1  0.49471419  0.75415489  0.36191907  1
  O  O250  1  0.50192414  0.76557368  0.86922439  1
  O  O251  1  0.25557794  0.13345454  0.48771045  1
  O  O252  1  0.24396395  0.13527437  0.99488767  1
  O  O253  1  0.25013576  0.62842913  0.49587907  1
  O  O254  1  0.26931704  0.63954058  1.00356233  1
  O  O255  1  0.73685447  0.13387217  0.48971247  1
  O  O256  1  0.74668810  0.12798758  0.99021422  1
  O  O257  1  0.74166207  0.62693411  0.49214824  1
  O  O258  1  0.75188298  0.64193804  1.00154907  1
  O  O259  1  0.25314471  0.36264799  -0.00802696  1
  O  O260  1  0.25870300  0.37026663  0.50495133  1
  O  O261  1  0.26344206  0.87001719  -0.00032346  1
  O  O262  1  0.25316999  0.86882321  0.50482572  1
  O  O263  1  0.76024357  0.37502071  0.00682376  1
  O  O264  1  0.74701823  0.36985403  0.50737506  1
  O  O265  1  0.75850341  0.86267315  0.00291048  1
  O  O266  1  0.75690581  0.86484307  0.50105586  1
  O  O267  1  0.13666448  0.49547358  0.23966176  1
  O  O268  1  0.13027766  0.49592353  0.74685575  1
  O  O269  1  0.13101088  0.99272251  0.24211338  1
  O  O270  1  0.13448623  0.98857841  0.76259388  1
  O  O271  1  0.63681097  0.50051189  0.24039540  1
  O  O272  1  0.63793934  0.49507049  0.75206173  1
  O  O273  1  0.61993922  0.98899678  0.25136502  1
  O  O274  1  0.61111526  1.01607809  0.73580871  1
  O  O275  1  0.36633145  0.00837837  0.24321480  1
  O  O276  1  0.36629601  0.00643617  0.75871119  1
  O  O277  1  0.37018455  0.50749123  0.25781447  1
  O  O278  1  0.36703677  0.50523055  0.75576476  1
  O  O279  1  0.88219368  0.01249883  0.25248921  1
  O  O280  1  0.87434080  0.00142010  0.76382740  1
  O  O281  1  0.86543594  0.49845386  0.25944500  1
  O  O282  1  0.86623995  0.50164166  0.75706361  1
  O  O283  1  0.11381448  0.36624232  0.37350968  1
  O  O284  1  0.13029218  0.36827275  0.86690807  1
  O  O285  1  0.12411976  0.86845017  0.35780536  1
  O  O286  1  0.13047312  0.86697232  0.86426966  1
  O  O287  1  0.61250779  0.37324421  0.37923850  1
  O  O288  1  0.61943377  0.37860589  0.86298368  1
  O  O289  1  0.61967979  0.87979820  0.36515492  1
  O  O290  1  0.61109979  0.87981542  0.88336571  1
  O  O291  1  0.38092296  0.13431233  0.13379235  1
  O  O292  1  0.37109783  0.13053311  0.64001739  1
  O  O293  1  0.37229945  0.63557996  0.14476985  1
  O  O294  1  0.38984231  0.63149863  0.62940297  1
  O  O295  1  0.88090332  0.12993246  0.12862019  1
  O  O296  1  0.87066232  0.14415265  0.63066778  1
  O  O297  1  0.86926295  0.63686990  0.12628977  1
  O  O298  1  0.87720297  0.63013617  0.62810417  1
  O  O299  1  0.25840320  0.24475795  0.11642694  1
  O  O300  1  0.25574942  0.25513147  0.61715472  1
  O  O301  1  0.26404935  0.74971212  0.11884482  1
  O  O302  1  0.24926291  0.75628647  0.61709644  1
  O  O303  1  0.75706818  0.25849194  0.12376404  1
  O  O304  1  0.75424007  0.26076098  0.61894883  1
  O  O305  1  0.75851051  0.75333862  0.11996734  1
  O  O306  1  0.75664158  0.74748485  0.60995700  1
  O  O307  1  0.24609899  0.24303154  0.37756888  1
  O  O308  1  0.24044250  0.24544097  0.88035924  1
  O  O309  1  0.24927930  0.73452618  0.37998349  1
  O  O310  1  0.25609498  0.74968159  0.89688303  1
  O  O311  1  0.75097678  0.24489342  0.38225047  1
  O  O312  1  0.75872979  0.23403962  0.87577741  1
  O  O313  1  0.75959571  0.73893720  0.38485161  1
  O  O314  1  0.74292790  0.74860447  0.89011394  1
  O  O315  1  0.00714689  0.12381921  0.00729211  1
  O  O316  1  0.00787218  0.17139430  0.50900057  1
  O  O317  1  -0.00832564  0.61319133  0.00287360  1
  O  O318  1  0.00481637  0.61827258  0.50729486  1
  O  O319  1  0.50674127  0.12632237  0.00761294  1
  O  O320  1  0.51122242  0.12107412  0.49690108  1
  O  O321  1  0.47872674  0.62651770  0.00439335  1
  O  O322  1  0.50545960  0.61964801  0.50365203  1
  O  O323  1  0.49763624  0.38124158  0.49853754  1
  O  O324  1  0.49981383  0.36276574  0.98530218  1
  O  O325  1  0.48494508  0.88408504  0.49581184  1
  O  O326  1  0.48951381  0.87741672  0.99524323  1
  O  O327  1  0.99889022  0.37699159  0.48795338  1
  O  O328  1  0.98613612  0.38558552  1.00486024  1
  O  O329  1  0.98624935  0.86575057  0.49354885  1
  O  O330  1  0.98692382  0.87301193  1.00389260  1
  O  O331  1  0.49548242  0.49280255  0.38075197  1
  O  O332  1  0.49194895  0.48605947  0.86564666  1
  O  O333  1  0.49329378  1.00125822  0.38685446  1
  O  O334  1  0.48676358  0.99419791  0.87972733  1
  O  O335  1  0.99590362  0.49296792  0.37461092  1
  O  O336  1  0.99068913  0.50427096  0.88753214  1
  O  O337  1  0.98930482  0.99993804  0.36925074  1
  O  O338  1  0.98329820  1.00571212  0.87764788  1
  O  O339  1  0.01280408  0.00638730  0.12316169  1
  O  O340  1  -0.02639148  0.00405238  0.61159649  1
  O  O341  1  0.00664823  0.49975069  0.11739211  1
  O  O342  1  0.00125126  0.50646142  0.61941090  1
  O  O343  1  0.49905820  0.01521155  0.12588594  1
  O  O344  1  0.49509488  0.00453379  0.61712034  1
  O  O345  1  0.51488099  0.49157218  0.13217511  1
  O  O346  1  0.49515733  0.50791301  0.61649262  1
  O  O347  1  0.25998588  0.38970734  0.26097469  1
  O  O348  1  0.24308159  0.38230394  0.74546613  1
  O  O349  1  0.24555133  0.88614719  0.25380125  1
  O  O350  1  0.24312642  0.88009145  0.74556064  1
  O  O351  1  0.75491556  0.38301545  0.24055731  1
  O  O352  1  0.74419007  0.37898944  0.74516671  1
  O  O353  1  0.73239821  0.86625377  0.25372188  1
  O  O354  1  0.74054011  0.87865807  0.74216385  1
  O  O355  1  0.25693135  0.11679082  0.25514918  1
  O  O356  1  0.25616573  0.11877926  0.75859752  1
  O  O357  1  0.25652271  0.61449666  0.25946617  1
  O  O358  1  0.26075168  0.61506856  0.74322137  1
  O  O359  1  0.76072602  0.13432514  0.25874986  1
  O  O360  1  0.75187582  0.12060281  0.76246139  1
  O  O361  1  0.74360184  0.61881184  0.26237484  1
  O  O362  1  0.75792906  0.61502626  0.74684086  1
  O  O363  1  0.36583023  0.13058677  0.36160378  1
  O  O364  1  0.37176636  0.11845562  0.86811940  1
  O  O365  1  0.36880206  0.61947925  0.36816449  1
  O  O366  1  0.37236069  0.61701641  0.86374731  1
  O  O367  1  0.86929634  0.11819043  0.36642849  1
  O  O368  1  0.86583664  0.11521763  0.87610504  1
  O  O369  1  0.86475926  0.61283324  0.38061893  1
  O  O370  1  0.86671784  0.61399383  0.86640514  1
  O  O371  1  0.13358579  0.39670691  0.11530217  1
  O  O372  1  0.13202655  0.38262179  0.63578999  1
  O  O373  1  0.12337558  0.88302146  0.13386961  1
  O  O374  1  0.13467866  0.87914870  0.63596525  1
  O  O375  1  0.63757838  0.38214659  0.12077498  1
  O  O376  1  0.63312473  0.37399677  0.63894378  1
  O  O377  1  0.62457026  0.88033838  0.14206832  1
  O  O378  1  0.61329873  0.86285564  0.62633351  1
  O  O379  1  0.11749544  0.24896591  0.25440344  1
  O  O380  1  0.11960718  0.26056116  0.75867995  1
  O  O381  1  0.11986186  0.75284247  0.24325565  1
  O  O382  1  0.12464762  0.76423821  0.74813200  1
  O  O383  1  0.61087196  0.24600800  0.25000254  1
  O  O384  1  0.61725261  0.25741882  0.74700703  1
  O  O385  1  0.61320255  0.75260319  0.24744117  1
  O  O386  1  0.62438791  0.74795121  0.74847887  1
  O  O387  1  0.38221698  0.24139418  0.24357437  1
  O  O388  1  0.37962822  0.24105387  0.74780296  1
  O  O389  1  0.37901287  0.74553143  0.24853006  1
  O  O390  1  0.36721337  0.73837041  0.74917666  1
  O  O391  1  0.88417697  0.24013703  0.24293879  1
  O  O392  1  0.88408958  0.25244802  0.74577428  1
  O  O393  1  0.88256472  0.75157377  0.23650736  1
  O  O394  1  0.86880703  0.74038179  0.74241951  1
  O  O395  1  0.38625352  0.49692620  0.49595375  1
  O  O396  1  0.36506098  0.49296291  0.98013488  1
  O  O397  1  0.37750036  0.98767851  0.50389068  1
  O  O398  1  0.37371331  0.99781284  0.99489221  1
  O  O399  1  0.88166992  0.49579930  0.48732036  1
  O  O400  1  0.88029515  0.49649955  0.99404664  1
  O  O401  1  0.86990496  0.98592206  0.48348825  1
  O  O402  1  0.87761142  0.98946490  0.99032319  1
  O  O403  1  0.12607919  0.00337709  0.00605503  1
  O  O404  1  0.12636251  -0.00335625  0.50459969  1
  O  O405  1  0.10812946  0.49957301  0.00281836  1
  O  O406  1  0.11968527  0.50322006  0.50613726  1
  O  O407  1  0.62269134  0.01377982  0.00398424  1
  O  O408  1  0.61383987  0.00888478  0.49825839  1
  O  O409  1  0.62727930  0.50084752  0.01527504  1
  O  O410  1  0.61295157  0.50517470  0.49901706  1
  O  O411  1  0.38199078  0.36031855  0.12271238  1
  O  O412  1  0.36903007  0.36944894  0.62236067  1
  O  O413  1  0.37886887  0.87114593  0.11969420  1
  O  O414  1  0.36141921  0.87002544  0.61415853  1
  O  O415  1  0.86606824  0.37192271  0.11826171  1
  O  O416  1  0.86486000  0.36629739  0.62254211  1
  O  O417  1  0.87268560  0.86649443  0.11756046  1
  O  O418  1  0.87712167  0.85882098  0.61713017  1
  O  O419  1  0.13426879  0.13824741  0.36742076  1
  O  O420  1  0.13001603  0.13363920  0.88123569  1
  O  O421  1  0.13402808  0.62123720  0.38268989  1
  O  O422  1  0.13774586  0.63217196  0.86527265  1
  O  O423  1  0.63184038  0.12835283  0.37990050  1
  O  O424  1  0.64061078  0.12421104  0.88393546  1
  O  O425  1  0.63399717  0.61569074  0.38575739  1
  O  O426  1  0.62310046  0.62873092  0.88583608  1
