# generated using pymatgen
data_V85Zn86O256
_symmetry_space_group_name_H-M   'P 1'
_cell_length_a   16.92717153
_cell_length_b   16.93305988
_cell_length_c   16.94704359
_cell_angle_alpha   89.98629681
_cell_angle_beta   89.91992437
_cell_angle_gamma   90.03506897
_symmetry_Int_Tables_number   1
_chemical_formula_structural   V85Zn86O256
_chemical_formula_sum   'V85 Zn86 O256'
_cell_volume   4857.50512899
_cell_formula_units_Z   1
loop_
 _symmetry_equiv_pos_site_id
 _symmetry_equiv_pos_as_xyz
  1  'x, y, z'
loop_
 _atom_site_type_symbol
 _atom_site_label
 _atom_site_symmetry_multiplicity
 _atom_site_fract_x
 _atom_site_fract_y
 _atom_site_fract_z
 _atom_site_occupancy
  V  V0  1  0.00080721  -0.00501964  0.49697504  1
  V  V1  1  0.87418457  0.50580965  0.37171307  1
  V  V2  1  0.12924841  0.86776817  0.75205988  1
  V  V3  1  0.50131753  0.12555526  0.62418872  1
  V  V4  1  0.75451836  0.50722541  0.24796386  1
  V  V5  1  0.12497360  0.12402780  0.50039551  1
  V  V6  1  0.74208311  0.74595515  0.49932508  1
  V  V7  1  0.24990737  0.25268044  0.49978406  1
  V  V8  1  0.62851249  0.74520486  0.87486757  1
  V  V9  1  0.87403760  0.74003905  0.12917941  1
  V  V10  1  0.25014551  0.00121471  0.75109600  1
  V  V11  1  0.87115942  0.25057876  0.61993195  1
  V  V12  1  0.87576688  0.87449674  0.00220272  1
  V  V13  1  0.12441276  0.37658646  0.74581382  1
  V  V14  1  0.75285639  0.13388912  0.37915240  1
  V  V15  1  0.12569579  0.25101176  0.37437406  1
  V  V16  1  -0.00485265  0.74611316  0.75206505  1
  V  V17  1  0.37084555  0.74977046  0.12935131  1
  V  V18  1  0.38025960  0.73175802  0.62370961  1
  V  V19  1  0.11924282  0.62436990  -0.01135909  1
  V  V20  1  0.49771114  0.87539552  0.87578127  1
  V  V21  1  0.74844438  0.87365367  0.12805076  1
  V  V22  1  0.87656574  0.12657839  0.75050285  1
  V  V23  1  0.61205736  0.50203942  0.62604721  1
  V  V24  1  0.87631145  0.87072343  0.49819059  1
  V  V25  1  -0.00874743  0.62527184  0.62588361  1
  V  V26  1  0.87579822  0.25133885  0.12330740  1
  V  V27  1  0.23897143  0.88144991  0.12477511  1
  V  V28  1  0.12549843  -0.00114276  0.62521092  1
  V  V29  1  0.62332435  0.87382104  0.75058181  1
  V  V30  1  -0.00242494  0.74068522  0.25653605  1
  V  V31  1  0.11398270  0.87965421  0.25590761  1
  V  V32  1  0.00696269  0.12221793  0.12557594  1
  V  V33  1  0.37035885  0.87626601  0.00139395  1
  V  V34  1  0.87669762  -0.00204461  0.37687890  1
  V  V35  1  0.50615426  0.25929671  0.74886672  1
  V  V36  1  0.49336011  0.73582979  0.75168822  1
  V  V37  1  0.61980034  -0.00041543  0.12621592  1
  V  V38  1  0.37678080  0.12881596  0.74990766  1
  V  V39  1  0.12842228  0.51040079  0.61614581  1
  V  V40  1  0.87827803  0.37990503  -0.00311718  1
  V  V41  1  0.26493439  0.87785922  0.61785504  1
  V  V42  1  0.00495284  -0.00143876  0.00453415  1
  V  V43  1  0.74572655  0.62963405  0.37320484  1
  V  V44  1  0.38904159  0.50300573  0.37318305  1
  V  V45  1  0.49007685  0.49118273  0.00127502  1
  V  V46  1  0.61854966  0.25614387  0.37579559  1
  V  V47  1  0.62120750  0.87173883  0.26502732  1
  V  V48  1  0.87561131  -0.00016033  0.87542812  1
  V  V49  1  0.25055779  0.37651908  0.62278581  1
  V  V50  1  0.38230278  0.12658322  0.24799797  1
  V  V51  1  0.49883476  -0.01232095  0.49715042  1
  V  V52  1  0.62890807  0.12940549  0.50110839  1
  V  V53  1  0.62459819  0.50284305  0.12401678  1
  V  V54  1  0.74832731  0.37559212  0.12521295  1
  V  V55  1  0.74895917  0.74842966  -0.00171354  1
  V  V56  1  0.75071200  -0.00148146  0.75094576  1
  V  V57  1  0.74871349  0.51842638  0.75113902  1
  V  V58  1  0.74799001  0.37755467  0.63392093  1
  V  V59  1  0.25593291  0.51589293  0.24757015  1
  V  V60  1  0.25096018  0.13143481  0.87575888  1
  V  V61  1  0.24241526  0.74105547  -0.01116424  1
  V  V62  1  0.00217062  0.50663131  0.49642809  1
  V  V63  1  0.13874674  0.37556669  0.24466871  1
  V  V64  1  0.12658519  0.12804794  -0.00005363  1
  V  V65  1  0.36981005  0.50836322  0.87572442  1
  V  V66  1  0.62477844  0.00008276  0.62484283  1
  V  V67  1  0.25422086  0.52044182  0.74926137  1
  V  V68  1  0.87277914  0.51499947  0.87147799  1
  V  V69  1  0.62791388  0.25772763  0.87501440  1
  V  V70  1  0.87664644  0.12480082  0.25056788  1
  V  V71  1  0.86924589  0.37439515  0.49837357  1
  V  V72  1  0.00269348  0.25399573  0.24873334  1
  V  V73  1  0.12306798  0.50251404  0.12236852  1
  V  V74  1  0.49982483  0.75068837  0.26018434  1
  V  V75  1  0.00655850  0.87146828  0.87518172  1
  V  V76  1  0.39081528  0.37668133  0.49296101  1
  V  V77  1  0.25377579  0.12097774  0.37467471  1
  V  V78  1  0.48831844  0.62724604  0.12544755  1
  V  V79  1  0.74982616  -0.00100379  0.25229218  1
  V  V80  1  0.37781021  -0.01351282  0.37794183  1
  V  V81  1  -0.00382851  0.37917133  0.87310090  1
  V  V82  1  0.60470191  0.62228287  0.49772105  1
  V  V83  1  0.74857184  0.87249184  0.62503417  1
  V  V84  1  0.62544657  0.62357306  -0.00181562  1
  Zn  Zn85  1  -0.00119737  0.25220162  0.74759323  1
  Zn  Zn86  1  0.24103333  0.62202656  0.39170625  1
  Zn  Zn87  1  0.12312523  0.25510071  0.87458619  1
  Zn  Zn88  1  0.62423523  0.38236227  0.26103742  1
  Zn  Zn89  1  0.00022569  0.37761452  0.37447391  1
  Zn  Zn90  1  0.24505335  0.74408862  0.50255106  1
  Zn  Zn91  1  0.86848964  0.74306582  0.63081372  1
  Zn  Zn92  1  0.74879450  0.12508973  0.87859575  1
  Zn  Zn93  1  0.24636555  -0.00157079  0.24830071  1
  Zn  Zn94  1  0.74938340  0.24719641  0.00059036  1
  Zn  Zn95  1  0.37757012  0.25229303  0.62296593  1
  Zn  Zn96  1  0.49357110  0.37442536  0.87730830  1
  Zn  Zn97  1  -0.00273083  0.62059847  0.12325880  1
  Zn  Zn98  1  0.37902870  0.27097687  0.10576526  1
  Zn  Zn99  1  0.37554465  0.00200321  0.87730566  1
  Zn  Zn100  1  0.49704888  0.26192164  0.24809037  1
  Zn  Zn101  1  0.49960649  -0.00059614  0.00165025  1
  Zn  Zn102  1  0.25476649  0.26861564  0.00544670  1
  Zn  Zn103  1  0.50124599  0.13039539  0.11994064  1
  Zn  Zn104  1  0.00065588  0.12701015  0.62466938  1
  Zn  Zn105  1  0.62537371  0.12366675  -0.00159833  1
  Zn  Zn106  1  0.10821201  0.74488675  0.39203834  1
  Zn  Zn107  1  0.19498310  0.19017953  0.18490479  1
  Zn  Zn108  1  0.18759103  0.19082568  0.68693060  1
  Zn  Zn109  1  0.18273686  0.68980362  0.18497392  1
  Zn  Zn110  1  0.18368780  0.69235771  0.67317307  1
  Zn  Zn111  1  0.68700345  0.18685340  0.19016318  1
  Zn  Zn112  1  0.69098329  0.18981275  0.69025395  1
  Zn  Zn113  1  0.68173213  0.68795893  0.18827203  1
  Zn  Zn114  1  0.67842472  0.68530022  0.68291185  1
  Zn  Zn115  1  0.31601459  0.31224649  0.31307985  1
  Zn  Zn116  1  0.31464581  0.31633724  0.81781783  1
  Zn  Zn117  1  0.30406790  0.80941319  0.30818209  1
  Zn  Zn118  1  0.31390633  0.80951903  0.81123053  1
  Zn  Zn119  1  0.81066474  0.31572153  0.31141011  1
  Zn  Zn120  1  0.81044477  0.31481565  0.80955843  1
  Zn  Zn121  1  0.81330149  0.81035923  0.31441071  1
  Zn  Zn122  1  0.81371751  0.81136479  0.81465874  1
  Zn  Zn123  1  0.18876902  0.43891702  0.43252263  1
  Zn  Zn124  1  0.18132855  0.44908330  0.92881361  1
  Zn  Zn125  1  0.18674514  0.92812860  0.43691108  1
  Zn  Zn126  1  0.18818142  0.94068926  0.93731672  1
  Zn  Zn127  1  0.68762082  0.44257181  0.44449861  1
  Zn  Zn128  1  0.68879379  0.43633444  0.93522085  1
  Zn  Zn129  1  0.68925293  0.94109674  0.43965579  1
  Zn  Zn130  1  0.68704590  0.93564597  0.93881978  1
  Zn  Zn131  1  0.31044651  0.06628241  0.06420093  1
  Zn  Zn132  1  0.31560309  0.06146465  0.56088501  1
  Zn  Zn133  1  0.30522739  0.43657671  0.06056086  1
  Zn  Zn134  1  0.31860712  0.56073003  0.55541497  1
  Zn  Zn135  1  0.81193414  0.06320543  0.06337967  1
  Zn  Zn136  1  0.81248012  0.06245860  0.56348820  1
  Zn  Zn137  1  0.81084380  0.56239968  0.05540022  1
  Zn  Zn138  1  0.80991798  0.56069070  0.56087086  1
  Zn  Zn139  1  0.44343238  0.43645863  0.19522600  1
  Zn  Zn140  1  0.42978170  0.43825468  0.68929955  1
  Zn  Zn141  1  0.43471188  0.93469333  0.19219380  1
  Zn  Zn142  1  0.44160070  0.94140963  0.69323721  1
  Zn  Zn143  1  0.93976995  0.43862448  0.18721685  1
  Zn  Zn144  1  0.93446207  0.44193525  0.68812968  1
  Zn  Zn145  1  0.93782656  0.93507005  0.18697050  1
  Zn  Zn146  1  0.93810295  0.93561638  0.68481189  1
  Zn  Zn147  1  0.06306329  0.06100675  0.31474555  1
  Zn  Zn148  1  0.06283882  0.06093405  0.81354043  1
  Zn  Zn149  1  0.06642976  0.56564402  0.31247258  1
  Zn  Zn150  1  0.06091609  0.56046211  0.80809716  1
  Zn  Zn151  1  0.56227278  0.06090213  0.31549347  1
  Zn  Zn152  1  0.56361517  0.06622133  0.81555216  1
  Zn  Zn153  1  0.56367021  0.56834981  0.30961310  1
  Zn  Zn154  1  0.56344151  0.55693946  0.81523540  1
  Zn  Zn155  1  0.43800583  0.18430449  0.43931581  1
  Zn  Zn156  1  0.44100429  0.18774779  0.94051937  1
  Zn  Zn157  1  0.39968218  0.70795611  0.42151388  1
  Zn  Zn158  1  0.43284167  0.68498161  0.94043760  1
  Zn  Zn159  1  0.93947916  0.18784906  0.43964226  1
  Zn  Zn160  1  0.93757926  0.19159219  0.93628292  1
  Zn  Zn161  1  0.93175318  0.68542340  0.43872474  1
  Zn  Zn162  1  0.94080983  0.69084540  0.93899516  1
  Zn  Zn163  1  0.06693012  0.31732948  0.05919143  1
  Zn  Zn164  1  0.05779473  0.31671275  0.56113673  1
  Zn  Zn165  1  0.06302518  0.80803531  0.06694149  1
  Zn  Zn166  1  0.06148778  0.81372393  0.56843072  1
  Zn  Zn167  1  0.56216900  0.30989680  0.06558289  1
  Zn  Zn168  1  0.56924304  0.31192698  0.56430229  1
  Zn  Zn169  1  0.56084228  0.81443118  0.06548376  1
  Zn  Zn170  1  0.55888256  0.80530712  0.56352651  1
  O  O171  1  0.11347073  0.12712952  0.11866155  1
  O  O172  1  0.12642517  0.11746560  0.61860636  1
  O  O173  1  0.12304324  0.61803442  0.11748369  1
  O  O174  1  0.11265790  0.61422648  0.62493398  1
  O  O175  1  0.62461319  0.11268562  0.12795082  1
  O  O176  1  0.62442952  0.12115591  0.61868716  1
  O  O177  1  0.61667732  0.62111359  0.11659517  1
  O  O178  1  0.62281635  0.61264575  0.61279969  1
  O  O179  1  0.37104941  0.38178387  0.38725060  1
  O  O180  1  0.37930180  0.39685469  0.86143843  1
  O  O181  1  0.37091560  0.88887331  0.36949803  1
  O  O182  1  0.38123904  0.87580801  0.88214105  1
  O  O183  1  0.87351080  0.38561376  0.38139853  1
  O  O184  1  0.87762855  0.38082991  0.87988152  1
  O  O185  1  0.86550961  0.88196131  0.39056388  1
  O  O186  1  0.88329083  0.88058670  0.88279528  1
  O  O187  1  0.25990385  0.00507488  0.37774856  1
  O  O188  1  0.25029653  0.01194011  0.86706421  1
  O  O189  1  0.25102191  0.50145738  0.35971571  1
  O  O190  1  0.25288640  0.50366858  0.85575940  1
  O  O191  1  0.75642861  0.01018534  0.37039409  1
  O  O192  1  0.75726411  -0.00238671  0.86816225  1
  O  O193  1  0.75431712  0.50707829  0.36803022  1
  O  O194  1  0.75614586  0.49853812  0.85984297  1
  O  O195  1  0.23777461  0.49819557  0.14144311  1
  O  O196  1  0.24418620  0.49530112  0.63060336  1
  O  O197  1  0.25236401  0.98534617  0.12689684  1
  O  O198  1  0.24806188  0.99331508  0.63080869  1
  O  O199  1  0.74891638  0.49632154  0.13098856  1
  O  O200  1  0.74686846  0.49803057  0.63645272  1
  O  O201  1  0.74466734  0.99321506  0.13391729  1
  O  O202  1  0.74381502  0.99336445  0.63054583  1
  O  O203  1  0.00454091  0.36279562  0.25168913  1
  O  O204  1  0.00662330  0.37763496  0.75304813  1
  O  O205  1  0.00938569  0.86915487  0.24807024  1
  O  O206  1  0.00800408  0.87206273  0.75675291  1
  O  O207  1  0.51298890  0.37427001  0.25491224  1
  O  O208  1  0.49619278  0.36098897  0.74501845  1
  O  O209  1  0.50811805  0.86151662  0.24564448  1
  O  O210  1  0.50595408  0.86896091  0.75896657  1
  O  O211  1  0.48870849  0.12527321  0.25280595  1
  O  O212  1  0.49302717  0.13006788  0.74411045  1
  O  O213  1  0.50691334  0.64034136  0.23836676  1
  O  O214  1  0.50535681  0.63837875  0.75491821  1
  O  O215  1  0.99882594  0.13287647  0.24388657  1
  O  O216  1  0.98859656  0.12447026  0.74733494  1
  O  O217  1  0.99749117  0.63821931  0.24535273  1
  O  O218  1  1.00474554  0.63529638  0.74156981  1
  O  O219  1  0.36908196  0.25399606  -0.00933069  1
  O  O220  1  0.36886568  0.26026168  0.49817982  1
  O  O221  1  0.36500030  0.75819278  0.00706147  1
  O  O222  1  0.38716375  0.75560396  0.52544345  1
  O  O223  1  0.87341956  0.25924303  0.00690408  1
  O  O224  1  0.87832967  0.26039644  0.50640054  1
  O  O225  1  0.86970026  0.75616350  0.00698357  1
  O  O226  1  0.86304229  0.75612385  0.50356661  1
  O  O227  1  0.12832045  0.24566155  0.49538690  1
  O  O228  1  0.12304055  0.23735005  0.99636248  1
  O  O229  1  0.13400843  0.77331871  0.49681474  1
  O  O230  1  0.13450993  0.74297506  1.00328394  1
  O  O231  1  0.62535724  0.23754133  0.49202462  1
  O  O232  1  0.62714648  0.24993196  0.98731199  1
  O  O233  1  0.63305818  0.73621207  0.50696371  1
  O  O234  1  0.62682536  0.74569871  0.99326355  1
  O  O235  1  0.49471911  0.24623437  0.13006972  1
  O  O236  1  0.50269921  0.24264961  0.63138748  1
  O  O237  1  0.49114753  0.74582557  0.12757217  1
  O  O238  1  0.49213669  0.75336018  0.64288504  1
  O  O239  1  0.99601390  0.24414122  0.13132688  1
  O  O240  1  0.98639413  0.24965099  0.62604782  1
  O  O241  1  0.98827485  0.75006344  0.13438170  1
  O  O242  1  0.99598017  0.74226461  0.63252292  1
  O  O243  1  0.00679721  0.24888766  0.36489689  1
  O  O244  1  -0.00044155  0.26523212  0.86954516  1
  O  O245  1  -0.00971499  0.74867680  0.36085106  1
  O  O246  1  -0.00226505  0.76350755  0.86853151  1
  O  O247  1  0.51661674  0.24396825  0.37672159  1
  O  O248  1  0.51059496  0.25232908  0.86598286  1
  O  O249  1  0.48954953  0.74537372  0.35831670  1
  O  O250  1  0.50239520  0.75770730  0.86778290  1
  O  O251  1  0.24645856  0.12928263  0.49139507  1
  O  O252  1  0.23922909  0.11738042  0.98940492  1
  O  O253  1  0.24536952  0.62800687  0.50877087  1
  O  O254  1  0.23725694  0.64046847  0.99958575  1
  O  O255  1  0.74178142  0.11842737  0.49123853  1
  O  O256  1  0.74754376  0.12834275  0.99765451  1
  O  O257  1  0.74672889  0.63178769  0.49358591  1
  O  O258  1  0.73395103  0.63283353  1.00404993  1
  O  O259  1  0.23068459  0.37947934  -0.00139364  1
  O  O260  1  0.25014107  0.37207005  0.50936197  1
  O  O261  1  0.25154409  0.86964160  0.00587200  1
  O  O262  1  0.25562349  0.87988794  0.51686447  1
  O  O263  1  0.76078191  0.37424399  0.00686966  1
  O  O264  1  0.76423254  0.38643347  0.51249759  1
  O  O265  1  0.75479583  0.86826704  0.00795266  1
  O  O266  1  0.75088474  0.86617649  0.50588338  1
  O  O267  1  0.13427908  0.49309491  0.24627994  1
  O  O268  1  0.13369738  0.49331758  0.73998546  1
  O  O269  1  0.12445893  0.98512405  0.25473915  1
  O  O270  1  0.13026182  0.99343463  0.74410811  1
  O  O271  1  0.63786464  0.50343216  0.24219546  1
  O  O272  1  0.63681411  0.50628098  0.73948842  1
  O  O273  1  0.62981558  0.99297908  0.24622134  1
  O  O274  1  0.62980438  0.99468537  0.74546728  1
  O  O275  1  0.37356496  0.00677719  0.26367925  1
  O  O276  1  0.37017319  0.01351106  0.75202470  1
  O  O277  1  0.36213439  0.49527954  0.26149739  1
  O  O278  1  0.35871111  0.50584821  0.74855503  1
  O  O279  1  0.87214117  0.00399123  0.25702042  1
  O  O280  1  0.87159019  0.00514201  0.75349724  1
  O  O281  1  0.86374205  0.49589776  0.25662479  1
  O  O282  1  0.86241216  0.50086820  0.76025905  1
  O  O283  1  0.12138524  0.36773276  0.36486834  1
  O  O284  1  0.11302476  0.38021631  0.86259359  1
  O  O285  1  0.13132269  0.86465539  0.35800599  1
  O  O286  1  0.11746262  0.88209786  0.86554156  1
  O  O287  1  0.63768833  0.35807273  0.38333025  1
  O  O288  1  0.62119088  0.36243759  0.87517028  1
  O  O289  1  0.62954820  0.87953618  0.36409764  1
  O  O290  1  0.61718270  0.86448219  0.87251595  1
  O  O291  1  0.37999377  0.10964323  0.14466231  1
  O  O292  1  0.38103773  0.12832211  0.63164575  1
  O  O293  1  0.38668681  0.63592523  0.11911052  1
  O  O294  1  0.37781851  0.63314904  0.62670370  1
  O  O295  1  0.88548103  0.13003792  0.13146829  1
  O  O296  1  0.87424413  0.13343784  0.63065514  1
  O  O297  1  0.87337358  0.63673735  0.11848039  1
  O  O298  1  0.88678107  0.62295975  0.62237243  1
  O  O299  1  0.26766504  0.23233361  0.11505270  1
  O  O300  1  0.25230820  0.25880494  0.61728929  1
  O  O301  1  0.25567121  0.75887917  0.11838834  1
  O  O302  1  0.26654817  0.76124463  0.62951882  1
  O  O303  1  0.75677053  0.25978474  0.12781990  1
  O  O304  1  0.76116435  0.26033527  0.62883377  1
  O  O305  1  0.75462614  0.75532731  0.12217205  1
  O  O306  1  0.74919632  0.75376608  0.61867619  1
  O  O307  1  0.24510079  0.24146433  0.38029781  1
  O  O308  1  0.24458825  0.23946627  0.87140333  1
  O  O309  1  0.28700919  0.73771185  0.39061307  1
  O  O310  1  0.25211762  0.75503347  0.89037982  1
  O  O311  1  0.74702029  0.23784663  0.37245706  1
  O  O312  1  0.73896012  0.25064760  0.87294159  1
  O  O313  1  0.75283166  0.73799931  0.38257338  1
  O  O314  1  0.73874251  0.75581808  0.88209907  1
  O  O315  1  0.00384078  0.11918151  0.00575671  1
  O  O316  1  0.00777318  0.11643694  0.50254453  1
  O  O317  1  0.01475644  0.63597061  0.00577390  1
  O  O318  1  -0.00431735  0.61394257  0.50566425  1
  O  O319  1  0.50509063  0.11601637  0.00228107  1
  O  O320  1  0.50870175  0.11803175  0.50694245  1
  O  O321  1  0.50855997  0.62120254  0.00708658  1
  O  O322  1  0.50937860  0.63285019  0.49168472  1
  O  O323  1  0.48843144  0.36875188  0.50250945  1
  O  O324  1  0.50752204  0.38986513  1.00109285  1
  O  O325  1  0.50957109  0.88873224  0.50413367  1
  O  O326  1  0.48930205  0.87335948  0.99280440  1
  O  O327  1  0.98802562  0.38746806  0.49754641  1
  O  O328  1  0.98728022  0.37433552  0.99101645  1
  O  O329  1  0.98737181  0.88260362  0.50667362  1
  O  O330  1  0.99972470  0.88061969  0.99491448  1
  O  O331  1  0.48804653  0.50090979  0.36479102  1
  O  O332  1  0.49481935  0.49817130  0.88496463  1
  O  O333  1  0.48783663  1.00239152  0.38317397  1
  O  O334  1  0.50029365  0.98571744  0.87456465  1
  O  O335  1  0.99200044  0.50144599  0.37869765  1
  O  O336  1  0.98316921  0.49105982  0.86496783  1
  O  O337  1  0.99355917  1.00365925  0.38874468  1
  O  O338  1  0.99473098  0.99064439  0.88157262  1
  O  O339  1  -0.00614157  0.00902845  0.11571599  1
  O  O340  1  0.00613914  0.00130389  0.61452919  1
  O  O341  1  0.01524202  0.50362249  0.13304279  1
  O  O342  1  0.00577445  0.50590882  0.61780208  1
  O  O343  1  0.51205321  -0.00505644  0.12781611  1
  O  O344  1  0.50669931  0.00624150  0.62025668  1
  O  O345  1  0.50449123  0.51078764  0.11885129  1
  O  O346  1  0.51402899  0.49537392  0.63456179  1
  O  O347  1  0.24041377  0.37519696  0.25327573  1
  O  O348  1  0.24340724  0.37713288  0.73592632  1
  O  O349  1  0.23696685  0.87338625  0.24079006  1
  O  O350  1  0.24475371  0.88039839  0.74654867  1
  O  O351  1  0.74625037  0.38483758  0.24188621  1
  O  O352  1  0.75366496  0.38542762  0.73712996  1
  O  O353  1  0.74340902  0.87806900  0.24660276  1
  O  O354  1  0.74399383  0.87812133  0.74506602  1
  O  O355  1  0.25694215  0.11984044  0.26207565  1
  O  O356  1  0.25654529  0.12302849  0.75449379  1
  O  O357  1  0.25208033  0.61592490  0.24571312  1
  O  O358  1  0.24085959  0.61775464  0.74218189  1
  O  O359  1  0.75854088  0.11915283  0.25755749  1
  O  O360  1  0.76235462  0.11730722  0.75108650  1
  O  O361  1  0.74477438  0.62019510  0.25977021  1
  O  O362  1  0.74979780  0.61739162  0.74623659  1
  O  O363  1  0.36899763  0.11751790  0.36969422  1
  O  O364  1  0.36768270  0.12316208  0.86643080  1
  O  O365  1  0.37147317  0.60246734  0.38253256  1
  O  O366  1  0.38124502  0.61035064  0.87273433  1
  O  O367  1  0.87027094  0.12074437  0.37135391  1
  O  O368  1  0.87528674  0.11922733  0.86707873  1
  O  O369  1  0.86349193  0.61233064  0.37874512  1
  O  O370  1  0.87802752  0.61359817  0.87950391  1
  O  O371  1  0.11805050  0.38368697  0.13593337  1
  O  O372  1  0.12925919  0.38537059  0.62782165  1
  O  O373  1  0.12967727  0.87217464  0.13641256  1
  O  O374  1  0.13632075  0.88280635  0.63539478  1
  O  O375  1  0.63922010  0.38290644  0.12064837  1
  O  O376  1  0.63585808  0.39048808  0.61500628  1
  O  O377  1  0.63250584  0.88079866  0.13301539  1
  O  O378  1  0.63023837  0.87863907  0.63073299  1
  O  O379  1  0.12060573  0.25506145  0.25157070  1
  O  O380  1  0.12150787  0.26492626  0.74757486  1
  O  O381  1  0.10690070  0.75854236  0.24527263  1
  O  O382  1  0.11618800  0.76271016  0.74204589  1
  O  O383  1  0.62783085  0.24898906  0.26804258  1
  O  O384  1  0.61804125  0.24605760  0.76003963  1
  O  O385  1  0.61120215  0.75841238  0.24797784  1
  O  O386  1  0.61606833  0.75377486  0.75660370  1
  O  O387  1  0.37727314  0.23249569  0.25831451  1
  O  O388  1  0.38214571  0.24071615  0.74896562  1
  O  O389  1  0.38479630  0.75812969  0.23574135  1
  O  O390  1  0.38714387  0.75103849  0.74449367  1
  O  O391  1  0.88412067  0.24653795  0.24559171  1
  O  O392  1  0.87511421  0.24165559  0.74282747  1
  O  O393  1  0.88628205  0.75894444  0.24105649  1
  O  O394  1  0.88971091  0.75791650  0.74790462  1
  O  O395  1  0.37525742  0.48463747  0.48868707  1
  O  O396  1  0.38113907  0.50177825  0.99133532  1
  O  O397  1  0.38429269  1.00368848  0.48783421  1
  O  O398  1  0.37389930  0.98692301  0.99885055  1
  O  O399  1  0.88087636  0.49538360  0.49159114  1
  O  O400  1  0.86692027  0.49383996  0.98212711  1
  O  O401  1  0.88129035  0.99332722  0.49779137  1
  O  O402  1  0.88518753  0.99470426  0.99657185  1
  O  O403  1  0.11182765  0.01075887  -0.00475511  1
  O  O404  1  0.11852738  0.00042614  0.50301971  1
  O  O405  1  0.12788707  0.51686000  0.00801402  1
  O  O406  1  0.11447866  0.49190375  0.50613644  1
  O  O407  1  0.62447710  -0.00357546  0.01297167  1
  O  O408  1  0.61987929  0.01007795  0.50458564  1
  O  O409  1  0.62115959  0.50840540  0.00286156  1
  O  O410  1  0.62385077  0.51167483  0.51178813  1
  O  O411  1  0.37592736  0.38279545  0.12646699  1
  O  O412  1  0.36663701  0.37534673  0.61225269  1
  O  O413  1  0.36748403  0.86915076  0.11774981  1
  O  O414  1  0.36500903  0.87848575  0.63556745  1
  O  O415  1  0.86808889  0.37473312  0.11759062  1
  O  O416  1  0.86994428  0.37045262  0.61901565  1
  O  O417  1  0.86714017  0.86849607  0.11968520  1
  O  O418  1  0.86462888  0.87450367  0.61500389  1
  O  O419  1  0.13407288  0.12885597  0.37996190  1
  O  O420  1  0.13013513  0.12841893  0.88093589  1
  O  O421  1  0.13119961  0.63839373  0.36405697  1
  O  O422  1  0.11811613  0.61862015  0.88900581  1
  O  O423  1  0.63330880  0.13021491  0.38237819  1
  O  O424  1  0.62860041  0.13785893  0.87563770  1
  O  O425  1  0.63282366  0.61742278  0.38963314  1
  O  O426  1  0.61833922  0.63754041  0.88271100  1
