# generated using pymatgen
data_V85Zn86O256
_symmetry_space_group_name_H-M   'P 1'
_cell_length_a   16.94550965
_cell_length_b   16.94036023
_cell_length_c   16.94106330
_cell_angle_alpha   89.97098383
_cell_angle_beta   89.96903958
_cell_angle_gamma   90.00677260
_symmetry_Int_Tables_number   1
_chemical_formula_structural   V85Zn86O256
_chemical_formula_sum   'V85 Zn86 O256'
_cell_volume   4863.15172692
_cell_formula_units_Z   1
loop_
 _symmetry_equiv_pos_site_id
 _symmetry_equiv_pos_as_xyz
  1  'x, y, z'
loop_
 _atom_site_type_symbol
 _atom_site_label
 _atom_site_symmetry_multiplicity
 _atom_site_fract_x
 _atom_site_fract_y
 _atom_site_fract_z
 _atom_site_occupancy
  V  V0  1  0.38129194  0.74735753  0.62223085  1
  V  V1  1  -0.00380049  0.12543722  0.62563173  1
  V  V2  1  0.55581561  0.31497474  0.42475876  1
  V  V3  1  0.62143256  0.50517885  0.12743092  1
  V  V4  1  0.23727956  0.75106545  -0.00549649  1
  V  V5  1  0.25123241  0.49690127  0.75103306  1
  V  V6  1  0.75141471  0.62356073  0.87774475  1
  V  V7  1  0.86690424  0.37188881  0.50163703  1
  V  V8  1  0.86229744  0.24945483  0.62348470  1
  V  V9  1  0.49573145  0.26124064  0.24898625  1
  V  V10  1  0.25026456  0.24841859  0.50152804  1
  V  V11  1  0.25630782  0.01263169  0.76022007  1
  V  V12  1  0.87934134  0.62270735  0.75340290  1
  V  V13  1  0.62103553  0.37201934  0.75142097  1
  V  V14  1  -0.00010552  -0.00237561  0.50027347  1
  V  V15  1  0.37533497  0.87325236  0.49501225  1
  V  V16  1  0.51178473  0.61918531  0.62522910  1
  V  V17  1  0.74613585  0.14195439  0.37887663  1
  V  V18  1  0.37412212  0.37489096  0.00425122  1
  V  V19  1  0.12119604  0.87093853  0.24783954  1
  V  V20  1  -0.00393316  0.25065241  0.24938298  1
  V  V21  1  0.12696114  0.50551641  0.12227244  1
  V  V22  1  0.49783539  0.50395214  0.00268281  1
  V  V23  1  0.87581106  0.87081481  0.50463751  1
  V  V24  1  -0.00097838  0.37766670  0.37798352  1
  V  V25  1  0.25238093  0.74611734  0.49519076  1
  V  V26  1  0.25787755  0.38010722  0.13144190  1
  V  V27  1  0.61983514  0.87103315  0.24645135  1
  V  V28  1  0.00233546  0.62975389  0.11381436  1
  V  V29  1  0.23828927  0.62893192  0.87329453  1
  V  V30  1  0.62055740  0.62729989  0.00191555  1
  V  V31  1  0.50212912  0.37197715  0.87589539  1
  V  V32  1  0.37440406  -0.00134899  0.36967816  1
  V  V33  1  0.74656784  -0.00446564  0.76027661  1
  V  V34  1  0.12174241  0.12580081  0.49836331  1
  V  V35  1  0.51058066  -0.00092013  0.49830941  1
  V  V36  1  0.75255157  0.87526141  0.12383176  1
  V  V37  1  -0.00951956  -0.00165211  -0.00871031  1
  V  V38  1  0.87299299  0.50733699  0.37897133  1
  V  V39  1  0.49990891  0.00243332  -0.00706472  1
  V  V40  1  0.12429589  0.37197653  0.75603034  1
  V  V41  1  0.12720526  0.38224345  0.24948521  1
  V  V42  1  0.50142413  0.50096235  0.49981818  1
  V  V43  1  0.25252552  0.61869054  0.35861200  1
  V  V44  1  0.74930759  0.00189301  0.25461981  1
  V  V45  1  0.38015826  0.73922300  0.12616692  1
  V  V46  1  0.87311642  0.25437885  0.11098383  1
  V  V47  1  -0.00099299  0.86772620  0.85902677  1
  V  V48  1  0.12064840  0.24931565  0.87825102  1
  V  V49  1  0.62478914  0.00416494  0.12499753  1
  V  V50  1  0.25160828  0.87806722  0.12090520  1
  V  V51  1  0.75125981  0.50642986  0.25044022  1
  V  V52  1  0.87646507  0.74458057  0.63083362  1
  V  V53  1  0.12376457  0.74832397  0.37524946  1
  V  V54  1  0.24928287  0.00047679  0.24563893  1
  V  V55  1  0.49436886  0.23214913  0.75552194  1
  V  V56  1  0.75375296  0.37513301  0.11210647  1
  V  V57  1  0.37715118  0.87414184  -0.00739171  1
  V  V58  1  0.87470236  0.48321049  0.88176983  1
  V  V59  1  0.24935136  0.25360043  0.00654914  1
  V  V60  1  0.37985425  0.62389387  0.75170693  1
  V  V61  1  0.12110404  0.49519488  0.62582008  1
  V  V62  1  0.62849921  0.14229670  0.00094115  1
  V  V63  1  0.62497497  0.75850427  0.86872519  1
  V  V64  1  0.36937933  0.37631715  0.50058221  1
  V  V65  1  0.25163116  0.87918252  0.63347288  1
  V  V66  1  0.87364978  0.00023856  0.37414367  1
  V  V67  1  0.74443703  0.49612863  0.74645931  1
  V  V68  1  0.88005097  0.75233149  0.12605431  1
  V  V69  1  0.74828949  0.13979433  0.88139304  1
  V  V70  1  0.49563508  0.86739633  0.36519549  1
  V  V71  1  -0.00225873  0.48491252  -0.00019926  1
  V  V72  1  0.88220235  0.62929638  0.25165755  1
  V  V73  1  0.12258827  0.62113909  0.49913116  1
  V  V74  1  -0.00025587  0.86960848  0.37249973  1
  V  V75  1  0.62751524  0.36912745  0.24978010  1
  V  V76  1  0.37509367  0.13136199  0.24745296  1
  V  V77  1  -0.00249574  0.25306219  0.75267453  1
  V  V78  1  0.24747437  0.12531384  0.37129283  1
  V  V79  1  0.12465811  0.12095931  0.00112733  1
  V  V80  1  0.62562776  0.00684740  0.62358890  1
  V  V81  1  0.49663130  0.13109181  0.12807181  1
  V  V82  1  0.87323213  0.11954366  0.75674209  1
  V  V83  1  0.37597322  0.49818524  0.35956975  1
  V  V84  1  0.74215402  0.87365113  0.63030828  1
  Zn  Zn85  1  0.25309309  0.36834916  0.62963527  1
  Zn  Zn86  1  0.12031245  0.75803513  0.83096062  1
  Zn  Zn87  1  0.12153813  -0.00395445  0.63234070  1
  Zn  Zn88  1  0.03771535  0.66302752  0.67648065  1
  Zn  Zn89  1  0.87327788  0.87641740  -0.00716982  1
  Zn  Zn90  1  0.12278327  0.25275554  0.37322955  1
  Zn  Zn91  1  0.50079056  0.73161289  0.24408334  1
  Zn  Zn92  1  0.36792796  0.21987737  0.64601685  1
  Zn  Zn93  1  0.63524295  0.73517490  0.37104154  1
  Zn  Zn94  1  0.50761978  0.75817090  0.74480318  1
  Zn  Zn95  1  0.87505340  0.12761352  0.24929974  1
  Zn  Zn96  1  -0.00241451  0.50144491  0.50875969  1
  Zn  Zn97  1  0.73806421  0.37407444  0.61947233  1
  Zn  Zn98  1  0.37306570  0.50268740  0.87640448  1
  Zn  Zn99  1  0.26887871  0.13260174  0.87101497  1
  Zn  Zn100  1  0.63387014  0.61922044  0.49409865  1
  Zn  Zn101  1  0.75021721  0.73497159  0.49234236  1
  Zn  Zn102  1  0.75026679  0.75050036  0.00118460  1
  Zn  Zn103  1  0.12189586  -0.00069757  0.12194712  1
  Zn  Zn104  1  -0.00334140  0.12216972  0.12541360  1
  Zn  Zn105  1  0.49993895  0.88296575  0.86499932  1
  Zn  Zn106  1  0.62880863  0.13993080  0.49855436  1
  Zn  Zn107  1  0.18300429  0.19082091  0.18412418  1
  Zn  Zn108  1  0.18533714  0.18221604  0.68668525  1
  Zn  Zn109  1  0.18596156  0.69237953  0.18309754  1
  Zn  Zn110  1  0.20347598  0.68381978  0.68103865  1
  Zn  Zn111  1  0.69055856  0.18949083  0.18833793  1
  Zn  Zn112  1  0.68044934  0.18616877  0.69406616  1
  Zn  Zn113  1  0.68941373  0.68671532  0.18861545  1
  Zn  Zn114  1  0.69401479  0.68610933  0.68732930  1
  Zn  Zn115  1  0.31273001  0.31353930  0.31526576  1
  Zn  Zn116  1  0.31441609  0.31265877  0.81940794  1
  Zn  Zn117  1  0.30958905  0.80687188  0.30584700  1
  Zn  Zn118  1  0.31733770  0.81117145  0.81028984  1
  Zn  Zn119  1  0.81432831  0.31941666  0.30776169  1
  Zn  Zn120  1  0.81095042  0.31076521  0.81148379  1
  Zn  Zn121  1  0.81272981  0.81119306  0.31042730  1
  Zn  Zn122  1  0.81650408  0.81155977  0.81404081  1
  Zn  Zn123  1  0.19047483  0.43851700  0.43562762  1
  Zn  Zn124  1  0.18343676  0.44009403  0.93851782  1
  Zn  Zn125  1  0.18699810  0.93748436  0.43851571  1
  Zn  Zn126  1  0.18180308  0.93486445  0.92959441  1
  Zn  Zn127  1  0.69183183  0.44944105  0.43838435  1
  Zn  Zn128  1  0.68372270  0.43765514  0.93445680  1
  Zn  Zn129  1  0.69336076  0.90990199  0.43111612  1
  Zn  Zn130  1  0.68673835  0.94238745  0.94105155  1
  Zn  Zn131  1  0.33076971  0.07862583  0.03335521  1
  Zn  Zn132  1  0.31460122  0.05676506  0.56187538  1
  Zn  Zn133  1  0.30319284  0.56337424  0.05387544  1
  Zn  Zn134  1  0.31134264  0.55949586  0.56142549  1
  Zn  Zn135  1  0.81388358  0.06681797  0.06403668  1
  Zn  Zn136  1  0.80807309  0.06155121  0.56201289  1
  Zn  Zn137  1  0.81339029  0.56268769  0.06257073  1
  Zn  Zn138  1  0.81299459  0.56119913  0.56741739  1
  Zn  Zn139  1  0.43259193  0.55840905  0.18240333  1
  Zn  Zn140  1  0.43679380  0.43567533  0.68586172  1
  Zn  Zn141  1  0.43480985  0.93856187  0.17884180  1
  Zn  Zn142  1  0.44023291  0.94107627  0.68727965  1
  Zn  Zn143  1  0.93765073  0.43825468  0.18622276  1
  Zn  Zn144  1  0.93519119  0.43621816  0.69126555  1
  Zn  Zn145  1  0.93923520  0.94025059  0.18528793  1
  Zn  Zn146  1  0.93198609  0.93980497  0.68672641  1
  Zn  Zn147  1  0.06161197  0.06015771  0.31099230  1
  Zn  Zn148  1  0.06983948  0.05925766  0.81407802  1
  Zn  Zn149  1  0.05960772  0.56296344  0.30948059  1
  Zn  Zn150  1  0.06393108  0.55295392  0.82275190  1
  Zn  Zn151  1  0.56303965  0.06444608  0.31613268  1
  Zn  Zn152  1  0.57279362  0.06109260  0.81494832  1
  Zn  Zn153  1  0.56150034  0.56056987  0.31672335  1
  Zn  Zn154  1  0.56313674  0.56241398  0.81596564  1
  Zn  Zn155  1  0.42199880  0.16680432  0.46738987  1
  Zn  Zn156  1  0.44012411  0.19258217  0.93912663  1
  Zn  Zn157  1  0.44095810  0.68026831  0.43148924  1
  Zn  Zn158  1  0.43686854  0.69059682  0.93740254  1
  Zn  Zn159  1  0.93210565  0.18908441  0.43618410  1
  Zn  Zn160  1  0.93763099  0.18506362  0.93520541  1
  Zn  Zn161  1  0.93857506  0.68829715  0.44238737  1
  Zn  Zn162  1  0.93835973  0.69193526  0.93705972  1
  Zn  Zn163  1  0.06404815  0.31268827  0.06783480  1
  Zn  Zn164  1  0.05906056  0.31228250  0.56526822  1
  Zn  Zn165  1  0.05904414  0.81669381  0.05977165  1
  Zn  Zn166  1  0.07926538  0.79609056  0.59636058  1
  Zn  Zn167  1  0.55928889  0.31754238  0.06902011  1
  Zn  Zn168  1  0.55164132  0.31300674  0.58873892  1
  Zn  Zn169  1  0.56168179  0.81300310  0.05880076  1
  Zn  Zn170  1  0.56568583  0.81016993  0.55642902  1
  O  O171  1  0.11698025  0.12482701  0.11404649  1
  O  O172  1  0.11629604  0.12320518  0.61196470  1
  O  O173  1  0.11513184  0.61732498  0.13204087  1
  O  O174  1  0.12765246  0.61264946  0.61645104  1
  O  O175  1  0.62077825  0.12177743  0.12226131  1
  O  O176  1  0.63355340  0.11241917  0.61487634  1
  O  O177  1  0.63276778  0.61304177  0.11712402  1
  O  O178  1  0.61367720  0.62696195  0.62730537  1
  O  O179  1  0.36476424  0.39062993  0.38529896  1
  O  O180  1  0.38367336  0.38083700  0.88560211  1
  O  O181  1  0.37705970  0.87644060  0.37497092  1
  O  O182  1  0.37741606  0.86849939  0.88886762  1
  O  O183  1  0.88115828  0.38155820  0.38263917  1
  O  O184  1  0.87207191  0.38407668  0.87431576  1
  O  O185  1  0.88407399  0.88059272  0.38164081  1
  O  O186  1  0.88979915  0.87174495  0.87764118  1
  O  O187  1  0.25382641  0.00477209  0.36731722  1
  O  O188  1  0.25118382  0.00041510  0.86261653  1
  O  O189  1  0.26098436  0.50812904  0.37680059  1
  O  O190  1  0.24851730  0.51038744  0.86951514  1
  O  O191  1  0.75369830  -0.00607457  0.36347356  1
  O  O192  1  0.74387221  0.00539008  0.86359017  1
  O  O193  1  0.76584772  0.49525920  0.36492391  1
  O  O194  1  0.75718557  0.50591156  0.87265700  1
  O  O195  1  0.23488465  0.49642006  0.11822665  1
  O  O196  1  0.23922600  0.49622262  0.63366685  1
  O  O197  1  0.24806779  0.98623972  0.12659500  1
  O  O198  1  0.24906806  0.98838342  0.62187702  1
  O  O199  1  0.74519986  0.49408331  0.13116620  1
  O  O200  1  0.75816481  0.49224974  0.64383593  1
  O  O201  1  0.74637594  0.99745339  0.13524455  1
  O  O202  1  0.74470388  0.99372398  0.63415513  1
  O  O203  1  0.00450033  0.37123885  0.25756026  1
  O  O204  1  0.00616795  0.36002993  0.74815458  1
  O  O205  1  0.00892288  0.88212184  0.26026022  1
  O  O206  1  -0.00267182  0.88248984  0.75994212  1
  O  O207  1  0.51061968  0.36265569  0.25237350  1
  O  O208  1  0.50282911  0.37518433  0.76060488  1
  O  O209  1  0.50422179  0.87222943  0.24899454  1
  O  O210  1  0.49308188  0.87019653  0.75349885  1
  O  O211  1  0.49791707  0.13472051  0.24598358  1
  O  O212  1  0.50050732  0.13360067  0.76311545  1
  O  O213  1  0.50169005  0.61946539  0.24353842  1
  O  O214  1  0.49361193  0.62543876  0.74368536  1
  O  O215  1  0.99841862  0.13536779  0.25013412  1
  O  O216  1  0.99224715  0.13038476  0.74900946  1
  O  O217  1  0.98718342  0.61952696  0.23737601  1
  O  O218  1  0.98456230  0.61169641  0.76126448  1
  O  O219  1  0.36464111  0.26751252  0.00238445  1
  O  O220  1  0.35700948  0.26228692  0.48362815  1
  O  O221  1  0.36763112  0.75586035  0.00745266  1
  O  O222  1  0.37408873  0.75306095  0.50276784  1
  O  O223  1  0.88097343  0.25013890  0.01251774  1
  O  O224  1  0.87947452  0.25871315  0.51174915  1
  O  O225  1  0.87034730  0.75259294  0.01255565  1
  O  O226  1  0.87041542  0.75736907  0.50587901  1
  O  O227  1  0.13197656  0.24429410  0.49969471  1
  O  O228  1  0.12651049  0.24689702  0.99419907  1
  O  O229  1  0.13246269  0.74029334  0.49741167  1
  O  O230  1  0.13786798  0.75340780  1.00490970  1
  O  O231  1  0.60677391  0.26060620  0.49608935  1
  O  O232  1  0.62242334  0.24136382  1.00897522  1
  O  O233  1  0.62825948  0.74333741  0.49308704  1
  O  O234  1  0.62801626  0.74156724  0.99442657  1
  O  O235  1  0.50199475  0.24331779  0.13645165  1
  O  O236  1  0.48796319  0.24584970  0.64975737  1
  O  O237  1  0.48314075  0.75205300  0.12027861  1
  O  O238  1  0.49213451  0.74257348  0.62251121  1
  O  O239  1  0.98935954  0.25123973  0.13191255  1
  O  O240  1  0.99216273  0.24280470  0.63432058  1
  O  O241  1  0.99141316  0.74457384  0.12188383  1
  O  O242  1  0.98188897  0.74428749  0.61426306  1
  O  O243  1  -0.00069734  0.26194923  0.36933132  1
  O  O244  1  0.01199924  0.24459945  0.86833155  1
  O  O245  1  0.00586161  0.76330432  0.38117688  1
  O  O246  1  0.00341975  0.76143488  0.87236835  1
  O  O247  1  0.49984470  0.24937280  0.37303772  1
  O  O248  1  0.49679253  0.26040121  0.86857350  1
  O  O249  1  0.49465991  0.75999594  0.36647584  1
  O  O250  1  0.51712425  0.74814278  0.87489465  1
  O  O251  1  0.23816912  0.12909319  0.49298707  1
  O  O252  1  0.23590080  0.13999431  1.01345705  1
  O  O253  1  0.24102741  0.62749097  0.49345136  1
  O  O254  1  0.25304454  0.63699409  0.98285263  1
  O  O255  1  0.74883592  0.12326251  0.48370008  1
  O  O256  1  0.74453446  0.12016126  0.98898787  1
  O  O257  1  0.74931311  0.62109543  0.50188875  1
  O  O258  1  0.73973276  0.62356070  0.99351758  1
  O  O259  1  0.25459034  0.37392790  0.00523654  1
  O  O260  1  0.25254931  0.36661625  0.50383803  1
  O  O261  1  0.25599853  0.87146822  0.00325792  1
  O  O262  1  0.26323979  0.86960423  0.49859200  1
  O  O263  1  0.74417418  0.38120756  0.01309377  1
  O  O264  1  0.76199289  0.38134824  0.50251308  1
  O  O265  1  0.75227392  0.87965328  0.01358118  1
  O  O266  1  0.76879960  0.88704899  0.51599705  1
  O  O267  1  0.11680206  0.48939244  0.23960548  1
  O  O268  1  0.12866538  0.48951242  0.74742372  1
  O  O269  1  0.13157545  0.98956610  0.24806489  1
  O  O270  1  0.14553254  1.00683493  0.74436713  1
  O  O271  1  0.63237116  0.49080658  0.24405824  1
  O  O272  1  0.63521365  0.49113633  0.76161509  1
  O  O273  1  0.63062097  0.99551708  0.24292766  1
  O  O274  1  0.63454790  1.00328739  0.73777879  1
  O  O275  1  0.36829696  0.00724651  0.25056709  1
  O  O276  1  0.35441365  -0.00044253  0.73653432  1
  O  O277  1  0.37646104  0.49221243  0.26096415  1
  O  O278  1  0.36977754  0.50693299  0.75173144  1
  O  O279  1  0.86662653  0.00181341  0.25471956  1
  O  O280  1  0.86442292  0.01479181  0.74386679  1
  O  O281  1  0.87014668  0.50622423  0.25613276  1
  O  O282  1  0.86805044  0.50214723  0.76258828  1
  O  O283  1  0.11690496  0.37754834  0.36771614  1
  O  O284  1  0.12716546  0.36758901  0.86403139  1
  O  O285  1  0.11898015  0.87072381  0.37005648  1
  O  O286  1  0.10808403  0.86862804  0.87374270  1
  O  O287  1  0.62400529  0.37335978  0.37126566  1
  O  O288  1  0.61013977  0.37755606  0.87062782  1
  O  O289  1  0.60980389  0.88063630  0.35559218  1
  O  O290  1  0.62763023  0.86024794  0.88247913  1
  O  O291  1  0.39021712  0.12225165  0.12974066  1
  O  O292  1  0.38842276  0.13571085  0.57509053  1
  O  O293  1  0.36838075  0.63439573  0.11861444  1
  O  O294  1  0.37875200  0.63149459  0.63138592  1
  O  O295  1  0.87565539  0.14021891  0.12877858  1
  O  O296  1  0.87682418  0.13176857  0.63129657  1
  O  O297  1  0.88118480  0.63297731  0.13034095  1
  O  O298  1  0.87265578  0.62960132  0.64015132  1
  O  O299  1  0.23954610  0.26548098  0.11395328  1
  O  O300  1  0.25416559  0.24668448  0.61668805  1
  O  O301  1  0.25686339  0.75843319  0.11594137  1
  O  O302  1  0.26464422  0.75934586  0.61527676  1
  O  O303  1  0.76476322  0.25932999  0.13050043  1
  O  O304  1  0.75912852  0.25231975  0.63408506  1
  O  O305  1  0.75625936  0.76010975  0.12431985  1
  O  O306  1  0.75969867  0.75815823  0.62475070  1
  O  O307  1  0.24209243  0.24226419  0.38045216  1
  O  O308  1  0.23997972  0.25121642  0.88885656  1
  O  O309  1  0.24541109  0.74118190  0.37875291  1
  O  O310  1  0.24263517  0.74769688  0.87566390  1
  O  O311  1  0.75616948  0.24022851  0.37014297  1
  O  O312  1  0.74948012  0.23847290  0.87622770  1
  O  O313  1  0.73727207  0.79340675  0.38951038  1
  O  O314  1  0.74196013  0.74233655  0.87847832  1
  O  O315  1  0.00591144  0.11360244  -0.00311788  1
  O  O316  1  0.00344229  0.11946700  0.50145851  1
  O  O317  1  -0.00431277  0.61937769  0.01118036  1
  O  O318  1  0.01691732  0.62009220  0.49352332  1
  O  O319  1  0.51069496  0.12135417  0.01065636  1
  O  O320  1  0.51731358  0.10151459  0.47626324  1
  O  O321  1  0.51127135  0.61863396  -0.00545074  1
  O  O322  1  0.49891234  0.61499105  0.50866805  1
  O  O323  1  0.49390476  0.37194573  0.49330243  1
  O  O324  1  0.49194349  0.38087188  0.99739397  1
  O  O325  1  0.49125027  0.87685359  0.48742736  1
  O  O326  1  0.49495577  0.88314255  0.99607269  1
  O  O327  1  0.99248269  0.37696113  0.49274330  1
  O  O328  1  0.99934603  0.38649946  1.00662211  1
  O  O329  1  0.99096659  0.88333994  0.49585386  1
  O  O330  1  0.99718548  0.88748341  0.99425896  1
  O  O331  1  0.48220506  0.50065349  0.38367490  1
  O  O332  1  0.49804006  0.49462242  0.88821059  1
  O  O333  1  0.49270737  0.98579922  0.37286536  1
  O  O334  1  0.50852449  1.00073385  0.88942629  1
  O  O335  1  0.99041343  0.49029893  0.37454656  1
  O  O336  1  0.99175207  0.49961559  0.89203940  1
  O  O337  1  0.99528799  0.99151516  0.38149831  1
  O  O338  1  1.00492726  0.99247149  0.88531679  1
  O  O339  1  0.00244731  0.00136066  0.11073647  1
  O  O340  1  0.00043563  0.00574057  0.61680722  1
  O  O341  1  0.00413009  0.50603785  0.11573055  1
  O  O342  1  0.01460455  0.49467939  0.62871236  1
  O  O343  1  0.50923718  0.00946061  0.12184198  1
  O  O344  1  0.51310158  -0.00856957  0.61055399  1
  O  O345  1  0.50755075  0.49879761  0.11192357  1
  O  O346  1  0.49218272  0.50925734  0.61542602  1
  O  O347  1  0.23860364  0.36932977  0.24362851  1
  O  O348  1  0.24382777  0.37819960  0.75130210  1
  O  O349  1  0.24375567  0.87910558  0.24072688  1
  O  O350  1  0.25451212  0.87649610  0.73540158  1
  O  O351  1  0.74497100  0.38629056  0.24288864  1
  O  O352  1  0.73797199  0.37921251  0.75506569  1
  O  O353  1  0.74153843  0.88265110  0.23873073  1
  O  O354  1  0.75940407  0.88472436  0.74251203  1
  O  O355  1  0.25195984  0.12218047  0.25049900  1
  O  O356  1  0.25541054  0.11985958  0.75418873  1
  O  O357  1  0.24521172  0.62882695  0.25984872  1
  O  O358  1  0.26171419  0.61828308  0.75431050  1
  O  O359  1  0.75172050  0.11773930  0.26010697  1
  O  O360  1  0.75339565  0.12171488  0.76294304  1
  O  O361  1  0.76237868  0.61265256  0.24265410  1
  O  O362  1  0.75576479  0.61435800  0.75929329  1
  O  O363  1  0.36677932  0.11675611  0.36928206  1
  O  O364  1  0.36494299  0.11411230  0.92579247  1
  O  O365  1  0.36512976  0.61033198  0.37721067  1
  O  O366  1  0.36980797  0.62706810  0.86362703  1
  O  O367  1  0.86397936  0.11752392  0.37318300  1
  O  O368  1  0.86221033  0.12777492  0.86871552  1
  O  O369  1  0.88419590  0.61818901  0.36669935  1
  O  O370  1  0.86325364  0.62246112  0.87402228  1
  O  O371  1  0.13069149  0.38523370  0.13181639  1
  O  O372  1  0.12775139  0.37607402  0.63803645  1
  O  O373  1  0.13144589  0.87412193  0.13265572  1
  O  O374  1  0.14795253  0.88168772  0.60925260  1
  O  O375  1  0.63120055  0.38587323  0.13248445  1
  O  O376  1  0.62343179  0.37934725  0.64350934  1
  O  O377  1  0.62969059  0.88124965  0.13061957  1
  O  O378  1  0.63919730  0.87748256  0.62192768  1
  O  O379  1  0.11152305  0.26176463  0.24832649  1
  O  O380  1  0.11935849  0.25212520  0.75691618  1
  O  O381  1  0.12935380  0.76376272  0.25828321  1
  O  O382  1  0.11426537  0.74415746  0.71424750  1
  O  O383  1  0.62222550  0.26332805  0.24654189  1
  O  O384  1  0.60829626  0.25719025  0.75054348  1
  O  O385  1  0.62191718  0.75822782  0.24895531  1
  O  O386  1  0.62792109  0.74377498  0.76548923  1
  O  O387  1  0.38362370  0.24376633  0.25653993  1
  O  O388  1  0.38532136  0.24690732  0.75813786  1
  O  O389  1  0.37461368  0.75077297  0.22944076  1
  O  O390  1  0.37625170  0.74001504  0.73843900  1
  O  O391  1  0.88673039  0.25311729  0.24541814  1
  O  O392  1  0.88145013  0.24208437  0.74557791  1
  O  O393  1  0.86992377  0.74169610  0.24035670  1
  O  O394  1  0.87019203  0.73606405  0.74359211  1
  O  O395  1  0.38158419  0.49158090  0.49743200  1
  O  O396  1  0.38073951  0.49354193  0.99980410  1
  O  O397  1  0.38372126  0.98713380  0.48924333  1
  O  O398  1  0.39106671  0.98304456  1.01767373  1
  O  O399  1  0.87967893  0.49376790  0.49408657  1
  O  O400  1  0.88628558  0.50231831  0.99544267  1
  O  O401  1  0.88489728  0.99627518  0.49633814  1
  O  O402  1  0.88764394  1.00117591  1.00155591  1
  O  O403  1  0.11867013  0.00754935  -0.00093357  1
  O  O404  1  0.11254256  0.00713516  0.49812823  1
  O  O405  1  0.10997541  0.49930243  0.00725055  1
  O  O406  1  0.12520619  0.50246681  0.50908721  1
  O  O407  1  0.61865576  0.00758438  0.01046759  1
  O  O408  1  0.62142750  -0.01531500  0.50513060  1
  O  O409  1  0.61743051  0.50630825  0.00685057  1
  O  O410  1  0.60600041  0.49442445  0.49671348  1
  O  O411  1  0.35876039  0.38487901  0.11900899  1
  O  O412  1  0.37351675  0.37282997  0.60953634  1
  O  O413  1  0.36658666  0.86421381  0.11674054  1
  O  O414  1  0.36938342  0.86855793  0.61279693  1
  O  O415  1  0.86806106  0.36473194  0.12823591  1
  O  O416  1  0.87499065  0.36633306  0.61853312  1
  O  O417  1  0.86812125  0.86848290  0.12679817  1
  O  O418  1  0.87115393  0.86634348  0.62065035  1
  O  O419  1  0.12585402  0.12635292  0.38474319  1
  O  O420  1  0.13159016  0.13327286  0.88651802  1
  O  O421  1  0.13112287  0.62663147  0.37806273  1
  O  O422  1  0.13540214  0.63494855  0.85934460  1
  O  O423  1  0.64269898  0.12469131  0.37450669  1
  O  O424  1  0.63865146  0.12514663  0.88652180  1
  O  O425  1  0.62997031  0.62172450  0.37724869  1
  O  O426  1  0.63463940  0.63036723  0.88274951  1
