# generated using pymatgen
data_V85Zn86O256
_symmetry_space_group_name_H-M   'P 1'
_cell_length_a   16.95053077
_cell_length_b   16.93611690
_cell_length_c   16.91833906
_cell_angle_alpha   90.00530936
_cell_angle_beta   90.01811994
_cell_angle_gamma   90.04130897
_symmetry_Int_Tables_number   1
_chemical_formula_structural   V85Zn86O256
_chemical_formula_sum   'V85 Zn86 O256'
_cell_volume   4856.85046511
_cell_formula_units_Z   1
loop_
 _symmetry_equiv_pos_site_id
 _symmetry_equiv_pos_as_xyz
  1  'x, y, z'
loop_
 _atom_site_type_symbol
 _atom_site_label
 _atom_site_symmetry_multiplicity
 _atom_site_fract_x
 _atom_site_fract_y
 _atom_site_fract_z
 _atom_site_occupancy
  V  V0  1  0.74951058  0.25687424  -0.00384206  1
  V  V1  1  0.75193600  0.75011572  0.49895318  1
  V  V2  1  0.74952858  0.12435377  0.87266169  1
  V  V3  1  0.25314935  0.63200838  0.37785789  1
  V  V4  1  0.50463194  0.88126219  0.37931866  1
  V  V5  1  0.37572161  0.49991949  0.37465234  1
  V  V6  1  0.87356900  -0.00555010  0.37500952  1
  V  V7  1  0.22894763  0.87066471  0.13702389  1
  V  V8  1  0.74685625  0.87245127  0.12116210  1
  V  V9  1  0.87518052  0.49260812  0.37688745  1
  V  V10  1  0.12679725  0.87610596  0.74819844  1
  V  V11  1  0.37697328  0.00104154  0.37117722  1
  V  V12  1  0.38178657  0.87987454  0.50268627  1
  V  V13  1  0.62290638  0.24986736  0.37085901  1
  V  V14  1  0.37352533  0.74802555  0.62000811  1
  V  V15  1  0.74224879  0.37721390  0.63566994  1
  V  V16  1  0.12528641  0.37295985  0.75252362  1
  V  V17  1  0.74960779  0.12472798  0.37549177  1
  V  V18  1  0.00006768  0.75016826  0.74562434  1
  V  V19  1  0.88033294  0.62081274  0.24498379  1
  V  V20  1  0.74753212  -0.00078218  0.24600156  1
  V  V21  1  0.37294698  0.62757221  0.75067181  1
  V  V22  1  0.74574448  0.87700534  0.63314893  1
  V  V23  1  0.37129177  0.49840026  0.87801674  1
  V  V24  1  0.12588360  0.00775686  0.62381727  1
  V  V25  1  0.62448156  0.25215366  0.86027715  1
  V  V26  1  0.87745801  0.24372944  0.12191322  1
  V  V27  1  -0.00257119  0.37307351  0.88162408  1
  V  V28  1  0.87215732  0.62013549  0.75008945  1
  V  V29  1  -0.00558392  0.50147934  0.00903185  1
  V  V30  1  0.61843435  0.76174071  0.86996346  1
  V  V31  1  0.73025829  0.60694202  0.85602090  1
  V  V32  1  0.62309189  0.50006886  0.12327091  1
  V  V33  1  0.75460526  0.25842993  0.49644874  1
  V  V34  1  0.12820998  0.24138545  0.88363655  1
  V  V35  1  0.00142122  0.62350359  0.62598611  1
  V  V36  1  0.75113850  0.62194008  0.37451018  1
  V  V37  1  0.61818115  -0.00009218  0.62476102  1
  V  V38  1  0.36520986  0.87391779  0.01603720  1
  V  V39  1  0.49419451  0.75055078  0.24763653  1
  V  V40  1  0.48275009  0.89769812  0.87698640  1
  V  V41  1  0.25357862  0.23997816  0.50475734  1
  V  V42  1  0.36138754  0.36705386  0.00184846  1
  V  V43  1  0.24855392  0.49953408  0.75111769  1
  V  V44  1  0.74920504  0.74463286  -0.00435470  1
  V  V45  1  0.61326041  -0.00094399  0.12006788  1
  V  V46  1  0.87661960  0.25728538  0.61850352  1
  V  V47  1  0.75609437  0.37709436  0.12077245  1
  V  V48  1  0.12146733  0.62845828  0.01002764  1
  V  V49  1  0.00189985  0.87588673  0.87564305  1
  V  V50  1  0.50018250  0.14041734  0.13123733  1
  V  V51  1  0.62480421  0.74677497  0.37481296  1
  V  V52  1  0.00598511  0.37347222  0.37318189  1
  V  V53  1  0.00644261  0.00856525  0.01149283  1
  V  V54  1  0.87549410  0.87303254  -0.00236150  1
  V  V55  1  0.12598260  0.49861436  0.62579902  1
  V  V56  1  0.87557770  0.87530033  0.50181528  1
  V  V57  1  0.25007675  0.63019255  0.88138054  1
  V  V58  1  0.26281911  0.00793854  0.75233480  1
  V  V59  1  0.87289655  0.49576217  0.87587327  1
  V  V60  1  0.50338492  0.62138440  0.62719478  1
  V  V61  1  0.48919783  0.62803813  0.12489487  1
  V  V62  1  0.00024910  0.24855006  0.75038436  1
  V  V63  1  0.26161348  0.12141080  0.88484511  1
  V  V64  1  0.25116659  0.87219920  0.62326597  1
  V  V65  1  0.49881926  0.37055325  0.37292061  1
  V  V66  1  0.62131431  0.62772760  0.00136175  1
  V  V67  1  0.00225178  0.75493285  0.26180651  1
  V  V68  1  0.00016161  0.12692758  0.62109737  1
  V  V69  1  0.61585755  0.12351519  -0.00476017  1
  V  V70  1  -0.00149081  0.49344187  0.50082338  1
  V  V71  1  0.48932995  0.12660071  0.62194942  1
  V  V72  1  0.25796925  0.37106370  0.62467200  1
  V  V73  1  0.12850891  0.75173483  0.88003701  1
  V  V74  1  0.13040124  0.62942592  0.50015484  1
  V  V75  1  0.62086101  0.37271982  0.24571692  1
  V  V76  1  0.35871267  0.25406087  0.13124296  1
  V  V77  1  0.00157089  0.00253555  0.49585226  1
  V  V78  1  0.50053176  0.37339185  0.87258767  1
  V  V79  1  0.13192128  0.49087475  0.12605436  1
  V  V80  1  0.88309379  0.74363502  0.12211722  1
  V  V81  1  0.48170815  0.24779091  0.74393787  1
  V  V82  1  0.87745763  0.00042794  0.87329079  1
  V  V83  1  0.50827740  0.49506967  0.50570779  1
  V  V84  1  0.12366182  0.23354478  0.38232069  1
  Zn  Zn85  1  0.75034784  0.49986006  0.24846133  1
  Zn  Zn86  1  0.06509949  0.92673849  0.32389593  1
  Zn  Zn87  1  0.00786829  0.24385327  0.24127350  1
  Zn  Zn88  1  0.62481497  0.87247230  0.24794433  1
  Zn  Zn89  1  0.87392283  0.75043091  0.62615985  1
  Zn  Zn90  1  0.37666508  0.12990821  0.25577180  1
  Zn  Zn91  1  0.13285265  0.36964949  0.24929214  1
  Zn  Zn92  1  0.25328581  0.49878619  0.24908317  1
  Zn  Zn93  1  0.23061400  0.00162249  0.24609554  1
  Zn  Zn94  1  0.63081838  0.61963028  0.50628373  1
  Zn  Zn95  1  0.13413702  0.12487339  0.01916162  1
  Zn  Zn96  1  0.37813506  0.37103273  0.50427689  1
  Zn  Zn97  1  0.62187340  0.12300511  0.49936602  1
  Zn  Zn98  1  0.49581558  0.49715466  0.00168478  1
  Zn  Zn99  1  0.65678624  0.51366288  0.67568661  1
  Zn  Zn100  1  0.24899548  0.11925170  0.37577175  1
  Zn  Zn101  1  0.13383337  0.75658786  0.37310332  1
  Zn  Zn102  1  0.74551101  -0.00472910  0.75244552  1
  Zn  Zn103  1  0.87327546  0.12413144  0.74689075  1
  Zn  Zn104  1  0.37058863  0.62779416  0.24769690  1
  Zn  Zn105  1  0.87586664  0.12263572  0.24233315  1
  Zn  Zn106  1  0.50184036  0.76177572  0.74745011  1
  Zn  Zn107  1  0.19121889  0.18391139  0.19676092  1
  Zn  Zn108  1  0.18834850  0.18675903  0.68996598  1
  Zn  Zn109  1  0.18995744  0.68907576  0.18969127  1
  Zn  Zn110  1  0.18802786  0.68894688  0.68873121  1
  Zn  Zn111  1  0.68883071  0.18763821  0.18647248  1
  Zn  Zn112  1  0.68762522  0.18420766  0.68367630  1
  Zn  Zn113  1  0.68880516  0.68661443  0.18774831  1
  Zn  Zn114  1  0.68513936  0.69406061  0.68650287  1
  Zn  Zn115  1  0.30744826  0.31415454  0.31310599  1
  Zn  Zn116  1  0.30890464  0.30788346  0.81725608  1
  Zn  Zn117  1  0.31330220  0.81612069  0.30960836  1
  Zn  Zn118  1  0.31533572  0.81410136  0.81258131  1
  Zn  Zn119  1  0.81202783  0.31557625  0.30732918  1
  Zn  Zn120  1  0.81656457  0.31123878  0.80992437  1
  Zn  Zn121  1  0.81260130  0.81216088  0.30969697  1
  Zn  Zn122  1  0.81004129  0.80624410  0.81394422  1
  Zn  Zn123  1  0.19068133  0.43868392  0.43856926  1
  Zn  Zn124  1  0.18314690  0.43859534  0.93889934  1
  Zn  Zn125  1  0.19597811  0.94009712  0.44179703  1
  Zn  Zn126  1  0.19424182  0.93951537  0.94429968  1
  Zn  Zn127  1  0.68856720  0.43430916  0.43905842  1
  Zn  Zn128  1  0.68094343  0.43807190  0.93297058  1
  Zn  Zn129  1  0.68585371  0.93757130  0.44277788  1
  Zn  Zn130  1  0.68687368  0.93867372  0.93858525  1
  Zn  Zn131  1  0.31879655  0.05082644  0.06558086  1
  Zn  Zn132  1  0.31563813  0.05809751  0.56058804  1
  Zn  Zn133  1  0.31039940  0.56226438  0.05861238  1
  Zn  Zn134  1  0.31508442  0.55853454  0.55897979  1
  Zn  Zn135  1  0.80806293  0.06239060  0.05581144  1
  Zn  Zn136  1  0.80900923  0.06595527  0.56220358  1
  Zn  Zn137  1  0.80921498  0.56266471  0.05714046  1
  Zn  Zn138  1  0.81609413  0.55990339  0.56165081  1
  Zn  Zn139  1  0.43656506  0.43586707  0.18762364  1
  Zn  Zn140  1  0.43875069  0.43750286  0.69175547  1
  Zn  Zn141  1  0.43710789  0.93587737  0.18612593  1
  Zn  Zn142  1  0.44300467  0.93798956  0.69165156  1
  Zn  Zn143  1  0.94101426  0.43159587  0.18954419  1
  Zn  Zn144  1  0.93533345  0.43439635  0.68949200  1
  Zn  Zn145  1  0.93253036  0.93045059  0.18640541  1
  Zn  Zn146  1  0.93661499  0.93749170  0.68647510  1
  Zn  Zn147  1  0.05753398  0.07021072  0.19626885  1
  Zn  Zn148  1  0.06508777  0.06362942  0.81208338  1
  Zn  Zn149  1  0.06226112  0.56702080  0.31157946  1
  Zn  Zn150  1  0.06148930  0.56221185  0.81667915  1
  Zn  Zn151  1  0.56226132  0.06207438  0.30884954  1
  Zn  Zn152  1  0.56135293  0.06355754  0.80339138  1
  Zn  Zn153  1  0.56183330  0.56014065  0.31131021  1
  Zn  Zn154  1  0.55440031  0.56580859  0.81768827  1
  Zn  Zn155  1  0.43662185  0.18970422  0.44140540  1
  Zn  Zn156  1  0.43700477  0.18796516  0.93993449  1
  Zn  Zn157  1  0.43958756  0.68797967  0.44108091  1
  Zn  Zn158  1  0.43528218  0.69566530  0.94122301  1
  Zn  Zn159  1  0.93746357  0.18326761  0.43295664  1
  Zn  Zn160  1  0.93472245  0.18835811  0.94040475  1
  Zn  Zn161  1  0.93639381  0.68108559  0.43932679  1
  Zn  Zn162  1  0.93769831  0.68218841  0.93242979  1
  Zn  Zn163  1  0.06430323  0.31147410  0.06097103  1
  Zn  Zn164  1  0.06737981  0.31308802  0.56026457  1
  Zn  Zn165  1  0.06091447  0.81364967  0.06345676  1
  Zn  Zn166  1  0.08318526  0.83643151  0.52603645  1
  Zn  Zn167  1  0.56365002  0.31310014  0.05416041  1
  Zn  Zn168  1  0.56899449  0.31232744  0.56505118  1
  Zn  Zn169  1  0.55422554  0.81494857  0.05708778  1
  Zn  Zn170  1  0.56457121  0.81089731  0.56234951  1
  O  O171  1  0.11426143  0.14151539  0.12793843  1
  O  O172  1  0.11550399  0.11737554  0.62854105  1
  O  O173  1  0.12772740  0.62072517  0.11268172  1
  O  O174  1  0.12086342  0.61775374  0.62263278  1
  O  O175  1  0.61628455  0.12289209  0.11832707  1
  O  O176  1  0.61858734  0.11650631  0.62239761  1
  O  O177  1  0.62059451  0.62165377  0.11527255  1
  O  O178  1  0.61933523  0.61712497  0.62836537  1
  O  O179  1  0.38508517  0.38042711  0.37728255  1
  O  O180  1  0.37790769  0.37488983  0.88483240  1
  O  O181  1  0.38448924  0.87731517  0.38445911  1
  O  O182  1  0.38038018  0.88590316  0.87248639  1
  O  O183  1  0.88565163  0.38507058  0.36715170  1
  O  O184  1  0.88589657  0.38148294  0.86959454  1
  O  O185  1  0.86348054  0.88698099  0.38435027  1
  O  O186  1  0.87881721  0.87982084  0.87874268  1
  O  O187  1  0.26357948  0.00051282  0.37622551  1
  O  O188  1  0.24306948  0.00945693  0.86169371  1
  O  O189  1  0.26263067  0.50989703  0.38043750  1
  O  O190  1  0.25168380  0.50791389  0.87065607  1
  O  O191  1  0.75004031  0.00611160  0.36779816  1
  O  O192  1  0.75670002  0.00720582  0.87426124  1
  O  O193  1  0.75898384  0.50128507  0.37450561  1
  O  O194  1  0.76750505  0.49751921  0.88770689  1
  O  O195  1  0.23466862  0.50379148  0.12381069  1
  O  O196  1  0.24549571  0.49319889  0.63099616  1
  O  O197  1  0.26139319  0.97990148  0.13396870  1
  O  O198  1  0.24320296  0.99816580  0.63337717  1
  O  O199  1  0.74203374  0.49217379  0.12161234  1
  O  O200  1  0.75547074  0.48338922  0.62164116  1
  O  O201  1  0.74440909  0.99552198  0.12981294  1
  O  O202  1  0.74402791  0.99385643  0.62834336  1
  O  O203  1  0.00654804  0.36456374  0.25824917  1
  O  O204  1  0.00663330  0.36911552  0.75894083  1
  O  O205  1  -0.00878879  0.86011040  0.25638051  1
  O  O206  1  0.00596516  0.86840014  0.75410527  1
  O  O207  1  0.51281501  0.37857018  0.25730100  1
  O  O208  1  0.49350862  0.36195549  0.76021558  1
  O  O209  1  0.50574491  0.86649465  0.25812526  1
  O  O210  1  0.49859403  0.87654557  0.76931605  1
  O  O211  1  0.49871288  0.12571064  0.23505174  1
  O  O212  1  0.50166809  0.13967027  0.73919417  1
  O  O213  1  0.50078845  0.63153054  0.24153440  1
  O  O214  1  0.49037823  0.62298196  0.73943288  1
  O  O215  1  0.98544606  0.13496581  0.25673256  1
  O  O216  1  0.99857337  0.13005283  0.73857789  1
  O  O217  1  0.98551252  0.63408937  0.25225403  1
  O  O218  1  0.99377336  0.63091457  0.74816324  1
  O  O219  1  0.37763553  0.26119759  0.00960402  1
  O  O220  1  0.35790483  0.25454622  0.49767096  1
  O  O221  1  0.36869818  0.77452205  -0.01812070  1
  O  O222  1  0.37979618  0.75857060  0.51372060  1
  O  O223  1  0.86102697  0.24932411  0.00702082  1
  O  O224  1  0.86745075  0.24534611  0.50593631  1
  O  O225  1  0.87173975  0.74909568  0.00404902  1
  O  O226  1  0.87157293  0.75773681  0.50117883  1
  O  O227  1  0.13766073  0.25610952  0.49030527  1
  O  O228  1  0.12167851  0.24704343  0.98687728  1
  O  O229  1  0.11889087  0.73157648  0.50191949  1
  O  O230  1  0.11356754  0.74285255  0.98787896  1
  O  O231  1  0.63419308  0.25095241  0.48607653  1
  O  O232  1  0.63180165  0.24181183  0.98826971  1
  O  O233  1  0.63149719  0.74493808  0.48956230  1
  O  O234  1  0.62871191  0.74497463  0.99364839  1
  O  O235  1  0.50298902  0.24148195  0.12412222  1
  O  O236  1  0.50438052  0.24513348  0.63732990  1
  O  O237  1  0.51112210  0.73998593  0.13607316  1
  O  O238  1  0.49649456  0.74058144  0.62843858  1
  O  O239  1  0.97941350  0.26105644  0.11989786  1
  O  O240  1  0.99552380  0.24556109  0.62546089  1
  O  O241  1  0.98633351  0.75375156  0.13364102  1
  O  O242  1  1.00095351  0.74423077  0.63916377  1
  O  O243  1  0.01176081  0.25746371  0.38561079  1
  O  O244  1  0.00351919  0.25544777  0.87205215  1
  O  O245  1  -0.00442516  0.74534696  0.36361461  1
  O  O246  1  0.00641355  0.75468989  0.86504204  1
  O  O247  1  0.50809888  0.26187526  0.37975431  1
  O  O248  1  0.50447595  0.25201720  0.86359270  1
  O  O249  1  0.50932213  0.75510399  0.37132772  1
  O  O250  1  0.51129925  0.75257145  0.87177178  1
  O  O251  1  0.25240203  0.13658397  0.50230918  1
  O  O252  1  0.24902324  0.11093831  0.98840624  1
  O  O253  1  0.24156677  0.61985122  0.49436515  1
  O  O254  1  0.24059125  0.62298132  0.98766133  1
  O  O255  1  0.74612613  0.13622257  0.49105046  1
  O  O256  1  0.74064631  0.13320810  0.98773577  1
  O  O257  1  0.75181354  0.63076327  0.49383810  1
  O  O258  1  0.73723695  0.62667362  0.98833060  1
  O  O259  1  0.26272732  0.37489270  -0.00642300  1
  O  O260  1  0.25173521  0.36870379  0.51025530  1
  O  O261  1  0.25472475  0.87765321  0.01740575  1
  O  O262  1  0.26234439  0.87806043  0.51682729  1
  O  O263  1  0.73944136  0.36476142  0.00589739  1
  O  O264  1  0.74861185  0.36319712  0.50781442  1
  O  O265  1  0.75694042  0.86624664  0.00101509  1
  O  O266  1  0.75908364  0.87109276  0.50876497  1
  O  O267  1  0.11697098  0.50524356  0.23025177  1
  O  O268  1  0.12938373  0.49462503  0.74724056  1
  O  O269  1  0.11700376  0.99949294  0.25990588  1
  O  O270  1  0.12682282  0.99273750  0.73896842  1
  O  O271  1  0.62792565  0.49206313  0.24183652  1
  O  O272  1  0.65693833  0.53365071  0.78707138  1
  O  O273  1  0.63501237  0.99893202  0.24029925  1
  O  O274  1  0.62981600  1.00330219  0.73253003  1
  O  O275  1  0.38426483  -0.00196474  0.26622820  1
  O  O276  1  0.36031145  0.00138621  0.74383984  1
  O  O277  1  0.38045150  0.50386017  0.26392414  1
  O  O278  1  0.36716001  0.50631646  0.75785174  1
  O  O279  1  0.86281464  -0.00377046  0.25654579  1
  O  O280  1  0.87327861  0.00104625  0.76240098  1
  O  O281  1  0.87523669  0.50531160  0.25430774  1
  O  O282  1  0.88242080  0.50925722  0.76038435  1
  O  O283  1  0.11244169  0.37889342  0.37729451  1
  O  O284  1  0.11946714  0.36727039  0.87046563  1
  O  O285  1  0.11677432  0.86538458  0.40780548  1
  O  O286  1  0.12311650  0.86862818  0.87185175  1
  O  O287  1  0.62071344  0.36918827  0.36625568  1
  O  O288  1  0.61254159  0.36493974  0.87729122  1
  O  O289  1  0.62096410  0.86616253  0.37607924  1
  O  O290  1  0.62117533  0.86374748  0.88195154  1
  O  O291  1  0.38644423  0.13907373  0.12049956  1
  O  O292  1  0.39035239  0.12090504  0.62193628  1
  O  O293  1  0.38561874  0.62132615  0.12458987  1
  O  O294  1  0.38022426  0.63091894  0.62740738  1
  O  O295  1  0.86531024  0.13988511  0.12013264  1
  O  O296  1  0.88041922  0.13567074  0.62631056  1
  O  O297  1  0.86652159  0.63229081  0.13187802  1
  O  O298  1  0.88450015  0.62599808  0.63138298  1
  O  O299  1  0.26121185  0.24965800  0.12500341  1
  O  O300  1  0.24149452  0.25650197  0.61421200  1
  O  O301  1  0.24525911  0.76824540  0.13189587  1
  O  O302  1  0.26019363  0.76022062  0.63317040  1
  O  O303  1  0.75158064  0.25679580  0.11405958  1
  O  O304  1  0.75551626  0.25714431  0.61744055  1
  O  O305  1  0.75594018  0.75257929  0.11622503  1
  O  O306  1  0.74914921  0.75886052  0.61577113  1
  O  O307  1  0.24045041  0.24769719  0.38795330  1
  O  O308  1  0.24141649  0.23110384  0.86948965  1
  O  O309  1  0.25239555  0.73704667  0.37201780  1
  O  O310  1  0.23846241  0.74266686  0.86550569  1
  O  O311  1  0.74767849  0.24489702  0.37833655  1
  O  O312  1  0.74445832  0.24632213  0.87823033  1
  O  O313  1  0.74478756  0.74464717  0.37907243  1
  O  O314  1  0.73600766  0.73938230  0.87679934  1
  O  O315  1  -0.00176326  0.10910603  -0.00476015  1
  O  O316  1  -0.00598529  0.11594703  0.51190407  1
  O  O317  1  0.01023218  0.61335277  -0.00893077  1
  O  O318  1  0.00564605  0.61355658  0.50653428  1
  O  O319  1  0.51033824  0.12997803  0.00909937  1
  O  O320  1  0.50531665  0.13737481  0.51776025  1
  O  O321  1  0.50350735  0.62662762  0.00793317  1
  O  O322  1  0.50289915  0.61773521  0.51376656  1
  O  O323  1  0.50064575  0.37907101  0.49581460  1
  O  O324  1  0.49152222  0.37390874  0.98641648  1
  O  O325  1  0.49404857  0.86862880  0.49169362  1
  O  O326  1  0.49172805  0.87221740  0.98206750  1
  O  O327  1  1.00388336  0.38757814  0.49549271  1
  O  O328  1  1.00530965  0.38430066  0.98757576  1
  O  O329  1  0.98175284  0.88750657  0.51317308  1
  O  O330  1  0.99320190  0.88385468  0.99439826  1
  O  O331  1  0.49735843  0.48966543  0.38215349  1
  O  O332  1  0.48854608  0.48983435  0.87483363  1
  O  O333  1  0.50237696  0.98640663  0.37393086  1
  O  O334  1  0.50427762  0.99537107  0.87542351  1
  O  O335  1  0.99521240  0.49451536  0.38010626  1
  O  O336  1  0.99361122  0.49228608  0.88208889  1
  O  O337  1  0.98766411  0.99643291  0.38949766  1
  O  O338  1  0.99331756  0.99397449  0.87885476  1
  O  O339  1  -0.00957633  -0.00051955  0.11448500  1
  O  O340  1  0.00439600  0.00848585  0.62068580  1
  O  O341  1  0.00587297  0.49389959  0.11328497  1
  O  O342  1  0.00410968  0.50175545  0.61924586  1
  O  O343  1  0.51099914  0.00997019  0.12857925  1
  O  O344  1  0.50833870  0.01262939  0.62981091  1
  O  O345  1  0.50602689  0.50898924  0.12403751  1
  O  O346  1  0.50016357  0.50496765  0.62059664  1
  O  O347  1  0.24387264  0.38723782  0.25881218  1
  O  O348  1  0.24413582  0.37749605  0.74644899  1
  O  O349  1  0.24641508  0.87823425  0.24395119  1
  O  O350  1  0.24625700  0.88641949  0.74234284  1
  O  O351  1  0.73819807  0.37781644  0.23976262  1
  O  O352  1  0.75190142  0.36935151  0.73487249  1
  O  O353  1  0.74610731  0.88059526  0.24058770  1
  O  O354  1  0.75373389  0.87200503  0.73695547  1
  O  O355  1  0.26022578  0.11795457  0.25790422  1
  O  O356  1  0.24582923  0.11235826  0.75695386  1
  O  O357  1  0.25209807  0.61809277  0.25977444  1
  O  O358  1  0.25363286  0.62013028  0.75956009  1
  O  O359  1  0.75298750  0.11629662  0.25582000  1
  O  O360  1  0.75166112  0.12610999  0.76267582  1
  O  O361  1  0.76067205  0.62294185  0.25676974  1
  O  O362  1  0.76711368  0.63521452  0.74548629  1
  O  O363  1  0.38066675  0.11433736  0.37748720  1
  O  O364  1  0.36067249  0.12778108  0.87878597  1
  O  O365  1  0.37113839  0.61788120  0.37860148  1
  O  O366  1  0.36688880  0.62175557  0.87363032  1
  O  O367  1  0.86149182  0.11210311  0.37733882  1
  O  O368  1  0.86660622  0.11764617  0.87470565  1
  O  O369  1  0.87033518  0.61271943  0.36764504  1
  O  O370  1  0.86487219  0.61598931  0.86606375  1
  O  O371  1  0.12420371  0.38731287  0.12444925  1
  O  O372  1  0.13313048  0.38053203  0.63281588  1
  O  O373  1  0.12902908  0.87669056  0.12708175  1
  O  O374  1  0.13527809  0.88060871  0.62569409  1
  O  O375  1  0.62911140  0.37762611  0.12898972  1
  O  O376  1  0.63897492  0.38278311  0.62896340  1
  O  O377  1  0.62790822  0.88375659  0.12090331  1
  O  O378  1  0.63122819  0.88667811  0.61977009  1
  O  O379  1  0.12665482  0.25192328  0.27197171  1
  O  O380  1  0.11827370  0.25335869  0.75948260  1
  O  O381  1  0.10525567  0.74071102  0.25493162  1
  O  O382  1  0.11868695  0.75545711  0.75844745  1
  O  O383  1  0.63199588  0.25685859  0.26193461  1
  O  O384  1  0.62225339  0.24682043  0.75873680  1
  O  O385  1  0.62080804  0.74885217  0.26219518  1
  O  O386  1  0.62187791  0.74688808  0.76578613  1
  O  O387  1  0.37378586  0.25247930  0.23538659  1
  O  O388  1  0.38349525  0.24896809  0.74934972  1
  O  O389  1  0.39124017  0.74626982  0.25839668  1
  O  O390  1  0.37837858  0.74443145  0.73985526  1
  O  O391  1  0.86526652  0.24998358  0.22942347  1
  O  O392  1  0.88443699  0.24668347  0.74080397  1
  O  O393  1  0.88007579  0.74276236  0.24284794  1
  O  O394  1  0.88521467  0.74220614  0.75104455  1
  O  O395  1  0.38916787  0.49625478  0.49135299  1
  O  O396  1  0.37522286  0.48706015  0.99618597  1
  O  O397  1  0.37735885  0.98671371  0.49292033  1
  O  O398  1  0.37660365  0.97688707  1.00072997  1
  O  O399  1  0.88597146  0.50386422  0.48817232  1
  O  O400  1  0.88621347  0.50661475  0.99217608  1
  O  O401  1  0.87649688  0.99515578  0.49485983  1
  O  O402  1  0.88037178  0.99546842  0.98945039  1
  O  O403  1  0.10856437  0.00160005  -0.00180413  1
  O  O404  1  0.11442795  -0.00482489  0.51354467  1
  O  O405  1  0.11816542  0.50633057  0.00954837  1
  O  O406  1  0.11877322  0.50801169  0.50702629  1
  O  O407  1  0.63335352  0.01234156  0.00904140  1
  O  O408  1  0.63089080  0.00511947  0.51701006  1
  O  O409  1  0.61826300  0.50995472  0.00321190  1
  O  O410  1  0.61301171  0.50121606  0.49528872  1
  O  O411  1  0.38063041  0.36400982  0.11395883  1
  O  O412  1  0.36109428  0.37978583  0.62711328  1
  O  O413  1  0.38410396  0.86429505  0.11715483  1
  O  O414  1  0.37430505  0.86972435  0.62164722  1
  O  O415  1  0.85948568  0.37018264  0.12683090  1
  O  O416  1  0.86889629  0.36256586  0.62661440  1
  O  O417  1  0.86630000  0.86416477  0.11634866  1
  O  O418  1  0.86501181  0.87392274  0.61946270  1
  O  O419  1  0.12406759  0.13631652  0.38484295  1
  O  O420  1  0.13139811  0.12997922  0.87868130  1
  O  O421  1  0.13447343  0.62372908  0.38376187  1
  O  O422  1  0.13144637  0.63230563  0.88102523  1
  O  O423  1  0.63278485  0.13139016  0.37356082  1
  O  O424  1  0.62935381  0.13018228  0.87869676  1
  O  O425  1  0.63275267  0.63003666  0.37593106  1
  O  O426  1  0.61732125  0.63818861  0.88988152  1
