# generated using pymatgen
data_V85Zn86O256
_symmetry_space_group_name_H-M   'P 1'
_cell_length_a   16.92597994
_cell_length_b   16.92347366
_cell_length_c   16.91988108
_cell_angle_alpha   89.96009763
_cell_angle_beta   90.06755468
_cell_angle_gamma   90.01019063
_symmetry_Int_Tables_number   1
_chemical_formula_structural   V85Zn86O256
_chemical_formula_sum   'V85 Zn86 O256'
_cell_volume   4846.63399428
_cell_formula_units_Z   1
loop_
 _symmetry_equiv_pos_site_id
 _symmetry_equiv_pos_as_xyz
  1  'x, y, z'
loop_
 _atom_site_type_symbol
 _atom_site_label
 _atom_site_symmetry_multiplicity
 _atom_site_fract_x
 _atom_site_fract_y
 _atom_site_fract_z
 _atom_site_occupancy
  V  V0  1  0.74100944  0.00086551  0.24664982  1
  V  V1  1  0.49617117  0.62835234  0.62342771  1
  V  V2  1  0.12734835  0.37820121  0.74769297  1
  V  V3  1  0.37528913  0.63238042  0.75175782  1
  V  V4  1  0.62116006  0.76504138  0.87258578  1
  V  V5  1  0.87541678  0.24996658  0.12355147  1
  V  V6  1  0.87595014  0.12262080  0.25098019  1
  V  V7  1  0.75175698  0.12301916  0.87442946  1
  V  V8  1  0.25363433  -0.00041979  0.75462162  1
  V  V9  1  0.63070993  0.12479619  0.50441943  1
  V  V10  1  0.12382296  -0.00135305  0.12553742  1
  V  V11  1  0.50159918  0.87323681  0.37439414  1
  V  V12  1  -0.00503822  -0.00001543  -0.00596596  1
  V  V13  1  0.75329447  0.74915876  0.50874631  1
  V  V14  1  0.37499939  0.37135442  -0.00064940  1
  V  V15  1  -0.01259963  0.74977978  0.74832166  1
  V  V16  1  0.87269869  0.86947123  0.51192083  1
  V  V17  1  0.11892555  0.37818547  0.25148767  1
  V  V18  1  0.74821673  0.61277847  0.37161253  1
  V  V19  1  0.49994235  0.49914951  -0.00018034  1
  V  V20  1  0.25670627  0.86742656  0.62370419  1
  V  V21  1  0.25304043  0.13275086  0.38042527  1
  V  V22  1  0.87438781  0.37569790  -0.00061657  1
  V  V23  1  0.87553498  0.87345919  -0.00118737  1
  V  V24  1  0.12811493  0.12879850  0.50050754  1
  V  V25  1  0.50406140  0.12626773  0.62594785  1
  V  V26  1  -0.00832761  0.75116953  0.24074418  1
  V  V27  1  0.37750123  0.12329545  0.75134921  1
  V  V28  1  0.75378660  -0.01635447  0.75329448  1
  V  V29  1  0.63174492  0.50105581  0.62766201  1
  V  V30  1  0.49106880  0.37231134  0.38250809  1
  V  V31  1  0.75104126  0.12514731  0.37592018  1
  V  V32  1  0.25541592  0.37099135  0.12990263  1
  V  V33  1  0.36998694  0.50453354  0.87579872  1
  V  V34  1  0.49970667  0.25188688  0.23953599  1
  V  V35  1  0.00086389  0.12492401  0.12565435  1
  V  V36  1  0.63229873  0.37901413  0.75515128  1
  V  V37  1  -0.00236459  0.00006999  0.49866269  1
  V  V38  1  0.50961096  0.24797001  0.75535775  1
  V  V39  1  0.37446674  0.13275893  0.24540439  1
  V  V40  1  0.12473045  0.63744130  0.49069960  1
  V  V41  1  0.11973237  0.25515394  0.37657646  1
  V  V42  1  0.12231827  0.87395939  0.75112591  1
  V  V43  1  0.24957649  0.00084777  0.25026896  1
  V  V44  1  0.49927466  -0.00696175  -0.01936157  1
  V  V45  1  0.74726146  0.62088125  0.86653669  1
  V  V46  1  0.74914271  0.37726960  0.13169705  1
  V  V47  1  0.00148797  0.37490402  0.87627102  1
  V  V48  1  0.63232861  -0.01416143  0.62942827  1
  V  V49  1  0.50147301  0.36973511  0.87683386  1
  V  V50  1  0.75485571  0.74768867  0.00650479  1
  V  V51  1  0.87068584  0.49993307  0.86298288  1
  V  V52  1  0.12416118  0.50257562  0.12304050  1
  V  V53  1  0.50143711  0.76131746  0.74992399  1
  V  V54  1  0.12249361  0.50237808  0.61305173  1
  V  V55  1  0.25461991  0.24845197  0.00446352  1
  V  V56  1  0.12709816  0.86584812  0.25596236  1
  V  V57  1  -0.00644387  0.62647487  0.61942744  1
  V  V58  1  0.25933966  0.50532411  0.24713770  1
  V  V59  1  0.89214701  0.37991472  0.49842160  1
  V  V60  1  0.62439108  0.25194433  0.37337068  1
  V  V61  1  0.86871202  0.62423184  0.24208170  1
  V  V62  1  0.25606087  0.12276389  0.87746595  1
  V  V63  1  -0.00054718  0.50632478  -0.00294934  1
  V  V64  1  0.62345762  0.12145059  0.00142156  1
  V  V65  1  0.50005006  0.10882161  0.12537011  1
  V  V66  1  0.87523325  0.12432239  0.75143196  1
  V  V67  1  0.62338507  0.62498373  -0.00270852  1
  V  V68  1  0.37168913  0.50584131  0.38622967  1
  V  V69  1  0.13313473  0.74612798  0.87560126  1
  V  V70  1  0.89150398  0.49523219  0.36972083  1
  V  V71  1  0.62759803  0.50082588  0.13274189  1
  V  V72  1  0.49430639  0.62877170  0.13053827  1
  V  V73  1  0.13977266  0.62806034  -0.00423052  1
  V  V74  1  0.37298660  0.87398613  -0.01230507  1
  V  V75  1  0.62876273  0.74917524  0.37158805  1
  V  V76  1  0.12623881  0.00092729  0.62517358  1
  V  V77  1  0.37562398  -0.00208234  0.37906351  1
  V  V78  1  0.74311051  0.24960801  -0.00408654  1
  V  V79  1  0.24771742  0.50979993  0.74982396  1
  V  V80  1  0.12981953  0.25017807  0.87569173  1
  V  V81  1  0.74848371  0.87671357  0.12562322  1
  V  V82  1  -0.00077077  0.86466614  0.37689238  1
  V  V83  1  0.75171463  0.25836409  0.50215041  1
  V  V84  1  0.25215926  0.86813948  0.12109794  1
  Zn  Zn85  1  0.37221971  0.25446394  0.60162858  1
  Zn  Zn86  1  -0.00476498  0.87548093  0.87361082  1
  Zn  Zn87  1  0.25918207  0.37718180  0.60185416  1
  Zn  Zn88  1  -0.00528702  0.63179945  0.11880007  1
  Zn  Zn89  1  0.25215903  0.63849291  0.36318846  1
  Zn  Zn90  1  0.25274115  0.75392918  0.48645156  1
  Zn  Zn91  1  0.62256961  0.87663529  0.24334180  1
  Zn  Zn92  1  0.62664266  0.37838993  0.25349370  1
  Zn  Zn93  1  0.87244668  -0.00388341  0.37623352  1
  Zn  Zn94  1  0.75494492  0.37987595  0.63097124  1
  Zn  Zn95  1  0.49687710  0.49612694  0.50547068  1
  Zn  Zn96  1  0.87847341  0.25255933  0.62631574  1
  Zn  Zn97  1  0.49309964  0.74676753  0.25396114  1
  Zn  Zn98  1  -0.00205793  0.12760614  0.62478035  1
  Zn  Zn99  1  0.37000162  0.74928133  0.12282394  1
  Zn  Zn100  1  0.62253108  0.62247108  0.49924283  1
  Zn  Zn101  1  0.00047205  0.24900537  0.74971622  1
  Zn  Zn102  1  0.12599990  0.12398950  0.00103402  1
  Zn  Zn103  1  0.50398106  -0.00199534  0.50257137  1
  Zn  Zn104  1  -0.00202780  0.25528698  0.25178233  1
  Zn  Zn105  1  0.86637593  0.62428099  0.73772529  1
  Zn  Zn106  1  0.38252023  0.86519281  0.50558340  1
  Zn  Zn107  1  0.18763127  0.18950296  0.19065091  1
  Zn  Zn108  1  0.18789793  0.18912833  0.68600850  1
  Zn  Zn109  1  0.18318000  0.68823817  0.18452665  1
  Zn  Zn110  1  0.18153695  0.68713687  0.68798592  1
  Zn  Zn111  1  0.68497035  0.18652245  0.18357478  1
  Zn  Zn112  1  0.69159453  0.19020277  0.68791499  1
  Zn  Zn113  1  0.68510558  0.68798989  0.18831944  1
  Zn  Zn114  1  0.68087955  0.68952529  0.68830080  1
  Zn  Zn115  1  0.31084575  0.31574991  0.43068381  1
  Zn  Zn116  1  0.31727279  0.31604702  0.74540096  1
  Zn  Zn117  1  0.31701164  0.80706353  0.31029593  1
  Zn  Zn118  1  0.31213441  0.81181226  0.81005820  1
  Zn  Zn119  1  0.81487588  0.31274859  0.31401685  1
  Zn  Zn120  1  0.81262960  0.30788650  0.81529464  1
  Zn  Zn121  1  0.81266348  0.81084865  0.31608062  1
  Zn  Zn122  1  0.81207981  0.80868022  0.82131907  1
  Zn  Zn123  1  0.17974400  0.44608398  0.43055991  1
  Zn  Zn124  1  0.19020593  0.43812079  0.93655221  1
  Zn  Zn125  1  0.18704243  0.93860823  0.43708320  1
  Zn  Zn126  1  0.18537983  0.93495032  0.93729856  1
  Zn  Zn127  1  0.68301656  0.43722382  0.44024594  1
  Zn  Zn128  1  0.68639038  0.43794613  0.94001116  1
  Zn  Zn129  1  0.68911497  0.93513343  0.43851029  1
  Zn  Zn130  1  0.68886165  0.94165173  0.94064844  1
  Zn  Zn131  1  0.31683491  0.05657193  0.06196265  1
  Zn  Zn132  1  0.31454643  0.06171359  0.56458630  1
  Zn  Zn133  1  0.31411243  0.56027393  0.06223671  1
  Zn  Zn134  1  0.30849881  0.56973938  0.56507036  1
  Zn  Zn135  1  0.81277344  0.05967640  0.06388529  1
  Zn  Zn136  1  0.81312272  0.06133590  0.56675612  1
  Zn  Zn137  1  0.81077717  0.56054123  0.05829319  1
  Zn  Zn138  1  0.81130036  0.55942844  0.55567839  1
  Zn  Zn139  1  0.43763712  0.43573404  0.18845690  1
  Zn  Zn140  1  0.44189882  0.44202364  0.68925022  1
  Zn  Zn141  1  0.43334427  0.93378750  0.19115002  1
  Zn  Zn142  1  0.43844678  0.94304031  0.68942782  1
  Zn  Zn143  1  0.93643994  0.44247432  0.18553121  1
  Zn  Zn144  1  0.94275922  0.43805554  0.68395115  1
  Zn  Zn145  1  0.93229607  0.93568051  0.18407510  1
  Zn  Zn146  1  0.93628258  0.93971380  0.68740446  1
  Zn  Zn147  1  0.06191976  0.05987383  0.31474640  1
  Zn  Zn148  1  0.06540170  0.06305139  0.81423682  1
  Zn  Zn149  1  0.06236441  0.56759944  0.30745490  1
  Zn  Zn150  1  0.05903201  0.56701664  0.80939292  1
  Zn  Zn151  1  0.56187965  0.06289514  0.31470637  1
  Zn  Zn152  1  0.57267525  0.06109424  0.81238152  1
  Zn  Zn153  1  0.55923554  0.56026301  0.31514900  1
  Zn  Zn154  1  0.55862265  0.56211000  0.81103797  1
  Zn  Zn155  1  0.44494136  0.18162250  0.43409156  1
  Zn  Zn156  1  0.43718314  0.18656737  0.93669285  1
  Zn  Zn157  1  0.43275254  0.68845176  0.44022600  1
  Zn  Zn158  1  0.43690717  0.69129325  0.93762865  1
  Zn  Zn159  1  0.93857730  0.18923255  0.43792473  1
  Zn  Zn160  1  0.93651377  0.18584982  0.93636895  1
  Zn  Zn161  1  0.93575409  0.68451997  0.43470903  1
  Zn  Zn162  1  0.93632471  0.68860500  0.93105836  1
  Zn  Zn163  1  0.06530314  0.31360285  0.06332452  1
  Zn  Zn164  1  0.06701274  0.31010378  0.56615783  1
  Zn  Zn165  1  0.06393872  0.81215254  0.06125549  1
  Zn  Zn166  1  0.06220232  0.81192832  0.56657360  1
  Zn  Zn167  1  0.56392602  0.30937542  0.06340200  1
  Zn  Zn168  1  0.56334673  0.31290266  0.56582883  1
  Zn  Zn169  1  0.56373834  0.81520901  0.05900422  1
  Zn  Zn170  1  0.56297555  0.80763959  0.55875999  1
  O  O171  1  0.11924543  0.11690668  0.12639739  1
  O  O172  1  0.12481115  0.11983559  0.61790625  1
  O  O173  1  0.11903744  0.62087746  0.11272993  1
  O  O174  1  0.11774682  0.61990249  0.61647299  1
  O  O175  1  0.61697377  0.12554256  0.11116201  1
  O  O176  1  0.62176578  0.12134035  0.62160555  1
  O  O177  1  0.62083133  0.61847820  0.11508962  1
  O  O178  1  0.61676916  0.61636648  0.62619784  1
  O  O179  1  0.38125382  0.38950138  0.37055187  1
  O  O180  1  0.38839541  0.38456387  0.87993418  1
  O  O181  1  0.38400065  0.88361451  0.37578658  1
  O  O182  1  0.36782489  0.87513852  0.88843008  1
  O  O183  1  0.87433576  0.38684006  0.38027368  1
  O  O184  1  0.87996525  0.38071832  0.88008676  1
  O  O185  1  0.88444921  0.87680886  0.38306338  1
  O  O186  1  0.87610274  0.87372621  0.89164342  1
  O  O187  1  0.25589584  0.00769817  0.36930078  1
  O  O188  1  0.24109255  0.00766972  0.86302472  1
  O  O189  1  0.25883396  0.50498898  0.36305976  1
  O  O190  1  0.26273477  0.50036074  0.87070600  1
  O  O191  1  0.75220491  0.00759058  0.36869157  1
  O  O192  1  0.74493158  0.00592807  0.86068471  1
  O  O193  1  0.75076475  0.51023464  0.37799106  1
  O  O194  1  0.75895997  0.50850371  0.88346640  1
  O  O195  1  0.24605892  0.49528256  0.13133074  1
  O  O196  1  0.24104069  0.49864316  0.63413019  1
  O  O197  1  0.24123577  0.99535418  0.13070317  1
  O  O198  1  0.24466303  0.99725688  0.63716532  1
  O  O199  1  0.74015795  0.48889831  0.11621344  1
  O  O200  1  0.73719659  0.49935813  0.62239408  1
  O  O201  1  0.75207387  0.99164432  0.13468171  1
  O  O202  1  0.74040583  1.00123155  0.63717888  1
  O  O203  1  0.01398551  0.37471180  0.23806746  1
  O  O204  1  0.01242515  0.37710284  0.75811623  1
  O  O205  1  0.00190973  0.87022056  0.25595227  1
  O  O206  1  0.00381490  0.86895026  0.74993325  1
  O  O207  1  0.50044062  0.36559743  0.25600116  1
  O  O208  1  0.50787224  0.36591653  0.75922930  1
  O  O209  1  0.50484798  0.87759433  0.26278581  1
  O  O210  1  0.49205735  0.86079572  0.74541352  1
  O  O211  1  0.49619925  0.12776548  0.24226888  1
  O  O212  1  0.49972351  0.12749827  0.74698363  1
  O  O213  1  0.50504949  0.62335043  0.23311491  1
  O  O214  1  0.49229667  0.63241214  0.74483972  1
  O  O215  1  0.99184524  0.12357807  0.24390042  1
  O  O216  1  0.98533083  0.12017754  0.75451881  1
  O  O217  1  0.99135918  0.63491633  0.24669361  1
  O  O218  1  0.99437547  0.63339722  0.74045527  1
  O  O219  1  0.36207118  0.25429037  -0.00477399  1
  O  O220  1  0.37423933  0.24465565  0.49055364  1
  O  O221  1  0.38255685  0.76854497  0.00476377  1
  O  O222  1  0.36636104  0.75330841  0.50094444  1
  O  O223  1  0.86876272  0.25637066  0.00480201  1
  O  O224  1  0.87034540  0.26440985  0.49633865  1
  O  O225  1  0.86485136  0.75457144  -0.00414372  1
  O  O226  1  0.86200476  0.75375177  0.49415631  1
  O  O227  1  0.12132881  0.23668293  0.49350698  1
  O  O228  1  0.13633359  0.24850754  0.99465476  1
  O  O229  1  0.12867056  0.74037783  0.50299220  1
  O  O230  1  0.11800729  0.74267832  0.98551147  1
  O  O231  1  0.63389586  0.24596455  0.49628279  1
  O  O232  1  0.63377556  0.23976774  1.00358963  1
  O  O233  1  0.63609764  0.74740573  0.48887542  1
  O  O234  1  0.62885450  0.74247960  0.98974541  1
  O  O235  1  0.50383297  0.24011581  0.13582446  1
  O  O236  1  0.50048895  0.23858532  0.63336806  1
  O  O237  1  0.50800872  0.73411976  0.12258670  1
  O  O238  1  0.51127502  0.73808121  0.63529406  1
  O  O239  1  0.99406002  0.24293458  0.12463387  1
  O  O240  1  0.99809871  0.24583142  0.63105604  1
  O  O241  1  0.99859815  0.75175586  0.13595262  1
  O  O242  1  1.00589070  0.74012107  0.63663171  1
  O  O243  1  0.01518748  0.24349584  0.37024829  1
  O  O244  1  0.01321163  0.25393150  0.87749960  1
  O  O245  1  -0.00272655  0.76005801  0.36546027  1
  O  O246  1  0.00657224  0.75212637  0.86379888  1
  O  O247  1  0.50568819  0.25493652  0.36401155  1
  O  O248  1  0.50165195  0.25836284  0.87118191  1
  O  O249  1  0.50845368  0.75634065  0.37539689  1
  O  O250  1  0.51490260  0.74601910  0.86891695  1
  O  O251  1  0.24051325  0.11666500  0.49190690  1
  O  O252  1  0.25078040  0.12914835  0.99528012  1
  O  O253  1  0.23441083  0.62788125  0.49949730  1
  O  O254  1  0.23929103  0.62239354  1.00169250  1
  O  O255  1  0.75064971  0.13631780  0.49666364  1
  O  O256  1  0.74373638  0.12734300  0.99699542  1
  O  O257  1  0.74942382  0.63359351  0.48940081  1
  O  O258  1  0.74251634  0.63099983  0.99353738  1
  O  O259  1  0.25398677  0.36748569  0.00669419  1
  O  O260  1  0.23875031  0.37460494  0.49253138  1
  O  O261  1  0.26357786  0.88630897  0.00712458  1
  O  O262  1  0.24605837  0.87838405  0.51589379  1
  O  O263  1  0.75247690  0.36592837  0.00655091  1
  O  O264  1  0.75490419  0.36563229  0.49892711  1
  O  O265  1  0.75508177  0.86895513  0.00485486  1
  O  O266  1  0.75847863  0.85969145  0.49436287  1
  O  O267  1  0.12940588  0.49602842  0.24349694  1
  O  O268  1  0.13143685  0.49932372  0.74587489  1
  O  O269  1  0.12567408  0.99175185  0.24064280  1
  O  O270  1  0.13114070  0.99478688  0.74525829  1
  O  O271  1  0.62139383  0.49876836  0.23662051  1
  O  O272  1  0.61937455  0.48992116  0.74335879  1
  O  O273  1  0.63763290  1.00057711  0.25380392  1
  O  O274  1  0.63910213  1.00132232  0.73905630  1
  O  O275  1  0.37051624  0.00738043  0.26142994  1
  O  O276  1  0.36842674  0.01253289  0.75009343  1
  O  O277  1  0.36191565  0.49763559  0.25274257  1
  O  O278  1  0.36804511  0.50944859  0.75825815  1
  O  O279  1  0.86748137  0.01074723  0.25046778  1
  O  O280  1  0.86039984  0.00602979  0.74514790  1
  O  O281  1  0.87611344  0.50492528  0.26209917  1
  O  O282  1  0.87632648  0.49911659  0.76012416  1
  O  O283  1  0.12565296  0.36780987  0.36329608  1
  O  O284  1  0.12055798  0.36905019  0.87221744  1
  O  O285  1  0.11418598  0.88404501  0.36441594  1
  O  O286  1  0.12091227  0.86474001  0.86982093  1
  O  O287  1  0.61668328  0.36891518  0.37188107  1
  O  O288  1  0.61195188  0.38372707  0.87037930  1
  O  O289  1  0.61990431  0.86752827  0.37302757  1
  O  O290  1  0.62780998  0.86290373  0.88053066  1
  O  O291  1  0.38446110  0.11872517  0.13381054  1
  O  O292  1  0.38682060  0.12474120  0.63330626  1
  O  O293  1  0.39143250  0.62634672  0.11538241  1
  O  O294  1  0.38467328  0.61859070  0.63767040  1
  O  O295  1  0.87973989  0.12986182  0.13177084  1
  O  O296  1  0.87592109  0.12767806  0.63660484  1
  O  O297  1  0.87433052  0.61500551  0.13784632  1
  O  O298  1  0.88798829  0.61534135  0.62076746  1
  O  O299  1  0.24519420  0.25899932  0.11757753  1
  O  O300  1  0.26223861  0.26308037  0.64922273  1
  O  O301  1  0.24534101  0.76480822  0.12361531  1
  O  O302  1  0.24555911  0.76724050  0.63141832  1
  O  O303  1  0.75558083  0.25452366  0.11527039  1
  O  O304  1  0.75572560  0.25623951  0.61602389  1
  O  O305  1  0.74545165  0.75243498  0.11168783  1
  O  O306  1  0.74440827  0.74248787  0.60780285  1
  O  O307  1  0.23871826  0.23591102  0.37165927  1
  O  O308  1  0.23981106  0.24226343  0.88271463  1
  O  O309  1  0.24313919  0.75126804  0.37063612  1
  O  O310  1  0.23231912  0.75180057  0.86919417  1
  O  O311  1  0.74488212  0.24549056  0.38085276  1
  O  O312  1  0.75225819  0.24174618  0.88921463  1
  O  O313  1  0.74363892  0.74016483  0.37996523  1
  O  O314  1  0.73782525  0.74149813  0.88374776  1
  O  O315  1  0.00092518  0.11757101  0.00770450  1
  O  O316  1  0.00629386  0.11559838  0.49925724  1
  O  O317  1  0.00103069  0.61537079  -0.00247427  1
  O  O318  1  0.01128792  0.63371174  0.50638960  1
  O  O319  1  0.50336861  0.11469969  0.00374508  1
  O  O320  1  0.51171218  0.12078387  0.50951295  1
  O  O321  1  0.50842328  0.62050141  0.00536857  1
  O  O322  1  0.50104898  0.62287529  0.51098315  1
  O  O323  1  0.50221829  0.37296928  0.48688013  1
  O  O324  1  0.49623675  0.37712654  0.99665330  1
  O  O325  1  0.50155717  0.87843380  0.48931292  1
  O  O326  1  0.49171807  0.88681287  1.00157935  1
  O  O327  1  0.99066198  0.37256942  0.49981205  1
  O  O328  1  0.99732283  0.38557355  0.99499456  1
  O  O329  1  0.99632320  0.87801196  0.49391244  1
  O  O330  1  0.99195955  0.88208969  1.00312617  1
  O  O331  1  0.48730221  0.49251329  0.37585923  1
  O  O332  1  0.49169371  0.49496198  0.88188309  1
  O  O333  1  0.49329221  0.99459206  0.37828702  1
  O  O334  1  0.50145007  1.00103384  0.88214996  1
  O  O335  1  0.98967472  0.50159324  0.37240727  1
  O  O336  1  0.99227089  0.49680964  0.88002797  1
  O  O337  1  0.99770544  0.99192218  0.38655163  1
  O  O338  1  1.00833530  0.99752412  0.89079405  1
  O  O339  1  0.00623284  0.00433779  0.11969317  1
  O  O340  1  0.00706880  0.00094588  0.61353886  1
  O  O341  1  0.00577265  0.50250598  0.11277383  1
  O  O342  1  0.01326587  0.51158990  0.63104617  1
  O  O343  1  0.50035728  0.00715049  0.12439790  1
  O  O344  1  0.51403673  0.00967978  0.62780947  1
  O  O345  1  0.50552687  0.50805965  0.11915710  1
  O  O346  1  0.50847262  0.50972612  0.62592299  1
  O  O347  1  0.23787921  0.38970535  0.23965295  1
  O  O348  1  0.23453405  0.39265037  0.76278505  1
  O  O349  1  0.24113807  0.88288202  0.24260708  1
  O  O350  1  0.24628974  0.88302995  0.74320489  1
  O  O351  1  0.74876339  0.36741468  0.23534907  1
  O  O352  1  0.73625961  0.36850230  0.75344171  1
  O  O353  1  0.75233628  0.88319746  0.24382381  1
  O  O354  1  0.75585663  0.88502688  0.75465641  1
  O  O355  1  0.25714276  0.12050251  0.25592807  1
  O  O356  1  0.25839548  0.11953074  0.75690337  1
  O  O357  1  0.24095525  0.60968714  0.24571963  1
  O  O358  1  0.25633796  0.61736279  0.74558713  1
  O  O359  1  0.75596630  0.11992746  0.25231551  1
  O  O360  1  0.75790885  0.12355570  0.75867040  1
  O  O361  1  0.75733574  0.62977420  0.25838653  1
  O  O362  1  0.74898418  0.62969023  0.76235957  1
  O  O363  1  0.36908232  0.11702018  0.36806317  1
  O  O364  1  0.36246557  0.12486762  0.87105201  1
  O  O365  1  0.37469025  0.60984584  0.37188344  1
  O  O366  1  0.38201085  0.61605371  0.86802329  1
  O  O367  1  0.86972217  0.12430730  0.36688731  1
  O  O368  1  0.86129501  0.12578069  0.87151807  1
  O  O369  1  0.86933220  0.61134333  0.36847939  1
  O  O370  1  0.86473914  0.61576139  0.87286099  1
  O  O371  1  0.13547824  0.38315854  0.12652102  1
  O  O372  1  0.12542945  0.38562934  0.63365969  1
  O  O373  1  0.13040462  0.88200310  0.13014597  1
  O  O374  1  0.13293541  0.88232623  0.63234791  1
  O  O375  1  0.63157626  0.38269914  0.12523561  1
  O  O376  1  0.62469327  0.38295531  0.63615435  1
  O  O377  1  0.64087658  0.86949427  0.12515061  1
  O  O378  1  0.62245344  0.88817350  0.62133920  1
  O  O379  1  0.12426397  0.25987808  0.25724640  1
  O  O380  1  0.12460209  0.25996907  0.75958723  1
  O  O381  1  0.11459639  0.76200065  0.24466849  1
  O  O382  1  0.11626247  0.75372170  0.75931640  1
  O  O383  1  0.61741832  0.24960665  0.25532915  1
  O  O384  1  0.61566286  0.25575412  0.74822036  1
  O  O385  1  0.62176692  0.75223022  0.26139081  1
  O  O386  1  0.61914959  0.74913619  0.76503127  1
  O  O387  1  0.38566020  0.23398130  0.25422401  1
  O  O388  1  0.39330916  0.23260650  0.75995431  1
  O  O389  1  0.38211152  0.75715521  0.23548860  1
  O  O390  1  0.38264031  0.73934540  0.75713627  1
  O  O391  1  0.87614261  0.23938756  0.24467540  1
  O  O392  1  0.87849708  0.24043241  0.75098151  1
  O  O393  1  0.88088570  0.73848611  0.25497506  1
  O  O394  1  0.88344540  0.74719324  0.75456195  1
  O  O395  1  0.37272574  0.50269177  0.48955043  1
  O  O396  1  0.37979086  0.49320914  0.99360369  1
  O  O397  1  0.37719672  0.99906414  0.48837583  1
  O  O398  1  0.39075551  0.99173914  0.99991375  1
  O  O399  1  0.87276659  0.48729326  0.48580019  1
  O  O400  1  0.88273204  0.49431358  0.99211763  1
  O  O401  1  0.88159522  0.99250110  0.50035181  1
  O  O402  1  0.88514304  0.99149260  1.00583711  1
  O  O403  1  0.11882598  -0.00022221  0.01246852  1
  O  O404  1  0.11755006  0.00889738  0.50362563  1
  O  O405  1  0.11843045  0.50806163  0.00005536  1
  O  O406  1  0.12461007  0.51124834  0.50986220  1
  O  O407  1  0.60979182  0.00493451  -0.00193685  1
  O  O408  1  0.63167562  0.00618264  0.51349325  1
  O  O409  1  0.61877005  0.50714971  0.00823777  1
  O  O410  1  0.61891091  0.50116936  0.51103579  1
  O  O411  1  0.36288195  0.37963142  0.11784554  1
  O  O412  1  0.36952906  0.36757947  0.64802657  1
  O  O413  1  0.36477077  0.88007572  0.11594765  1
  O  O414  1  0.35994582  0.88610800  0.62401046  1
  O  O415  1  0.86780614  0.37248876  0.11879649  1
  O  O416  1  0.87454210  0.37904503  0.61091410  1
  O  O417  1  0.86154736  0.87481096  0.11438766  1
  O  O418  1  0.88077511  0.87353739  0.61119524  1
  O  O419  1  0.13259589  0.12813127  0.38096184  1
  O  O420  1  0.13557442  0.13291599  0.87686114  1
  O  O421  1  0.12444784  0.61961164  0.38895737  1
  O  O422  1  0.12053047  0.63683861  0.88035130  1
  O  O423  1  0.63038553  0.13112259  0.38398242  1
  O  O424  1  0.63778220  0.12195544  0.88775528  1
  O  O425  1  0.63096849  0.62952917  0.37494902  1
  O  O426  1  0.62959966  0.62314426  0.88478592  1
