# generated using pymatgen
data_V85Zn86O256
_symmetry_space_group_name_H-M   'P 1'
_cell_length_a   16.96135220
_cell_length_b   16.96715230
_cell_length_c   16.95949932
_cell_angle_alpha   90.09174160
_cell_angle_beta   89.95745182
_cell_angle_gamma   89.87672963
_symmetry_Int_Tables_number   1
_chemical_formula_structural   V85Zn86O256
_chemical_formula_sum   'V85 Zn86 O256'
_cell_volume   4880.68494539
_cell_formula_units_Z   1
loop_
 _symmetry_equiv_pos_site_id
 _symmetry_equiv_pos_as_xyz
  1  'x, y, z'
loop_
 _atom_site_type_symbol
 _atom_site_label
 _atom_site_symmetry_multiplicity
 _atom_site_fract_x
 _atom_site_fract_y
 _atom_site_fract_z
 _atom_site_occupancy
  V  V0  1  0.74681823  0.13768624  0.36933809  1
  V  V1  1  0.49727864  0.75963307  0.25254794  1
  V  V2  1  0.50569085  0.26193917  0.26101026  1
  V  V3  1  0.00623178  -0.00234127  -0.00314109  1
  V  V4  1  0.38190918  0.87319370  -0.00357798  1
  V  V5  1  0.50649012  0.00068494  0.49118043  1
  V  V6  1  0.12142179  0.87636377  0.24210008  1
  V  V7  1  0.11414120  0.25283623  0.37641740  1
  V  V8  1  -0.00273696  0.00811635  0.50672671  1
  V  V9  1  0.06610151  0.05953902  0.16792029  1
  V  V10  1  0.50016396  0.62215783  0.12645258  1
  V  V11  1  0.01801842  0.86286447  0.86950442  1
  V  V12  1  0.24652898  -0.01068883  0.75082727  1
  V  V13  1  0.50012706  0.49571430  -0.00553006  1
  V  V14  1  0.74882986  0.36447597  0.62197974  1
  V  V15  1  0.50497676  0.12399780  0.12616387  1
  V  V16  1  0.86705150  0.00375737  0.36941697  1
  V  V17  1  0.50204009  0.49322185  0.49865900  1
  V  V18  1  0.87224596  0.87750207  -0.00500706  1
  V  V19  1  0.74771787  0.75461864  -0.00298787  1
  V  V20  1  0.24470470  0.12631315  0.87454892  1
  V  V21  1  0.88133158  0.12483876  0.74709776  1
  V  V22  1  0.12900215  0.62781870  -0.01577363  1
  V  V23  1  0.63170243  0.13966634  0.49679570  1
  V  V24  1  0.37789327  0.49335103  0.37405964  1
  V  V25  1  0.00505338  0.24768871  0.75557934  1
  V  V26  1  0.12479326  0.37148357  0.75270319  1
  V  V27  1  0.25018582  0.37671407  0.12377117  1
  V  V28  1  0.37692731  0.00047174  0.37527758  1
  V  V29  1  0.86774938  0.37620314  0.00748000  1
  V  V30  1  0.37424872  0.12576628  0.75195608  1
  V  V31  1  0.37297132  0.24592411  0.62474720  1
  V  V32  1  0.11150144  0.37860843  0.25462565  1
  V  V33  1  0.62728257  0.00097469  0.62214253  1
  V  V34  1  0.00316049  0.62645325  0.12394070  1
  V  V35  1  0.86937816  0.87751004  0.50190494  1
  V  V36  1  0.00553176  0.74247685  0.72916033  1
  V  V37  1  0.11874211  0.12950091  -0.00088311  1
  V  V38  1  0.62328394  0.49826522  0.63048490  1
  V  V39  1  0.63540574  0.87645132  0.24758482  1
  V  V40  1  0.24684160  0.74746313  -0.01383293  1
  V  V41  1  0.37610938  0.62241251  0.24742007  1
  V  V42  1  0.63735386  0.49061740  0.12646580  1
  V  V43  1  0.44027641  0.83041308  0.43469316  1
  V  V44  1  0.12534406  0.74984040  0.38252515  1
  V  V45  1  0.62001988  0.87653408  0.75941142  1
  V  V46  1  -0.00090963  0.74928289  0.24621525  1
  V  V47  1  0.80968317  0.70073617  0.56133200  1
  V  V48  1  0.37897584  0.12866108  0.24812164  1
  V  V49  1  0.36541255  0.63379839  0.75566921  1
  V  V50  1  0.75296927  0.13033901  0.87512418  1
  V  V51  1  -0.00270005  0.87701862  0.37523194  1
  V  V52  1  0.86448962  0.61948506  0.24814985  1
  V  V53  1  0.24710741  0.62351732  0.38345951  1
  V  V54  1  0.62093543  0.25678264  0.87637413  1
  V  V55  1  0.37845680  0.37387867  -0.00953854  1
  V  V56  1  0.24807583  0.87821104  0.12301139  1
  V  V57  1  0.62624155  0.12539029  0.00104230  1
  V  V58  1  0.11829422  0.50959504  0.61769272  1
  V  V59  1  0.75245346  0.00054343  0.75128740  1
  V  V60  1  0.37839286  0.37074733  0.49619982  1
  V  V61  1  0.63817654  0.37928813  0.26330098  1
  V  V62  1  0.86751824  0.75476555  0.12223702  1
  V  V63  1  0.50160347  0.12589863  0.62548124  1
  V  V64  1  0.88622441  0.36642028  0.49258554  1
  V  V65  1  0.24369126  0.25249794  -0.00450318  1
  V  V66  1  0.24834669  0.50142097  0.75348929  1
  V  V67  1  0.62462668  0.62752541  0.50246754  1
  V  V68  1  0.88024974  0.24651377  0.62456745  1
  V  V69  1  0.24870132  0.00373595  0.24561587  1
  V  V70  1  0.62588033  0.62458841  -0.00180841  1
  V  V71  1  0.12632357  0.50289756  0.12497071  1
  V  V72  1  0.75513449  0.87522118  0.62737547  1
  V  V73  1  0.49113559  0.63345935  0.62867520  1
  V  V74  1  0.24792195  0.49862367  0.25053104  1
  V  V75  1  0.37156577  0.74996809  0.12449267  1
  V  V76  1  0.37777216  0.25166775  0.12334444  1
  V  V77  1  0.25104112  0.12714651  0.37685831  1
  V  V78  1  0.63265093  0.75367661  0.37976050  1
  V  V79  1  0.24928454  0.24482442  0.50163461  1
  V  V80  1  0.11869862  0.00243558  0.63585021  1
  V  V81  1  0.87826868  0.23309696  0.12918139  1
  V  V82  1  0.00147176  0.49906162  -0.00638797  1
  V  V83  1  0.49793651  0.26104714  0.75392347  1
  V  V84  1  0.38223404  -0.00146264  0.87618723  1
  Zn  Zn85  1  0.87910721  -0.00028071  0.87358224  1
  Zn  Zn86  1  0.24740068  0.37575394  0.62400956  1
  Zn  Zn87  1  0.75877116  0.50127283  0.74874309  1
  Zn  Zn88  1  0.26306415  0.75583615  0.50097015  1
  Zn  Zn89  1  0.74843851  0.25504874  0.00825434  1
  Zn  Zn90  1  0.62737890  0.37755184  0.75598000  1
  Zn  Zn91  1  0.75436341  0.00678190  0.24187369  1
  Zn  Zn92  1  0.61736262  0.75460609  0.87925524  1
  Zn  Zn93  1  -0.00107026  0.23808516  0.24515461  1
  Zn  Zn94  1  0.00202480  0.36810771  0.87826827  1
  Zn  Zn95  1  0.87727113  0.62790727  0.75040176  1
  Zn  Zn96  1  0.49222493  0.75831944  0.75697495  1
  Zn  Zn97  1  0.11899327  0.12728480  0.50644328  1
  Zn  Zn98  1  0.87651407  0.48479613  0.36757089  1
  Zn  Zn99  1  0.37595261  0.49930612  0.87086045  1
  Zn  Zn100  1  0.75343594  0.62213129  0.87171537  1
  Zn  Zn101  1  0.87373654  0.49817011  0.86914415  1
  Zn  Zn102  1  0.25834989  0.86606725  0.61217437  1
  Zn  Zn103  1  0.50215181  -0.00234242  -0.00132724  1
  Zn  Zn104  1  0.74679644  0.61793952  0.36940290  1
  Zn  Zn105  1  0.63442554  -0.00832186  0.11972992  1
  Zn  Zn106  1  0.00562996  0.50165683  0.48852692  1
  Zn  Zn107  1  0.19114909  0.19673080  0.18979749  1
  Zn  Zn108  1  0.18363595  0.18016602  0.68511972  1
  Zn  Zn109  1  0.18770306  0.68743583  0.18757630  1
  Zn  Zn110  1  0.18334189  0.69550431  0.68104209  1
  Zn  Zn111  1  0.68979096  0.19571897  0.18681331  1
  Zn  Zn112  1  0.68781550  0.18878599  0.68982145  1
  Zn  Zn113  1  0.68395405  0.69124355  0.18213394  1
  Zn  Zn114  1  0.68080263  0.68395236  0.69715652  1
  Zn  Zn115  1  0.31192479  0.31254468  0.31275653  1
  Zn  Zn116  1  0.30772239  0.31294694  0.81255443  1
  Zn  Zn117  1  0.30474673  0.81227807  0.31012624  1
  Zn  Zn118  1  0.31228143  0.81338160  0.81244069  1
  Zn  Zn119  1  0.81332004  0.30521888  0.30548151  1
  Zn  Zn120  1  0.81497388  0.31803936  0.81355661  1
  Zn  Zn121  1  0.81184172  0.80879433  0.31570013  1
  Zn  Zn122  1  0.81726459  0.80577051  0.81317611  1
  Zn  Zn123  1  0.18978213  0.43249830  0.43768900  1
  Zn  Zn124  1  0.18566019  0.43935313  0.93248746  1
  Zn  Zn125  1  0.18513713  0.93569778  0.44190141  1
  Zn  Zn126  1  0.19019637  0.94110793  0.94113113  1
  Zn  Zn127  1  0.69679729  0.43846963  0.43791332  1
  Zn  Zn128  1  0.69005444  0.43988557  0.93631128  1
  Zn  Zn129  1  0.68756100  0.93598372  0.43312558  1
  Zn  Zn130  1  0.69234645  0.94328991  0.93909189  1
  Zn  Zn131  1  0.31147819  0.06329555  0.06167232  1
  Zn  Zn132  1  0.32755530  0.02777357  0.57721273  1
  Zn  Zn133  1  0.31229328  0.56308664  0.05830731  1
  Zn  Zn134  1  0.30901370  0.56081876  0.56721874  1
  Zn  Zn135  1  0.81136655  0.06020177  0.06200195  1
  Zn  Zn136  1  0.81095056  0.06507429  0.56104740  1
  Zn  Zn137  1  0.81436915  0.56571794  0.05898927  1
  Zn  Zn138  1  0.81054805  0.53811025  0.55707314  1
  Zn  Zn139  1  0.43963849  0.43668236  0.18139368  1
  Zn  Zn140  1  0.43172184  0.43911055  0.68291420  1
  Zn  Zn141  1  0.43849825  0.93923788  0.18543545  1
  Zn  Zn142  1  0.43864066  0.93854428  0.68583769  1
  Zn  Zn143  1  0.93722275  0.43920392  0.18190682  1
  Zn  Zn144  1  0.94079971  0.43780532  0.68495547  1
  Zn  Zn145  1  0.92776125  0.93333785  0.18557192  1
  Zn  Zn146  1  0.93967269  0.93076802  0.69250168  1
  Zn  Zn147  1  0.06303655  0.06194950  0.33352895  1
  Zn  Zn148  1  0.06067132  0.06214389  0.81670466  1
  Zn  Zn149  1  0.04518956  0.57575831  0.34633843  1
  Zn  Zn150  1  0.06014162  0.56581287  0.80373361  1
  Zn  Zn151  1  0.56699777  0.06444377  0.31197182  1
  Zn  Zn152  1  0.56372955  0.06677501  0.81212496  1
  Zn  Zn153  1  0.56564366  0.56029966  0.31298410  1
  Zn  Zn154  1  0.55923725  0.56502574  0.81353324  1
  Zn  Zn155  1  0.44061236  0.18454353  0.43724223  1
  Zn  Zn156  1  0.43713886  0.18682387  0.93764541  1
  Zn  Zn157  1  0.44284965  0.66572351  0.43147909  1
  Zn  Zn158  1  0.44023514  0.68860841  0.93383553  1
  Zn  Zn159  1  0.92977345  0.18793767  0.43635555  1
  Zn  Zn160  1  0.93606436  0.19077468  0.93929552  1
  Zn  Zn161  1  0.94106728  0.68629015  0.43361547  1
  Zn  Zn162  1  0.93802766  0.68572027  0.93301580  1
  Zn  Zn163  1  0.05886914  0.31386391  0.06702958  1
  Zn  Zn164  1  0.06338850  0.31077050  0.57216193  1
  Zn  Zn165  1  0.06273633  0.81183411  0.05831583  1
  Zn  Zn166  1  0.06719747  0.82450568  0.56530854  1
  Zn  Zn167  1  0.56276613  0.31251316  0.06540061  1
  Zn  Zn168  1  0.56046602  0.31360805  0.56539968  1
  Zn  Zn169  1  0.56043782  0.81017510  0.06638476  1
  Zn  Zn170  1  0.57039215  0.81066314  0.57014139  1
  O  O171  1  0.13163123  0.12532308  0.11747574  1
  O  O172  1  0.11806723  0.11064047  0.62132627  1
  O  O173  1  0.11962476  0.61816879  0.12447405  1
  O  O174  1  0.12773832  0.60736582  0.62610473  1
  O  O175  1  0.61944474  0.12912818  0.11649419  1
  O  O176  1  0.62382793  0.12128227  0.61500476  1
  O  O177  1  0.61890144  0.61700716  0.11730356  1
  O  O178  1  0.61358902  0.61687091  0.62328448  1
  O  O179  1  0.37092607  0.37820435  0.38736926  1
  O  O180  1  0.37147676  0.37553451  0.88727493  1
  O  O181  1  0.37833874  0.88464452  0.36614788  1
  O  O182  1  0.36874496  0.88590988  0.88484797  1
  O  O183  1  0.86807372  0.36102562  0.39118838  1
  O  O184  1  0.88137165  0.37617178  0.88981410  1
  O  O185  1  0.87647702  0.88012313  0.38320123  1
  O  O186  1  0.88227894  0.87556219  0.88633445  1
  O  O187  1  0.25581693  0.01200708  0.36872752  1
  O  O188  1  0.25526282  0.00819446  0.86982842  1
  O  O189  1  0.25455348  0.50452611  0.36788635  1
  O  O190  1  0.25161113  0.49790333  0.85826621  1
  O  O191  1  0.75494121  0.00668250  0.37080794  1
  O  O192  1  0.75323854  0.01410549  0.86917321  1
  O  O193  1  0.76640829  0.50841361  0.38632452  1
  O  O194  1  0.75171780  0.50176590  0.86823108  1
  O  O195  1  0.24672934  0.49612494  0.13123019  1
  O  O196  1  0.24322485  0.49582120  0.63490286  1
  O  O197  1  0.25619842  0.99137101  0.13324155  1
  O  O198  1  0.23397216  1.01778780  0.64295980  1
  O  O199  1  0.73480756  0.50463157  0.12049278  1
  O  O200  1  0.73789926  0.48805145  0.62840004  1
  O  O201  1  0.74703463  1.00219017  0.12976767  1
  O  O202  1  0.74552115  0.99380925  0.63096433  1
  O  O203  1  0.01105727  0.37308916  0.24276554  1
  O  O204  1  0.00730297  0.36463502  0.75133753  1
  O  O205  1  0.00332862  0.86749844  0.25061801  1
  O  O206  1  -0.00032868  0.86504053  0.76441152  1
  O  O207  1  0.50162940  0.36469549  0.24708627  1
  O  O208  1  0.49867776  0.36328005  0.74432567  1
  O  O209  1  0.50308925  0.86249372  0.24621839  1
  O  O210  1  0.51589985  0.87830051  0.74079316  1
  O  O211  1  0.50111865  0.13560100  0.24350414  1
  O  O212  1  0.49352324  0.13143442  0.74394036  1
  O  O213  1  0.49548997  0.63388042  0.24738349  1
  O  O214  1  0.48873686  0.62361808  0.74001658  1
  O  O215  1  1.01711092  0.11645644  0.24113506  1
  O  O216  1  0.98721064  0.12811523  0.75540956  1
  O  O217  1  0.99168920  0.63854447  0.24576972  1
  O  O218  1  0.99632899  0.63670311  0.74318816  1
  O  O219  1  0.36880605  0.25613078  0.00454804  1
  O  O220  1  0.37141709  0.25283627  0.50230369  1
  O  O221  1  0.36779859  0.75546194  0.00483547  1
  O  O222  1  0.38783005  0.75609754  0.48302438  1
  O  O223  1  0.87539110  0.26117383  0.00750276  1
  O  O224  1  0.87561140  0.25413315  0.51270942  1
  O  O225  1  0.86739292  0.75593051  0.00425591  1
  O  O226  1  0.87157920  0.75525506  0.49682028  1
  O  O227  1  0.13212870  0.24916890  0.49478414  1
  O  O228  1  0.13284106  0.24319804  1.00652619  1
  O  O229  1  0.12064528  0.76090161  0.48270445  1
  O  O230  1  0.13586361  0.73915928  1.00766577  1
  O  O231  1  0.62096260  0.23757658  0.50337999  1
  O  O232  1  0.62581522  0.24225160  0.99483073  1
  O  O233  1  0.61711304  0.74207121  0.49078212  1
  O  O234  1  0.63071272  0.74302557  1.00371631  1
  O  O235  1  0.49535096  0.24137322  0.13193809  1
  O  O236  1  0.49331987  0.24374146  0.63278035  1
  O  O237  1  0.49205762  0.74179110  0.13390073  1
  O  O238  1  0.50377374  0.73559236  0.63026636  1
  O  O239  1  0.98626604  0.25041458  0.12606280  1
  O  O240  1  0.98762866  0.24883019  0.63757879  1
  O  O241  1  0.99317341  0.74654971  0.12942550  1
  O  O242  1  1.00109474  0.75906927  0.62986690  1
  O  O243  1  0.01189275  0.23857050  0.37029735  1
  O  O244  1  -0.00231175  0.24800552  0.86069931  1
  O  O245  1  0.00527721  0.75975900  0.36252251  1
  O  O246  1  0.00670130  0.76341538  0.88491082  1
  O  O247  1  0.49770107  0.24697154  0.35869751  1
  O  O248  1  0.50761578  0.24251395  0.86537056  1
  O  O249  1  0.49991970  0.75660244  0.37139143  1
  O  O250  1  0.50450037  0.75164980  0.87006811  1
  O  O251  1  0.25334338  0.13587845  0.49184083  1
  O  O252  1  0.24115479  0.13178293  0.99586243  1
  O  O253  1  0.25831595  0.62587942  0.48549383  1
  O  O254  1  0.24151649  0.63531215  1.00511665  1
  O  O255  1  0.73656437  0.12179277  0.49224389  1
  O  O256  1  0.74235789  0.12845601  0.99104494  1
  O  O257  1  0.74833624  0.63341596  0.50838212  1
  O  O258  1  0.74079908  0.63404459  1.00047396  1
  O  O259  1  0.25281014  0.36862051  0.00243927  1
  O  O260  1  0.25868471  0.35900335  0.49987307  1
  O  O261  1  0.25660838  0.86908941  0.00678460  1
  O  O262  1  0.25841197  0.87189335  0.49164199  1
  O  O263  1  0.76420849  0.37458671  -0.00068686  1
  O  O264  1  0.75843404  0.37613178  0.51736373  1
  O  O265  1  0.75932479  0.86913288  -0.00440066  1
  O  O266  1  0.76080207  0.87903669  0.50773093  1
  O  O267  1  0.13490866  0.49325680  0.24587894  1
  O  O268  1  0.12988580  0.49343312  0.74105535  1
  O  O269  1  0.12415122  0.99791901  0.24400267  1
  O  O270  1  0.12840900  1.00394632  0.74341553  1
  O  O271  1  0.61822284  0.48923489  0.23767538  1
  O  O272  1  0.61727798  0.49666477  0.73843717  1
  O  O273  1  0.62218164  0.98316486  0.25186805  1
  O  O274  1  0.63059348  0.99433776  0.74406456  1
  O  O275  1  0.37326334  0.00818661  0.25818539  1
  O  O276  1  0.36660774  0.00853947  0.76072525  1
  O  O277  1  0.36957776  0.50012066  0.25330929  1
  O  O278  1  0.36683214  0.50734787  0.74948215  1
  O  O279  1  0.87441054  -0.00566717  0.26529239  1
  O  O280  1  0.87053684  0.00746811  0.75110518  1
  O  O281  1  0.87714996  0.51737169  0.24190473  1
  O  O282  1  0.87818082  0.50493802  0.74905160  1
  O  O283  1  0.13339730  0.36324715  0.36528908  1
  O  O284  1  0.12273086  0.37759510  0.85896397  1
  O  O285  1  0.11742196  0.87296636  0.36052239  1
  O  O286  1  0.11563970  0.87871519  0.88040937  1
  O  O287  1  0.62509312  0.38656066  0.36224656  1
  O  O288  1  0.62749474  0.36057630  0.87703973  1
  O  O289  1  0.62479442  0.86520094  0.36388006  1
  O  O290  1  0.62949746  0.88269771  0.86098660  1
  O  O291  1  0.38255955  0.13097961  0.12923318  1
  O  O292  1  0.38194185  0.12660727  0.63040262  1
  O  O293  1  0.37999075  0.62926303  0.12960457  1
  O  O294  1  0.38666661  0.61911669  0.63300106  1
  O  O295  1  0.88138774  0.13494279  0.11486146  1
  O  O296  1  0.86575889  0.13404436  0.63519671  1
  O  O297  1  0.88132862  0.63594190  0.13027260  1
  O  O298  1  0.86489604  0.63375231  0.61098909  1
  O  O299  1  0.25777968  0.25605458  0.11520228  1
  O  O300  1  0.25554950  0.24591875  0.61647357  1
  O  O301  1  0.25704694  0.75958688  0.12486989  1
  O  O302  1  0.24934323  0.75227626  0.61411650  1
  O  O303  1  0.76854345  0.24653651  0.12304897  1
  O  O304  1  0.75702458  0.25924772  0.63026007  1
  O  O305  1  0.75794729  0.74845844  0.11246244  1
  O  O306  1  0.74844136  0.75592133  0.62489840  1
  O  O307  1  0.24495859  0.24043917  0.37831005  1
  O  O308  1  0.25377711  0.24242993  0.88850080  1
  O  O309  1  0.24279530  0.74122739  0.37484362  1
  O  O310  1  0.25109592  0.75271572  0.88737255  1
  O  O311  1  0.74931886  0.23609058  0.37406027  1
  O  O312  1  0.74263963  0.24131232  0.87464856  1
  O  O313  1  0.73555003  0.74312537  0.37262098  1
  O  O314  1  0.74268822  0.74934346  0.88704230  1
  O  O315  1  0.01270343  0.11861353  -0.00783778  1
  O  O316  1  -0.00562444  0.11080596  0.49594545  1
  O  O317  1  0.00949270  0.62010188  0.00647063  1
  O  O318  1  0.01741458  0.61313117  0.45787309  1
  O  O319  1  0.50787006  0.12537775  0.00849577  1
  O  O320  1  0.51289096  0.11892901  0.50228200  1
  O  O321  1  0.50525907  0.61828305  0.00749701  1
  O  O322  1  0.50364339  0.61553834  0.51377833  1
  O  O323  1  0.49236629  0.38201696  0.50335465  1
  O  O324  1  0.48939710  0.38190577  1.00763262  1
  O  O325  1  0.50426172  0.88311042  0.50191816  1
  O  O326  1  0.48586809  0.87745453  1.00850976  1
  O  O327  1  0.98759263  0.36361452  0.50280892  1
  O  O328  1  0.99655685  0.38443353  0.99878107  1
  O  O329  1  0.98662209  0.88407994  0.49685237  1
  O  O330  1  0.99681082  0.88205110  0.99283383  1
  O  O331  1  0.49291162  0.50950389  0.39046261  1
  O  O332  1  0.49959605  0.50116286  0.89039384  1
  O  O333  1  0.49551973  1.00385869  0.38281951  1
  O  O334  1  0.48573011  1.00856536  0.87650321  1
  O  O335  1  0.98988874  0.48268623  0.37026027  1
  O  O336  1  1.00382419  0.50059699  0.88795332  1
  O  O337  1  0.98948236  0.99361187  0.38533192  1
  O  O338  1  0.99904997  0.98881673  0.88225409  1
  O  O339  1  -0.00146629  -0.00346246  0.11733476  1
  O  O340  1  0.00836862  -0.00711031  0.62122466  1
  O  O341  1  0.00723843  0.50648785  0.11457264  1
  O  O342  1  0.01485721  0.49469346  0.61614743  1
  O  O343  1  0.50359613  0.01446131  0.12497109  1
  O  O344  1  0.50915031  0.00843747  0.61257572  1
  O  O345  1  0.50574709  0.50636568  0.11558196  1
  O  O346  1  0.50423217  0.50465733  0.61628605  1
  O  O347  1  0.24762148  0.38473952  0.24501622  1
  O  O348  1  0.24380409  0.38082961  0.74696727  1
  O  O349  1  0.23918307  0.88398446  0.24542656  1
  O  O350  1  0.25218584  0.88813520  0.74940759  1
  O  O351  1  0.73692716  0.37345742  0.25270411  1
  O  O352  1  0.74803713  0.37618990  0.73717596  1
  O  O353  1  0.73705793  0.87244027  0.25218119  1
  O  O354  1  0.74557899  0.87979160  0.74513207  1
  O  O355  1  0.25617751  0.12300830  0.25597114  1
  O  O356  1  0.25498381  0.12435180  0.76148176  1
  O  O357  1  0.25710478  0.61276117  0.25151581  1
  O  O358  1  0.26238424  0.61962715  0.74219749  1
  O  O359  1  0.73458599  0.12363437  0.26603689  1
  O  O360  1  0.75724001  0.12120163  0.75691945  1
  O  O361  1  0.76185381  0.63092362  0.24283872  1
  O  O362  1  0.75518699  0.62293291  0.75168017  1
  O  O363  1  0.36943085  0.12193928  0.36655094  1
  O  O364  1  0.36319059  0.11863667  0.87548262  1
  O  O365  1  0.36584808  0.61438956  0.36433253  1
  O  O366  1  0.37735812  0.62105316  0.85813235  1
  O  O367  1  0.85646568  0.11748799  0.38114694  1
  O  O368  1  0.86695255  0.12536243  0.86883354  1
  O  O369  1  0.86981094  0.63800134  0.35182670  1
  O  O370  1  0.87245093  0.61769309  0.87668492  1
  O  O371  1  0.13242646  0.38175579  0.13301451  1
  O  O372  1  0.12865397  0.37860523  0.63753510  1
  O  O373  1  0.12939505  0.87207021  0.13500077  1
  O  O374  1  0.13718837  0.89936279  0.61696155  1
  O  O375  1  0.62353001  0.38729104  0.12991777  1
  O  O376  1  0.63374332  0.37852857  0.62643363  1
  O  O377  1  0.61927423  0.87294628  0.14254607  1
  O  O378  1  0.63827278  0.88113642  0.63177957  1
  O  O379  1  0.12342075  0.25981009  0.25789024  1
  O  O380  1  0.11601531  0.25521995  0.74290603  1
  O  O381  1  0.11710952  0.75931292  0.25221630  1
  O  O382  1  0.10642999  0.74644839  0.74889481  1
  O  O383  1  0.61464277  0.26787821  0.24451363  1
  O  O384  1  0.61469709  0.25008205  0.75819448  1
  O  O385  1  0.61639520  0.75631200  0.25691192  1
  O  O386  1  0.62381833  0.76767544  0.75176318  1
  O  O387  1  0.38425972  0.24800348  0.24393489  1
  O  O388  1  0.37963223  0.24494522  0.74720676  1
  O  O389  1  0.38001375  0.74510626  0.24642787  1
  O  O390  1  0.37373507  0.73834525  0.74946094  1
  O  O391  1  0.88127080  0.24675916  0.23596532  1
  O  O392  1  0.88036820  0.24311658  0.74487299  1
  O  O393  1  0.88034299  0.75061265  0.23878154  1
  O  O394  1  0.89552726  0.74804419  0.75648966  1
  O  O395  1  0.38069649  0.48971861  0.49755242  1
  O  O396  1  0.38134064  0.49195614  0.99818640  1
  O  O397  1  0.38856651  1.01380814  0.48031662  1
  O  O398  1  0.37438132  0.99234723  0.99297600  1
  O  O399  1  0.88544358  0.47573659  0.50350626  1
  O  O400  1  0.88440651  0.49083231  1.00368067  1
  O  O401  1  0.87720532  0.99377562  0.49369070  1
  O  O402  1  0.88697152  0.99315901  0.99807548  1
  O  O403  1  0.11440407  0.00853105  0.00325789  1
  O  O404  1  0.11221560  0.00456134  0.50300254  1
  O  O405  1  0.12199955  0.50629593  0.00600707  1
  O  O406  1  0.12999482  0.48911119  0.51426166  1
  O  O407  1  0.62126272  0.01184192  -0.00018799  1
  O  O408  1  0.62015414  0.00443734  0.50234948  1
  O  O409  1  0.61908810  0.50324594  0.00958983  1
  O  O410  1  0.61842833  0.50434182  0.51025788  1
  O  O411  1  0.36767071  0.37086156  0.11455792  1
  O  O412  1  0.37163284  0.36493870  0.61293500  1
  O  O413  1  0.36857653  0.87038832  0.11928807  1
  O  O414  1  0.35804727  0.92171549  0.61581336  1
  O  O415  1  0.87910329  0.37054784  0.11065901  1
  O  O416  1  0.86687089  0.36392016  0.62087548  1
  O  O417  1  0.88069090  0.86231703  0.11014200  1
  O  O418  1  0.86266352  0.87913859  0.62011084  1
  O  O419  1  0.13638599  0.13354600  0.38222633  1
  O  O420  1  0.13694134  0.12135992  0.88431325  1
  O  O421  1  0.14013693  0.63948833  0.35618333  1
  O  O422  1  0.12422662  0.61893938  0.88605311  1
  O  O423  1  0.63338548  0.12232295  0.38841560  1
  O  O424  1  0.63131798  0.13342271  0.88168941  1
  O  O425  1  0.62563562  0.63122099  0.38318677  1
  O  O426  1  0.62406721  0.62413356  0.89039673  1
