# generated using pymatgen
data_V85Zn86O256
_symmetry_space_group_name_H-M   'P 1'
_cell_length_a   16.92970282
_cell_length_b   16.92777217
_cell_length_c   16.93201481
_cell_angle_alpha   90.05349216
_cell_angle_beta   90.07170413
_cell_angle_gamma   89.95946702
_symmetry_Int_Tables_number   1
_chemical_formula_structural   V85Zn86O256
_chemical_formula_sum   'V85 Zn86 O256'
_cell_volume   4852.40612148
_cell_formula_units_Z   1
loop_
 _symmetry_equiv_pos_site_id
 _symmetry_equiv_pos_as_xyz
  1  'x, y, z'
loop_
 _atom_site_type_symbol
 _atom_site_label
 _atom_site_symmetry_multiplicity
 _atom_site_fract_x
 _atom_site_fract_y
 _atom_site_fract_z
 _atom_site_occupancy
  V  V0  1  0.11453282  0.87763113  0.75481844  1
  V  V1  1  0.74911138  0.37252373  0.12600257  1
  V  V2  1  0.75597053  0.12428258  0.87598131  1
  V  V3  1  0.38121246  0.50141710  0.86951912  1
  V  V4  1  0.89065584  0.12906496  0.25046962  1
  V  V5  1  0.11462214  0.75321163  0.87747778  1
  V  V6  1  0.37404316  0.24270465  0.61822925  1
  V  V7  1  0.25045385  0.00242172  0.24953790  1
  V  V8  1  0.12406815  0.37614905  0.23997246  1
  V  V9  1  0.00095452  0.75008234  0.25614881  1
  V  V10  1  0.75108480  0.12487286  0.37315943  1
  V  V11  1  0.87975492  -0.01692533  0.87656524  1
  V  V12  1  0.37321732  0.88027623  -0.00727962  1
  V  V13  1  0.24767847  0.25377333  0.00162168  1
  V  V14  1  0.50259374  0.12768201  0.11872483  1
  V  V15  1  0.37465359  0.86362745  0.50453042  1
  V  V16  1  0.37537930  0.38529186  0.50395493  1
  V  V17  1  0.37105364  0.25799065  0.12439524  1
  V  V18  1  0.49888549  0.62288352  0.12110427  1
  V  V19  1  0.88711585  0.13827757  0.73870870  1
  V  V20  1  0.75660412  0.51339719  0.25144754  1
  V  V21  1  0.00201488  0.36812532  0.88115814  1
  V  V22  1  0.37548344  0.38304238  0.00131739  1
  V  V23  1  0.62593316  0.25012952  0.37627185  1
  V  V24  1  0.62018728  0.49926737  0.11958782  1
  V  V25  1  0.24192698  0.49642334  0.24020826  1
  V  V26  1  0.37408433  0.62223463  0.25386182  1
  V  V27  1  0.10309718  0.35500276  0.73025651  1
  V  V28  1  0.37458826  0.75052908  0.12316363  1
  V  V29  1  0.75695280  0.87882496  0.11888633  1
  V  V30  1  0.23259749  0.62821124  0.37383483  1
  V  V31  1  0.00381001  0.49853896  0.00713775  1
  V  V32  1  0.74456377  0.62190592  0.87350666  1
  V  V33  1  0.75275401  0.00254138  0.24722767  1
  V  V34  1  0.50300847  0.87514045  0.37377125  1
  V  V35  1  0.62372780  0.37238800  0.74990637  1
  V  V36  1  0.24707827  0.74970192  0.00055596  1
  V  V37  1  0.37847334  0.12133548  0.75286998  1
  V  V38  1  0.12549194  0.61991691  0.00534906  1
  V  V39  1  0.11778498  0.01814837  0.12378722  1
  V  V40  1  0.49902810  0.24578228  0.74530864  1
  V  V41  1  0.61765894  0.62084873  -0.00588542  1
  V  V42  1  0.62750226  0.00522816  0.11518525  1
  V  V43  1  0.49882612  0.00329077  0.50681108  1
  V  V44  1  0.75262384  0.75348023  -0.00399891  1
  V  V45  1  0.75285409  0.49654252  0.74819700  1
  V  V46  1  0.25095570  0.12024586  0.88130044  1
  V  V47  1  0.24409141  0.61412052  0.87299415  1
  V  V48  1  0.62218574  0.12502978  0.50762738  1
  V  V49  1  0.13792539  0.25425567  0.37842529  1
  V  V50  1  0.00394198  0.87763326  0.37905795  1
  V  V51  1  0.62622806  0.87724161  0.24663806  1
  V  V52  1  0.00352750  0.36802955  0.37512839  1
  V  V53  1  0.87535541  0.36675674  0.49929521  1
  V  V54  1  0.87348379  0.37181587  0.00412674  1
  V  V55  1  0.12513742  0.00326429  0.62677331  1
  V  V56  1  0.24829385  0.87750348  0.12497840  1
  V  V57  1  0.13646965  0.50335582  0.63289668  1
  V  V58  1  0.37510510  0.12838066  0.24948100  1
  V  V59  1  0.88939403  0.24497233  0.12939938  1
  V  V60  1  0.75199769  0.36770209  0.62334451  1
  V  V61  1  0.12439504  0.24334517  0.87535072  1
  V  V62  1  0.13109773  0.12896521  0.50401278  1
  V  V63  1  0.61729612  0.74992068  0.86994804  1
  V  V64  1  -0.00108426  0.00514907  0.50578100  1
  V  V65  1  0.62273389  0.87372147  0.74410360  1
  V  V66  1  0.62268207  0.24316038  0.88059606  1
  V  V67  1  0.37647200  0.00178138  0.37426730  1
  V  V68  1  0.12567035  0.87258995  0.24970736  1
  V  V69  1  0.87308428  0.49751083  0.87909578  1
  V  V70  1  -0.00518941  0.62454136  0.63301345  1
  V  V71  1  0.36778614  0.63527202  0.74291774  1
  V  V72  1  0.50139663  0.38276112  0.38272001  1
  V  V73  1  0.00138280  0.49684849  0.50510185  1
  V  V74  1  -0.00396073  0.62444858  0.12634945  1
  V  V75  1  0.87541641  0.74996642  0.12651665  1
  V  V76  1  0.62516477  0.37568458  0.25019995  1
  V  V77  1  0.74594718  0.24208097  0.00487681  1
  V  V78  1  0.49743344  0.00309575  -0.00652202  1
  V  V79  1  0.00125978  -0.00020351  -0.00234562  1
  V  V80  1  0.62754336  0.61669924  0.49004405  1
  V  V81  1  0.25438267  -0.00268773  0.75517096  1
  V  V82  1  0.50062253  0.75099455  0.24752015  1
  V  V83  1  0.75214219  0.00024351  0.74569024  1
  V  V84  1  0.25514324  0.37283365  0.63106338  1
  Zn  Zn85  1  0.75605028  0.24478581  0.50391563  1
  Zn  Zn86  1  0.61578227  0.49699658  0.61307748  1
  Zn  Zn87  1  0.87197259  0.62438074  0.75215432  1
  Zn  Zn88  1  0.48796220  0.75748869  0.73643212  1
  Zn  Zn89  1  0.24092881  0.75010441  0.50177583  1
  Zn  Zn90  1  0.49964520  0.25195134  0.24922665  1
  Zn  Zn91  1  0.49795590  0.62776781  0.61400902  1
  Zn  Zn92  1  0.50055564  0.37592091  0.87785935  1
  Zn  Zn93  1  0.62243229  0.00177735  0.62625468  1
  Zn  Zn94  1  0.37419378  0.50235903  0.37858267  1
  Zn  Zn95  1  0.25206172  0.86605579  0.63173291  1
  Zn  Zn96  1  0.87159088  0.75315398  0.62611397  1
  Zn  Zn97  1  0.75215000  0.87124222  0.61875204  1
  Zn  Zn98  1  0.86949630  0.50961865  0.37788507  1
  Zn  Zn99  1  0.63920461  0.74036189  0.36874452  1
  Zn  Zn100  1  0.49421146  0.88074071  0.87082838  1
  Zn  Zn101  1  -0.00730341  0.75732907  0.75612991  1
  Zn  Zn102  1  0.75485800  0.74558434  0.49370691  1
  Zn  Zn103  1  0.87518181  0.87205315  0.50257242  1
  Zn  Zn104  1  0.11990173  0.63285386  0.50130339  1
  Zn  Zn105  1  0.25707291  0.13062022  0.38418304  1
  Zn  Zn106  1  0.87651241  0.00145427  0.37590326  1
  Zn  Zn107  1  0.18994037  0.19510038  0.19212861  1
  Zn  Zn108  1  0.19328486  0.18463875  0.68729952  1
  Zn  Zn109  1  0.18481729  0.68633000  0.18751524  1
  Zn  Zn110  1  0.18725430  0.69328049  0.68779806  1
  Zn  Zn111  1  0.68828684  0.18700219  0.18864526  1
  Zn  Zn112  1  0.69157717  0.18657699  0.69021115  1
  Zn  Zn113  1  0.68630616  0.69010423  0.18410015  1
  Zn  Zn114  1  0.68463197  0.68504381  0.67741227  1
  Zn  Zn115  1  0.31257761  0.31736033  0.31369597  1
  Zn  Zn116  1  0.30745347  0.31412155  0.80982812  1
  Zn  Zn117  1  0.31353424  0.81081669  0.31465757  1
  Zn  Zn118  1  0.30044160  0.81042685  0.81781778  1
  Zn  Zn119  1  0.81477641  0.31423096  0.31285034  1
  Zn  Zn120  1  0.81340175  0.31026738  0.81464262  1
  Zn  Zn121  1  0.81708806  0.81299931  0.31417429  1
  Zn  Zn122  1  0.80742260  0.80801432  0.80396717  1
  Zn  Zn123  1  0.19100118  0.44265199  0.44107777  1
  Zn  Zn124  1  0.18677648  0.43235376  0.93656534  1
  Zn  Zn125  1  0.18861640  0.93927990  0.43608459  1
  Zn  Zn126  1  0.18162660  0.93981936  0.94041511  1
  Zn  Zn127  1  0.69163502  0.44147267  0.43537574  1
  Zn  Zn128  1  0.68510981  0.43301539  0.93722625  1
  Zn  Zn129  1  0.68872232  0.93649524  0.43752445  1
  Zn  Zn130  1  0.68662101  0.93683850  0.93303747  1
  Zn  Zn131  1  0.31211775  0.06500374  0.06375463  1
  Zn  Zn132  1  0.31182292  0.05741139  0.56683399  1
  Zn  Zn133  1  0.31214720  0.56031089  0.06170964  1
  Zn  Zn134  1  0.30977633  0.56455393  0.55992011  1
  Zn  Zn135  1  0.82395367  0.06458717  0.05907514  1
  Zn  Zn136  1  0.81399258  0.06155776  0.56301441  1
  Zn  Zn137  1  0.80942923  0.56363159  0.06401266  1
  Zn  Zn138  1  0.80903746  0.55718304  0.56139609  1
  Zn  Zn139  1  0.43779734  0.43859270  0.18990855  1
  Zn  Zn140  1  0.43599002  0.43985512  0.69126140  1
  Zn  Zn141  1  0.43768102  0.93980220  0.18269572  1
  Zn  Zn142  1  0.43678690  0.93758427  0.68551937  1
  Zn  Zn143  1  0.93971561  0.43388814  0.18858242  1
  Zn  Zn144  1  0.94615479  0.41345376  0.67965582  1
  Zn  Zn145  1  0.93871892  0.93961937  0.18592796  1
  Zn  Zn146  1  0.93547125  0.94316854  0.68620076  1
  Zn  Zn147  1  0.06840757  0.06332794  0.31823815  1
  Zn  Zn148  1  0.06053317  0.06420959  0.81417337  1
  Zn  Zn149  1  0.03301848  0.57178547  0.32545520  1
  Zn  Zn150  1  0.06318296  0.55234351  0.81318144  1
  Zn  Zn151  1  0.56297403  0.06265621  0.31011319  1
  Zn  Zn152  1  0.56542816  0.06425795  0.81227569  1
  Zn  Zn153  1  0.56305819  0.56038899  0.31014441  1
  Zn  Zn154  1  0.54666746  0.55190666  0.77897286  1
  Zn  Zn155  1  0.44150532  0.19181576  0.43769707  1
  Zn  Zn156  1  0.43398416  0.18864908  0.93626551  1
  Zn  Zn157  1  0.44814719  0.68612900  0.43617534  1
  Zn  Zn158  1  0.43577917  0.68717693  0.93348692  1
  Zn  Zn159  1  0.94510264  0.18669481  0.43585553  1
  Zn  Zn160  1  0.93748150  0.18220936  0.94041257  1
  Zn  Zn161  1  0.93149541  0.68352447  0.43937262  1
  Zn  Zn162  1  0.93288849  0.68518239  0.93935117  1
  Zn  Zn163  1  0.06584403  0.30791222  0.06214198  1
  Zn  Zn164  1  0.06673715  0.31009765  0.56075527  1
  Zn  Zn165  1  0.05984479  0.81840689  0.06180294  1
  Zn  Zn166  1  0.06735078  0.81131533  0.56401095  1
  Zn  Zn167  1  0.55824435  0.31318098  0.05950112  1
  Zn  Zn168  1  0.56157967  0.31078711  0.56375179  1
  Zn  Zn169  1  0.56413779  0.81446104  0.05892471  1
  Zn  Zn170  1  0.56676515  0.79883961  0.56106611  1
  O  O171  1  0.12991633  0.11610445  0.13168016  1
  O  O172  1  0.13076889  0.11291367  0.62097832  1
  O  O173  1  0.11816164  0.63001887  0.11011928  1
  O  O174  1  0.11679448  0.61239367  0.63284755  1
  O  O175  1  0.61520413  0.11775041  0.12910012  1
  O  O176  1  0.63056524  0.12546672  0.61091479  1
  O  O177  1  0.62034258  0.61812341  0.11508186  1
  O  O178  1  0.62161120  0.61793569  0.61070975  1
  O  O179  1  0.38352337  0.37333884  0.38656161  1
  O  O180  1  0.37115215  0.38839543  0.87746096  1
  O  O181  1  0.38593830  0.88156731  0.37682361  1
  O  O182  1  0.37274168  0.87040281  0.88907026  1
  O  O183  1  0.88649085  0.38026613  0.37780341  1
  O  O184  1  0.88094897  0.37612544  0.88600658  1
  O  O185  1  0.89403032  0.88208165  0.37055563  1
  O  O186  1  0.87012819  0.88549361  0.86821074  1
  O  O187  1  0.25908831  0.00405974  0.36576814  1
  O  O188  1  0.24282599  0.00959627  0.86948339  1
  O  O189  1  0.25410578  0.51277043  0.36633202  1
  O  O190  1  0.25237758  0.51007762  0.87958539  1
  O  O191  1  0.75090625  0.00955702  0.36632344  1
  O  O192  1  0.75709750  0.00598772  0.86823858  1
  O  O193  1  0.75360407  0.49821399  0.35636343  1
  O  O194  1  0.75520704  0.50085165  0.87263068  1
  O  O195  1  0.24761039  0.50735630  0.14114744  1
  O  O196  1  0.24078051  0.49706124  0.62642311  1
  O  O197  1  0.24087950  0.99774713  0.12913766  1
  O  O198  1  0.24326824  0.99310461  0.63745388  1
  O  O199  1  0.73901483  0.49298493  0.12936433  1
  O  O200  1  0.74467922  0.48697944  0.63491049  1
  O  O201  1  0.74554456  0.99675552  0.12318196  1
  O  O202  1  0.74673104  1.00059479  0.63738358  1
  O  O203  1  0.01582309  0.38445848  0.26033346  1
  O  O204  1  0.00170243  0.39295354  0.77927446  1
  O  O205  1  0.00847256  0.87109629  0.25221885  1
  O  O206  1  0.01105591  0.87918647  0.75092571  1
  O  O207  1  0.51221254  0.37368510  0.25493690  1
  O  O208  1  0.50761693  0.36507287  0.75635345  1
  O  O209  1  0.50386672  0.87269547  0.25277307  1
  O  O210  1  0.50481257  0.87543352  0.75344859  1
  O  O211  1  0.49034204  0.12606742  0.23979124  1
  O  O212  1  0.49076818  0.13068556  0.75426156  1
  O  O213  1  0.49243284  0.62890080  0.24217409  1
  O  O214  1  0.47366341  0.63892297  0.76575956  1
  O  O215  1  0.98962266  0.12305084  0.25854979  1
  O  O216  1  0.98607638  0.12370655  0.75280449  1
  O  O217  1  1.01624897  0.63647273  0.23070591  1
  O  O218  1  0.99727754  0.61455387  0.74048136  1
  O  O219  1  0.36692767  0.25732826  0.00568758  1
  O  O220  1  0.38359891  0.25620467  0.51482268  1
  O  O221  1  0.36821670  0.75560693  0.00504146  1
  O  O222  1  0.37578579  0.76327058  0.48880617  1
  O  O223  1  0.86632790  0.25336718  0.00846100  1
  O  O224  1  0.87497126  0.26124407  0.49131755  1
  O  O225  1  0.85976239  0.74703321  0.00633362  1
  O  O226  1  0.87693841  0.75102853  0.50570791  1
  O  O227  1  0.12453556  0.24062139  0.49462047  1
  O  O228  1  0.13980102  0.25417071  0.99414062  1
  O  O229  1  0.12517784  0.74612117  0.49532356  1
  O  O230  1  0.12728298  0.74469447  0.99628341  1
  O  O231  1  0.62598410  0.24266330  0.49177724  1
  O  O232  1  0.63223418  0.25224765  0.99280354  1
  O  O233  1  0.62926859  0.73644906  0.48926662  1
  O  O234  1  0.63283402  0.74326910  0.99343414  1
  O  O235  1  0.49212158  0.24280310  0.12565928  1
  O  O236  1  0.49378719  0.25170059  0.63899719  1
  O  O237  1  0.49550879  0.74510432  0.12819551  1
  O  O238  1  0.49554250  0.74316253  0.62517428  1
  O  O239  1  0.98862701  0.24939850  0.12101831  1
  O  O240  1  1.02373697  0.31550449  0.66474939  1
  O  O241  1  0.99123033  0.74632121  0.12601509  1
  O  O242  1  1.00305036  0.73135017  0.63218604  1
  O  O243  1  0.01452522  0.26270697  0.37865010  1
  O  O244  1  0.00980924  0.25628385  0.88829895  1
  O  O245  1  -0.00126911  0.75929395  0.35933341  1
  O  O246  1  0.01039075  0.74193996  0.87696999  1
  O  O247  1  0.51182432  0.25915489  0.37140879  1
  O  O248  1  0.50769955  0.24741413  0.86667932  1
  O  O249  1  0.50256219  0.76068947  0.36275971  1
  O  O250  1  0.51139284  0.75631115  0.87855346  1
  O  O251  1  0.23743576  0.11633956  0.50015651  1
  O  O252  1  0.25951670  0.13388075  0.98774383  1
  O  O253  1  0.24905014  0.62355065  0.48284188  1
  O  O254  1  0.24136918  0.62849441  0.99577286  1
  O  O255  1  0.74393164  0.12393946  0.48821308  1
  O  O256  1  0.75461004  0.13487085  0.99371638  1
  O  O257  1  0.73610674  0.61964900  0.50038514  1
  O  O258  1  0.73747780  0.63106422  0.99495849  1
  O  O259  1  0.26174800  0.36630607  -0.00363603  1
  O  O260  1  0.26322065  0.37948287  0.51303844  1
  O  O261  1  0.25465128  0.87226476  0.00546380  1
  O  O262  1  0.26735961  0.87561199  0.49164975  1
  O  O263  1  0.75289997  0.36377723  0.00658998  1
  O  O264  1  0.75740752  0.37366258  0.50518981  1
  O  O265  1  0.74143197  0.86553256  0.00677199  1
  O  O266  1  0.75578683  0.87536064  0.50037483  1
  O  O267  1  0.13604475  0.48905011  0.25520590  1
  O  O268  1  0.11900238  0.48219227  0.73550290  1
  O  O269  1  0.13005608  0.99718596  0.24034004  1
  O  O270  1  0.13087204  0.99714933  0.74674487  1
  O  O271  1  0.63370302  0.49329180  0.24148562  1
  O  O272  1  0.63838666  0.48104585  0.76483416  1
  O  O273  1  0.63094368  0.99736444  0.23663877  1
  O  O274  1  0.63249102  0.99388232  0.74936350  1
  O  O275  1  0.37206399  0.00900521  0.25244480  1
  O  O276  1  0.36488407  0.00613796  0.74723021  1
  O  O277  1  0.36352920  0.50645329  0.25016149  1
  O  O278  1  0.36798524  0.50928676  0.76548385  1
  O  O279  1  0.86877664  0.01045699  0.24911648  1
  O  O280  1  0.86913759  0.00738031  0.76167847  1
  O  O281  1  0.85739601  0.49428984  0.24169753  1
  O  O282  1  0.86138845  0.49317491  0.75839165  1
  O  O283  1  0.12525275  0.36896024  0.37425833  1
  O  O284  1  0.11905138  0.36175201  0.86928940  1
  O  O285  1  0.11702121  0.88416048  0.36053419  1
  O  O286  1  0.12850107  0.86445215  0.87047083  1
  O  O287  1  0.62140913  0.36971942  0.36923110  1
  O  O288  1  0.62482567  0.35958389  0.86952712  1
  O  O289  1  0.61241867  0.88147985  0.36544876  1
  O  O290  1  0.62285830  0.86787102  0.86315451  1
  O  O291  1  0.38198655  0.13362436  0.13151708  1
  O  O292  1  0.36747536  0.13217105  0.63822746  1
  O  O293  1  0.37846249  0.62885818  0.13289712  1
  O  O294  1  0.37121700  0.61796058  0.64187162  1
  O  O295  1  0.86724415  0.13447515  0.13841865  1
  O  O296  1  0.87136851  0.12482095  0.63937496  1
  O  O297  1  0.88340703  0.63622761  0.11844423  1
  O  O298  1  0.88825741  0.61407079  0.62934446  1
  O  O299  1  0.26165013  0.24527792  0.11627777  1
  O  O300  1  0.26286933  0.25795065  0.62781004  1
  O  O301  1  0.25414651  0.75564455  0.11965063  1
  O  O302  1  0.24733887  0.75419336  0.61795319  1
  O  O303  1  0.75114805  0.25420327  0.11846781  1
  O  O304  1  0.74260534  0.26285091  0.62171197  1
  O  O305  1  0.75516894  0.75817132  0.11769811  1
  O  O306  1  0.75299454  0.75205946  0.61902656  1
  O  O307  1  0.24287161  0.25035281  0.37633668  1
  O  O308  1  0.24455697  0.24386903  0.88171760  1
  O  O309  1  0.25304386  0.73046795  0.36982202  1
  O  O310  1  0.23613761  0.73795334  0.88453949  1
  O  O311  1  0.73936488  0.24515474  0.37579944  1
  O  O312  1  0.74453923  0.24299105  0.88396469  1
  O  O313  1  0.75192364  0.75057866  0.37473895  1
  O  O314  1  0.73933368  0.74467930  0.88001396  1
  O  O315  1  -0.01786155  0.10235823  0.00713968  1
  O  O316  1  0.01562778  0.11627413  0.49526624  1
  O  O317  1  0.00495838  0.61831670  0.00791559  1
  O  O318  1  0.00211515  0.61206626  0.51792078  1
  O  O319  1  0.49228082  0.11970462  0.01081635  1
  O  O320  1  0.51028319  0.11580374  0.49141870  1
  O  O321  1  0.51063539  0.62993910  0.00376035  1
  O  O322  1  0.51432995  0.62110860  0.49798357  1
  O  O323  1  0.49322367  0.37131055  0.49312392  1
  O  O324  1  0.48250717  0.36949930  0.99365908  1
  O  O325  1  0.49224643  0.88143031  0.49028736  1
  O  O326  1  0.49098740  0.88460295  1.00025570  1
  O  O327  1  0.99350557  0.37648632  0.49706453  1
  O  O328  1  0.99787941  0.38133462  0.99817321  1
  O  O329  1  1.00342012  0.88412762  0.49220260  1
  O  O330  1  0.99564540  0.89653247  1.01118194  1
  O  O331  1  0.49478755  0.48511917  0.36539698  1
  O  O332  1  0.48441766  0.49934053  0.86988491  1
  O  O333  1  0.49436683  0.99449975  0.37857626  1
  O  O334  1  0.50556812  1.00221681  0.88993477  1
  O  O335  1  1.01733970  0.48092428  0.39648979  1
  O  O336  1  0.99230804  0.49651240  0.89173512  1
  O  O337  1  1.00355397  0.99462718  0.38645482  1
  O  O338  1  0.98844445  0.99966312  0.88172775  1
  O  O339  1  0.01372807  0.00250576  0.12392491  1
  O  O340  1  0.00959625  -0.00063555  0.61388001  1
  O  O341  1  -0.00699822  0.50795398  0.11530782  1
  O  O342  1  0.00994303  0.49826567  0.61998040  1
  O  O343  1  0.50806113  0.00769140  0.11650289  1
  O  O344  1  0.50089187  -0.00019205  0.61030685  1
  O  O345  1  0.51250855  0.50566555  0.12954636  1
  O  O346  1  0.51291238  0.51712608  0.66542789  1
  O  O347  1  0.24244426  0.38830173  0.25325896  1
  O  O348  1  0.23668668  0.36918499  0.73596531  1
  O  O349  1  0.24483628  0.88080119  0.24657221  1
  O  O350  1  0.23990704  0.88432682  0.75394188  1
  O  O351  1  0.73821082  0.37724336  0.24441213  1
  O  O352  1  0.74418301  0.37491749  0.74439304  1
  O  O353  1  0.74636449  0.88425382  0.23985669  1
  O  O354  1  0.74001452  0.88484768  0.74917579  1
  O  O355  1  0.26378158  0.12256885  0.25037163  1
  O  O356  1  0.25617926  0.11628640  0.76036270  1
  O  O357  1  0.25258479  0.61769514  0.25614631  1
  O  O358  1  0.25590519  0.62836045  0.76190653  1
  O  O359  1  0.75233640  0.12138696  0.26079032  1
  O  O360  1  0.75574094  0.11772899  0.75778746  1
  O  O361  1  0.74763669  0.61178273  0.23984906  1
  O  O362  1  0.74594916  0.61200845  0.75596385  1
  O  O363  1  0.37764687  0.12322102  0.36660031  1
  O  O364  1  0.36551439  0.13002361  0.86224134  1
  O  O365  1  0.37649335  0.62499568  0.36078457  1
  O  O366  1  0.36337663  0.61550044  0.87579018  1
  O  O367  1  0.86686924  0.12765401  0.36845393  1
  O  O368  1  0.86419404  0.12184128  0.86846794  1
  O  O369  1  0.92654518  0.60565471  0.36214923  1
  O  O370  1  0.86411260  0.61523467  0.87619222  1
  O  O371  1  0.12124298  0.37213714  0.14095863  1
  O  O372  1  0.14079033  0.38537216  0.62070038  1
  O  O373  1  0.13131099  0.88482398  0.13339543  1
  O  O374  1  0.12571341  0.88694600  0.63565877  1
  O  O375  1  0.62571280  0.38077809  0.13010250  1
  O  O376  1  0.62814766  0.37723571  0.63427390  1
  O  O377  1  0.63379533  0.88312410  0.12794019  1
  O  O378  1  0.62380971  0.87687083  0.63558630  1
  O  O379  1  0.13271587  0.26745833  0.25996956  1
  O  O380  1  0.13091034  0.25269443  0.75984490  1
  O  O381  1  0.11649835  0.76354650  0.24035055  1
  O  O382  1  0.11991072  0.75943432  0.76054004  1
  O  O383  1  0.62411768  0.25799083  0.25708662  1
  O  O384  1  0.61937042  0.25500489  0.75564105  1
  O  O385  1  0.61821796  0.75838210  0.24747428  1
  O  O386  1  0.62350626  0.75644482  0.75643384  1
  O  O387  1  0.37596000  0.24709323  0.24223561  1
  O  O388  1  0.38187408  0.24439260  0.74436814  1
  O  O389  1  0.37984627  0.74318146  0.24214789  1
  O  O390  1  0.36691845  0.73963569  0.75677789  1
  O  O391  1  0.87099568  0.24247436  0.24137464  1
  O  O392  1  0.87322511  0.23784426  0.75266442  1
  O  O393  1  0.88563909  0.75693206  0.23396188  1
  O  O394  1  0.87843855  0.74179593  0.74756167  1
  O  O395  1  0.37800202  0.48991450  0.50120225  1
  O  O396  1  0.36980060  0.49395795  0.98814696  1
  O  O397  1  0.38200441  0.99641110  0.49186851  1
  O  O398  1  0.38396921  0.99165856  1.00819308  1
  O  O399  1  0.88405520  0.48800070  0.49800475  1
  O  O400  1  0.87840165  0.49145641  0.99906477  1
  O  O401  1  0.88717191  1.00269059  0.49645130  1
  O  O402  1  0.87447058  0.99596529  0.98227387  1
  O  O403  1  0.11679948  0.00330299  0.01300816  1
  O  O404  1  0.12190738  0.00396721  0.50903697  1
  O  O405  1  0.11588256  0.50633038  -0.00379000  1
  O  O406  1  0.12165841  0.50425947  0.51634558  1
  O  O407  1  0.61823295  -0.00349964  0.00958600  1
  O  O408  1  0.61595390  0.00822558  0.49846052  1
  O  O409  1  0.62820638  0.50747885  0.00672376  1
  O  O410  1  0.62430571  0.50731886  0.49679798  1
  O  O411  1  0.38034213  0.36724421  0.11812205  1
  O  O412  1  0.37302667  0.37073760  0.62304184  1
  O  O413  1  0.36796999  0.87046634  0.11705840  1
  O  O414  1  0.37354901  0.87983627  0.60698676  1
  O  O415  1  0.86948101  0.36517518  0.12275304  1
  O  O416  1  0.86377417  0.37539160  0.61290852  1
  O  O417  1  0.86254925  0.87176853  0.12559328  1
  O  O418  1  0.87363285  0.87423964  0.62384814  1
  O  O419  1  0.13149780  0.13612214  0.38215168  1
  O  O420  1  0.13288764  0.13542953  0.87323212  1
  O  O421  1  0.13146498  0.61993043  0.37253753  1
  O  O422  1  0.12744112  0.62633530  0.88302759  1
  O  O423  1  0.63095167  0.13281054  0.37779081  1
  O  O424  1  0.63855007  0.13585972  0.86968478  1
  O  O425  1  0.62156440  0.62302418  0.38235368  1
  O  O426  1  0.62608413  0.63084453  0.87899309  1
