# generated using pymatgen
data_V85Zn86O256
_symmetry_space_group_name_H-M   'P 1'
_cell_length_a   16.91139662
_cell_length_b   16.91584780
_cell_length_c   16.92032409
_cell_angle_alpha   89.96426514
_cell_angle_beta   89.98259496
_cell_angle_gamma   90.02122770
_symmetry_Int_Tables_number   1
_chemical_formula_structural   V85Zn86O256
_chemical_formula_sum   'V85 Zn86 O256'
_cell_volume   4840.40596049
_cell_formula_units_Z   1
loop_
 _symmetry_equiv_pos_site_id
 _symmetry_equiv_pos_as_xyz
  1  'x, y, z'
loop_
 _atom_site_type_symbol
 _atom_site_label
 _atom_site_symmetry_multiplicity
 _atom_site_fract_x
 _atom_site_fract_y
 _atom_site_fract_z
 _atom_site_occupancy
  V  V0  1  0.75038840  -0.00226487  0.74717402  1
  V  V1  1  0.87579727  0.25050989  0.62711956  1
  V  V2  1  0.87537562  0.12498008  0.75126823  1
  V  V3  1  -0.00127516  -0.00130595  0.00323144  1
  V  V4  1  0.25387380  0.75127313  0.49952682  1
  V  V5  1  0.62358999  0.36049837  0.25412840  1
  V  V6  1  0.24704728  0.36910980  0.11710617  1
  V  V7  1  0.87635254  -0.00306540  0.87760177  1
  V  V8  1  0.62042614  0.87532351  0.75243034  1
  V  V9  1  0.87517803  0.50023042  0.37686147  1
  V  V10  1  0.38788658  0.10387021  0.76197343  1
  V  V11  1  0.86830561  0.74772936  0.61766215  1
  V  V12  1  0.00213370  0.75224970  0.24872129  1
  V  V13  1  0.37448934  0.76718193  0.12659830  1
  V  V14  1  0.74369130  0.24685003  0.00051685  1
  V  V15  1  0.25323703  0.12367041  0.37495240  1
  V  V16  1  -0.00228466  0.00229889  0.49950308  1
  V  V17  1  0.61871612  0.75217855  0.87620860  1
  V  V18  1  0.37545946  0.62329739  0.74244581  1
  V  V19  1  0.37073669  0.50279207  0.87830212  1
  V  V20  1  0.86496951  0.61948253  0.74385838  1
  V  V21  1  -0.00228847  0.87602390  0.87807088  1
  V  V22  1  0.74792881  0.64207475  0.37722919  1
  V  V23  1  0.49849042  0.37702167  0.88092657  1
  V  V24  1  0.25167477  0.12383374  0.87671343  1
  V  V25  1  0.37315649  0.24760789  0.12395714  1
  V  V26  1  0.74126660  0.12295907  0.87840375  1
  V  V27  1  0.26193602  0.87426544  0.62144295  1
  V  V28  1  0.62919744  0.38172841  0.75365422  1
  V  V29  1  0.24523166  0.62266182  0.37990311  1
  V  V30  1  0.62234327  0.62224073  0.00207182  1
  V  V31  1  0.87418516  0.49162324  0.86824005  1
  V  V32  1  0.49880577  0.25721258  0.74968248  1
  V  V33  1  0.93006108  0.69160157  0.07750661  1
  V  V34  1  0.38236627  0.88435390  -0.02356869  1
  V  V35  1  0.12528831  0.37389966  0.24742263  1
  V  V36  1  0.62308284  0.50537241  0.62669108  1
  V  V37  1  0.75082543  0.12976707  0.36532313  1
  V  V38  1  0.62686797  0.63543155  0.49724911  1
  V  V39  1  0.12547445  0.24958886  0.37572062  1
  V  V40  1  0.50450208  0.12832093  0.62219523  1
  V  V41  1  0.49910609  0.74502167  0.74492187  1
  V  V42  1  0.25005320  0.24967025  0.50167255  1
  V  V43  1  0.12227194  0.38065822  0.75302989  1
  V  V44  1  0.74606855  0.50093062  0.25165808  1
  V  V45  1  0.50542761  0.12581343  0.10637392  1
  V  V46  1  0.00021114  0.25334303  0.75912090  1
  V  V47  1  0.25009688  -0.01313880  0.25089236  1
  V  V48  1  -0.00205806  0.74828911  0.74496783  1
  V  V49  1  0.76375581  0.87385264  0.12303289  1
  V  V50  1  0.12457768  -0.00112850  0.62362412  1
  V  V51  1  0.12436237  0.87324462  0.74843933  1
  V  V52  1  0.37806583  -0.00620986  0.38578942  1
  V  V53  1  -0.00421100  0.24208477  0.25266494  1
  V  V54  1  0.01227683  0.62209030  0.62089163  1
  V  V55  1  0.87975970  0.62724023  0.25063512  1
  V  V56  1  0.24843611  0.75070388  0.00706571  1
  V  V57  1  0.37295084  0.25358653  0.62900300  1
  V  V58  1  0.12678131  0.25462620  0.88297898  1
  V  V59  1  0.00632908  0.87754584  0.37163027  1
  V  V60  1  0.50060150  0.50479582  0.50253205  1
  V  V61  1  0.24452547  0.38335884  0.62707360  1
  V  V62  1  0.74862728  0.75416410  0.00104469  1
  V  V63  1  0.50298317  0.36529548  0.37174098  1
  V  V64  1  0.12016529  0.51363492  0.11959889  1
  V  V65  1  0.86627660  0.87345856  0.49645141  1
  V  V66  1  0.37442824  0.62827139  0.24649331  1
  V  V67  1  0.87417778  0.00580558  0.36414751  1
  V  V68  1  0.38927481  0.12566753  0.25181608  1
  V  V69  1  0.12411597  0.74728718  0.37784881  1
  V  V70  1  0.87548730  0.37683183  0.50093485  1
  V  V71  1  0.01320948  0.50275837  0.50148241  1
  V  V72  1  0.75073107  0.38184119  0.62901431  1
  V  V73  1  0.62528736  0.12533447  0.49282165  1
  V  V74  1  0.13231566  0.12589969  0.00561234  1
  V  V75  1  0.61808602  -0.00622795  0.11273735  1
  V  V76  1  0.12622347  0.74079586  0.87759108  1
  V  V77  1  0.74446138  0.25224545  0.49683160  1
  V  V78  1  0.88373830  0.37373065  0.00034776  1
  V  V79  1  0.50660823  0.86928977  0.38482607  1
  V  V80  1  0.37721175  0.50003828  0.37216281  1
  V  V81  1  0.51027709  0.75229498  0.25155184  1
  V  V82  1  0.74995334  0.37297196  0.12645261  1
  V  V83  1  0.87392603  0.23841315  0.12809832  1
  V  V84  1  0.13106699  -0.01135083  0.13043140  1
  Zn  Zn85  1  0.74732404  0.87136281  0.62057976  1
  Zn  Zn86  1  0.49985265  0.62475191  0.12690455  1
  Zn  Zn87  1  0.12643144  0.12560100  0.50285969  1
  Zn  Zn88  1  0.62007923  0.49829980  0.12722448  1
  Zn  Zn89  1  0.24361732  0.50448180  0.74959024  1
  Zn  Zn90  1  0.49811156  -0.00580529  0.50763946  1
  Zn  Zn91  1  0.62523301  -0.00013611  0.62485845  1
  Zn  Zn92  1  0.24765214  0.62333540  0.87858031  1
  Zn  Zn93  1  0.74914334  0.00331651  0.24374354  1
  Zn  Zn94  1  0.37005912  0.37235154  0.00028455  1
  Zn  Zn95  1  0.37512630  0.37630214  0.49933770  1
  Zn  Zn96  1  0.24863688  0.50048656  0.24675440  1
  Zn  Zn97  1  0.49707001  0.50086813  0.00546099  1
  Zn  Zn98  1  0.00095443  0.12097817  0.13023694  1
  Zn  Zn99  1  0.62153617  0.24711621  0.87965627  1
  Zn  Zn100  1  0.62929387  0.87638943  0.25181249  1
  Zn  Zn101  1  0.74583758  0.62017817  0.87026075  1
  Zn  Zn102  1  0.38203018  0.74820848  0.61804644  1
  Zn  Zn103  1  0.24731665  -0.00302168  0.76077329  1
  Zn  Zn104  1  0.00293389  0.12743647  0.62678379  1
  Zn  Zn105  1  0.00107328  0.37482463  0.37626039  1
  Zn  Zn106  1  -0.00083897  0.50818714  0.00231494  1
  Zn  Zn107  1  0.19066141  0.18252067  0.19010580  1
  Zn  Zn108  1  0.18884544  0.18735148  0.69360800  1
  Zn  Zn109  1  0.18935119  0.69243778  0.19145905  1
  Zn  Zn110  1  0.19171863  0.68804672  0.68946798  1
  Zn  Zn111  1  0.68111663  0.18397255  0.18385352  1
  Zn  Zn112  1  0.68689394  0.19192690  0.68813087  1
  Zn  Zn113  1  0.69099742  0.68790359  0.18419539  1
  Zn  Zn114  1  0.68540793  0.68796819  0.68405770  1
  Zn  Zn115  1  0.31431185  0.31062725  0.30672983  1
  Zn  Zn116  1  0.30918576  0.31008035  0.81491859  1
  Zn  Zn117  1  0.31903993  0.81203175  0.31766750  1
  Zn  Zn118  1  0.31056555  0.80921089  0.81160394  1
  Zn  Zn119  1  0.81281189  0.31291343  0.31280679  1
  Zn  Zn120  1  0.81067940  0.31270671  0.81457320  1
  Zn  Zn121  1  0.81854599  0.81676209  0.30583026  1
  Zn  Zn122  1  0.81026693  0.81008705  0.81227545  1
  Zn  Zn123  1  0.19073505  0.43396530  0.43560559  1
  Zn  Zn124  1  0.18371973  0.43945695  0.94004362  1
  Zn  Zn125  1  0.18799135  0.93574376  0.43918140  1
  Zn  Zn126  1  0.19064871  0.93474444  0.94213355  1
  Zn  Zn127  1  0.68632745  0.44095121  0.43709802  1
  Zn  Zn128  1  0.69140322  0.43737879  0.93863538  1
  Zn  Zn129  1  0.68562435  0.94267572  0.43534473  1
  Zn  Zn130  1  0.68692790  0.93437187  0.93741125  1
  Zn  Zn131  1  0.31437297  0.05693505  0.06338844  1
  Zn  Zn132  1  0.31580713  0.06263177  0.57333038  1
  Zn  Zn133  1  0.30824845  0.56348619  0.06307427  1
  Zn  Zn134  1  0.31056844  0.56327919  0.55997479  1
  Zn  Zn135  1  0.81027911  0.05878468  0.06023508  1
  Zn  Zn136  1  0.81284210  0.06422420  0.56067292  1
  Zn  Zn137  1  0.80270057  0.55575141  0.05652399  1
  Zn  Zn138  1  0.81075784  0.56380558  0.55992687  1
  Zn  Zn139  1  0.43731511  0.43693468  0.18778170  1
  Zn  Zn140  1  0.43659836  0.44127376  0.68900158  1
  Zn  Zn141  1  0.44127094  0.94182707  0.19396609  1
  Zn  Zn142  1  0.44031773  0.94607359  0.71043722  1
  Zn  Zn143  1  0.93961197  0.43412813  0.18632882  1
  Zn  Zn144  1  0.94263707  0.43795880  0.68639554  1
  Zn  Zn145  1  0.94082004  0.93637251  0.18706616  1
  Zn  Zn146  1  0.93624331  0.93557436  0.68556704  1
  Zn  Zn147  1  0.06734357  0.06264046  0.31301522  1
  Zn  Zn148  1  0.06516683  0.06511407  0.81395293  1
  Zn  Zn149  1  0.06235144  0.56177839  0.30980996  1
  Zn  Zn150  1  0.05316081  0.56099037  0.81195518  1
  Zn  Zn151  1  0.56679451  0.05488911  0.31138555  1
  Zn  Zn152  1  0.56026726  0.06216662  0.81269991  1
  Zn  Zn153  1  0.56238786  0.56421150  0.31498377  1
  Zn  Zn154  1  0.55871462  0.56374262  0.81520508  1
  Zn  Zn155  1  0.43442751  0.18749456  0.44047741  1
  Zn  Zn156  1  0.43376991  0.19183695  0.93877511  1
  Zn  Zn157  1  0.43806835  0.68650972  0.43676410  1
  Zn  Zn158  1  0.43590125  0.69071599  0.93693822  1
  Zn  Zn159  1  0.93508021  0.18761237  0.43857455  1
  Zn  Zn160  1  0.93732571  0.18348664  0.94012524  1
  Zn  Zn161  1  0.93874919  0.68628348  0.43801404  1
  Zn  Zn162  1  0.93491694  0.68447258  0.91686459  1
  Zn  Zn163  1  0.06132737  0.31005633  0.06560055  1
  Zn  Zn164  1  0.06207132  0.31396049  0.56539827  1
  Zn  Zn165  1  0.06947563  0.81743474  0.05983370  1
  Zn  Zn166  1  0.06140202  0.81127917  0.55854447  1
  Zn  Zn167  1  0.56138827  0.31028557  0.06763893  1
  Zn  Zn168  1  0.56350927  0.31786625  0.55941179  1
  Zn  Zn169  1  0.55767125  0.81465660  0.06134722  1
  Zn  Zn170  1  0.56318119  0.81415805  0.56799838  1
  O  O171  1  0.12367762  0.11917081  0.11895796  1
  O  O172  1  0.12508294  0.11487462  0.62471403  1
  O  O173  1  0.12922177  0.61160645  0.13229120  1
  O  O174  1  0.11142827  0.63019594  0.63081248  1
  O  O175  1  0.61202746  0.11585484  0.12324032  1
  O  O176  1  0.61914923  0.12882816  0.61602757  1
  O  O177  1  0.62404226  0.62212856  0.11676358  1
  O  O178  1  0.63177826  0.61238274  0.61462732  1
  O  O179  1  0.38356799  0.38278857  0.37244842  1
  O  O180  1  0.38131562  0.38039712  0.87647423  1
  O  O181  1  0.38900445  0.88394286  0.37503034  1
  O  O182  1  0.37536131  0.87753660  0.87561002  1
  O  O183  1  0.87686258  0.38454174  0.38058016  1
  O  O184  1  0.87246080  0.38401414  0.88153263  1
  O  O185  1  0.88439826  0.88329063  0.38001631  1
  O  O186  1  0.88961962  0.87891701  0.86698988  1
  O  O187  1  0.25721101  0.00586941  0.37407171  1
  O  O188  1  0.23960254  0.01613684  0.87555897  1
  O  O189  1  0.26063899  0.50494034  0.37402465  1
  O  O190  1  0.25866703  0.50096916  0.87486413  1
  O  O191  1  0.75811860  0.00984040  0.37219605  1
  O  O192  1  0.75459969  0.00426528  0.86735702  1
  O  O193  1  0.76006174  0.50622078  0.36970754  1
  O  O194  1  0.76748247  0.50271524  0.88025316  1
  O  O195  1  0.23802153  0.49203270  0.12655344  1
  O  O196  1  0.25262481  0.48691450  0.62609661  1
  O  O197  1  0.24359666  1.00635026  0.13921532  1
  O  O198  1  0.23238280  0.98877938  0.61087024  1
  O  O199  1  0.74814912  0.49133278  0.13576634  1
  O  O200  1  0.74284925  0.48825646  0.61922019  1
  O  O201  1  0.74015727  0.99222864  0.12217397  1
  O  O202  1  0.75125195  1.00083126  0.63825823  1
  O  O203  1  0.01079668  0.36477456  0.25107147  1
  O  O204  1  0.00774228  0.36441770  0.74728606  1
  O  O205  1  -0.00516606  0.86581442  0.25973453  1
  O  O206  1  0.00879676  0.87037616  0.75323218  1
  O  O207  1  0.50845077  0.37980752  0.26345237  1
  O  O208  1  0.50424707  0.37150569  0.75969596  1
  O  O209  1  0.50253830  0.86778832  0.26086434  1
  O  O210  1  0.51380569  0.86653439  0.74804588  1
  O  O211  1  0.49118941  0.11919618  0.24868722  1
  O  O212  1  0.50474044  0.14583340  0.73851426  1
  O  O213  1  0.49182551  0.63444166  0.25423445  1
  O  O214  1  0.49067880  0.63260282  0.75249202  1
  O  O215  1  1.00340535  0.13763120  0.25165916  1
  O  O216  1  0.99364283  0.13280963  0.74977200  1
  O  O217  1  0.98718772  0.63025371  0.25261136  1
  O  O218  1  0.98804487  0.62863804  0.74040507  1
  O  O219  1  0.37682640  0.25275358  0.01729870  1
  O  O220  1  0.36868521  0.25409344  0.51073803  1
  O  O221  1  0.36793137  0.75830370  0.00759643  1
  O  O222  1  0.36078141  0.74266700  0.50083536  1
  O  O223  1  0.86832065  0.25450767  0.00689232  1
  O  O224  1  0.86698551  0.25659888  0.50734358  1
  O  O225  1  0.87109813  0.73982854  0.00670259  1
  O  O226  1  0.88175280  0.76044967  0.50563110  1
  O  O227  1  0.13058366  0.24881061  0.49412133  1
  O  O228  1  0.11761432  0.24079133  0.99283994  1
  O  O229  1  0.13194117  0.75224780  0.48556118  1
  O  O230  1  0.13747989  0.75495642  0.99280732  1
  O  O231  1  0.63778810  0.24620262  0.50502277  1
  O  O232  1  0.63941383  0.25494555  0.99996707  1
  O  O233  1  0.62104455  0.73378693  0.50787045  1
  O  O234  1  0.63018671  0.74623590  0.99340591  1
  O  O235  1  0.49594622  0.23294290  0.12457648  1
  O  O236  1  0.49392774  0.25316513  0.62976481  1
  O  O237  1  0.49088986  0.74791757  0.13429589  1
  O  O238  1  0.49887571  0.75047930  0.63852703  1
  O  O239  1  0.99109987  0.24638001  0.13392569  1
  O  O240  1  0.99294583  0.24834759  0.63498053  1
  O  O241  1  0.99770191  0.75430408  0.12869535  1
  O  O242  1  0.99132162  0.74400863  0.62701521  1
  O  O243  1  0.00465041  0.25171020  0.37062515  1
  O  O244  1  0.00710263  0.24407052  0.86626076  1
  O  O245  1  0.00583710  0.75629732  0.36999018  1
  O  O246  1  0.00601835  0.75794634  0.86736465  1
  O  O247  1  0.49493238  0.26698988  0.38143038  1
  O  O248  1  0.50165421  0.25765058  0.86750040  1
  O  O249  1  0.49428605  0.76276092  0.36919964  1
  O  O250  1  0.51274029  0.74551943  0.86511958  1
  O  O251  1  0.25319720  0.13050309  0.49124198  1
  O  O252  1  0.23915028  0.12163912  0.99691560  1
  O  O253  1  0.24980130  0.62976047  0.48722760  1
  O  O254  1  0.25736522  0.64426394  0.99609370  1
  O  O255  1  0.74322754  0.13317190  0.49464776  1
  O  O256  1  0.75569924  0.13258966  0.98936254  1
  O  O257  1  0.73761494  0.62217007  0.49089134  1
  O  O258  1  0.73868745  0.63563078  1.00040567  1
  O  O259  1  0.24855696  0.37523242  0.01340987  1
  O  O260  1  0.25219182  0.36801799  0.50876632  1
  O  O261  1  0.26238586  0.85980222  -0.00708854  1
  O  O262  1  0.24713086  0.86398736  0.50781539  1
  O  O263  1  0.75904753  0.36637041  0.00595885  1
  O  O264  1  0.75351810  0.36970393  0.50514745  1
  O  O265  1  0.74970200  0.86201792  0.00446118  1
  O  O266  1  0.76246119  0.88184002  0.49863828  1
  O  O267  1  0.12497107  0.49029607  0.24177799  1
  O  O268  1  0.12248501  0.48542174  0.75943407  1
  O  O269  1  0.13652644  1.00494918  0.24343058  1
  O  O270  1  0.12498909  0.99232375  0.74097320  1
  O  O271  1  0.63769099  0.49764505  0.25406585  1
  O  O272  1  0.61783506  0.49086951  0.74267404  1
  O  O273  1  0.62953102  0.99745511  0.23497093  1
  O  O274  1  0.63323491  0.99240070  0.75139922  1
  O  O275  1  0.36922634  0.00756458  0.26158398  1
  O  O276  1  0.34844116  0.01660753  0.70714698  1
  O  O277  1  0.37217653  0.50849839  0.25674803  1
  O  O278  1  0.37277156  0.50676465  0.75856085  1
  O  O279  1  0.87459328  0.00002750  0.26088540  1
  O  O280  1  0.86942106  0.00325165  0.75569052  1
  O  O281  1  0.86820395  0.50419746  0.25619755  1
  O  O282  1  0.87891714  0.50277786  0.75936483  1
  O  O283  1  0.12474113  0.36779497  0.36585486  1
  O  O284  1  0.12989439  0.36342420  0.87036115  1
  O  O285  1  0.11235655  0.86937001  0.37821311  1
  O  O286  1  0.11685665  0.86950332  0.86699037  1
  O  O287  1  0.61176304  0.38057890  0.37036973  1
  O  O288  1  0.61855745  0.37625085  0.86844219  1
  O  O289  1  0.61148053  0.87957246  0.37274457  1
  O  O290  1  0.63026254  0.86466718  0.86597824  1
  O  O291  1  0.38610789  0.12607818  0.13054774  1
  O  O292  1  0.38760604  0.14000473  0.63022048  1
  O  O293  1  0.37249044  0.63140114  0.13774535  1
  O  O294  1  0.36933100  0.62505029  0.63783659  1
  O  O295  1  0.87612223  0.13506989  0.12175955  1
  O  O296  1  0.87526401  0.13222379  0.63303455  1
  O  O297  1  0.87041964  0.62445226  0.13130235  1
  O  O298  1  0.88000549  0.62991598  0.62660160  1
  O  O299  1  0.25815818  0.25665914  0.13159734  1
  O  O300  1  0.25717729  0.25490299  0.62330592  1
  O  O301  1  0.25582931  0.75039598  0.11566049  1
  O  O302  1  0.24889328  0.75747745  0.61575942  1
  O  O303  1  0.75549277  0.25135076  0.12004058  1
  O  O304  1  0.75521207  0.26130156  0.61957191  1
  O  O305  1  0.74705326  0.76181186  0.11589926  1
  O  O306  1  0.76401901  0.75091510  0.62580692  1
  O  O307  1  0.24807792  0.24319798  0.37962164  1
  O  O308  1  0.23752205  0.23954559  0.87451602  1
  O  O309  1  0.24376073  0.74442802  0.37932351  1
  O  O310  1  0.24036499  0.74800034  0.88196433  1
  O  O311  1  0.75715185  0.24351850  0.38625180  1
  O  O312  1  0.74853517  0.24074360  0.88232104  1
  O  O313  1  0.75684707  0.74085466  0.36878694  1
  O  O314  1  0.74189819  0.74634911  0.88243673  1
  O  O315  1  0.01169911  0.11465845  0.00098094  1
  O  O316  1  -0.00009480  0.11328260  0.50257762  1
  O  O317  1  -0.01400581  0.63541559  0.01357865  1
  O  O318  1  -0.00322020  0.61530829  0.50782333  1
  O  O319  1  0.49817200  0.12339780  0.00768644  1
  O  O320  1  0.50862627  0.12915277  0.50734734  1
  O  O321  1  0.51170738  0.62786401  0.00079281  1
  O  O322  1  0.51192039  0.61440361  0.49219841  1
  O  O323  1  0.49963525  0.38634835  0.48851790  1
  O  O324  1  0.50050235  0.37373144  0.98942127  1
  O  O325  1  0.50296191  0.87450026  0.48996780  1
  O  O326  1  0.48155287  0.86795696  0.99624224  1
  O  O327  1  0.99252301  0.38299849  0.50061800  1
  O  O328  1  0.98613567  0.37360881  1.00422281  1
  O  O329  1  0.99217628  0.88504326  0.49287334  1
  O  O330  1  1.00590231  0.88475957  0.98944618  1
  O  O331  1  0.49029790  0.49544955  0.37977985  1
  O  O332  1  0.48915770  0.49227621  0.87821132  1
  O  O333  1  0.49426444  0.98879073  0.37838559  1
  O  O334  1  0.45472624  1.02506216  0.80477334  1
  O  O335  1  0.98903755  0.50056593  0.38014582  1
  O  O336  1  0.98007172  0.50926724  0.88453370  1
  O  O337  1  0.99532589  0.99614161  0.37952677  1
  O  O338  1  0.99913331  0.99397352  0.88149766  1
  O  O339  1  0.00772134  0.00127466  0.11947379  1
  O  O340  1  0.00818612  -0.00058647  0.61744348  1
  O  O341  1  0.01449162  0.49700467  0.12431174  1
  O  O342  1  -0.00340547  0.50929275  0.61374812  1
  O  O343  1  0.50975663  0.00922727  0.12627271  1
  O  O344  1  0.50253428  0.01596920  0.62676474  1
  O  O345  1  0.50160307  0.50487798  0.12364812  1
  O  O346  1  0.50884765  0.49355826  0.61398551  1
  O  O347  1  0.23816249  0.37549908  0.24341830  1
  O  O348  1  0.24118911  0.37514273  0.74367989  1
  O  O349  1  0.25364083  0.88748114  0.26057400  1
  O  O350  1  0.23787668  0.87505569  0.74316125  1
  O  O351  1  0.74330017  0.38261108  0.24896041  1
  O  O352  1  0.74093265  0.37173641  0.74192444  1
  O  O353  1  0.74919241  0.87707051  0.23796040  1
  O  O354  1  0.74342450  0.88259058  0.74870704  1
  O  O355  1  0.25946850  0.11898215  0.26398873  1
  O  O356  1  0.25934605  0.12499693  0.76190448  1
  O  O357  1  0.25746514  0.62581257  0.26177298  1
  O  O358  1  0.25786294  0.62322697  0.75650401  1
  O  O359  1  0.74605010  0.12761654  0.26204795  1
  O  O360  1  0.75444346  0.11935335  0.75600299  1
  O  O361  1  0.75875591  0.61974251  0.25550138  1
  O  O362  1  0.76123125  0.62442477  0.74514259  1
  O  O363  1  0.37221745  0.11994695  0.36945990  1
  O  O364  1  0.36509207  0.13475362  0.86788485  1
  O  O365  1  0.36948144  0.61864722  0.36635417  1
  O  O366  1  0.37513022  0.61678118  0.86772235  1
  O  O367  1  0.86434026  0.11638961  0.38187300  1
  O  O368  1  0.86624087  0.11778733  0.86895184  1
  O  O369  1  0.86896045  0.61909397  0.36884063  1
  O  O370  1  0.86742191  0.61564704  0.86066695  1
  O  O371  1  0.13039670  0.37634680  0.13128192  1
  O  O372  1  0.13438280  0.36747734  0.63796501  1
  O  O373  1  0.12731399  0.88874854  0.12618553  1
  O  O374  1  0.12666167  0.87857628  0.63202212  1
  O  O375  1  0.63051420  0.37569160  0.13606891  1
  O  O376  1  0.63105981  0.38463006  0.63117875  1
  O  O377  1  0.62761431  0.88473157  0.12441664  1
  O  O378  1  0.63064027  0.87881360  0.63425934  1
  O  O379  1  0.11942602  0.25440475  0.25599846  1
  O  O380  1  0.11756888  0.25578765  0.75984739  1
  O  O381  1  0.11175853  0.74594705  0.25913009  1
  O  O382  1  0.11960851  0.75683350  0.75633640  1
  O  O383  1  0.63033660  0.26110734  0.25203047  1
  O  O384  1  0.61740143  0.26512437  0.75055239  1
  O  O385  1  0.61330706  0.75034450  0.24553858  1
  O  O386  1  0.62085424  0.75386862  0.75510220  1
  O  O387  1  0.37337243  0.23712824  0.23967996  1
  O  O388  1  0.38363954  0.24531903  0.74598768  1
  O  O389  1  0.38101165  0.74521694  0.24441314  1
  O  O390  1  0.38280220  0.74135005  0.74996989  1
  O  O391  1  0.88354405  0.25681080  0.24076665  1
  O  O392  1  0.88205821  0.24695156  0.74867403  1
  O  O393  1  0.88882996  0.74107556  0.25089994  1
  O  O394  1  0.87970342  0.74121647  0.74235868  1
  O  O395  1  0.38289228  0.49970007  0.49229870  1
  O  O396  1  0.37558322  0.49692450  0.99307984  1
  O  O397  1  0.37841915  1.00891854  0.48969121  1
  O  O398  1  0.36958193  0.98241261  0.99897691  1
  O  O399  1  0.87858990  0.49565053  0.49176107  1
  O  O400  1  0.87625211  0.49072840  0.99459366  1
  O  O401  1  0.88157110  0.99439527  0.49337186  1
  O  O402  1  0.88952005  1.00509366  0.99343906  1
  O  O403  1  0.12032271  0.00516158  0.00911062  1
  O  O404  1  0.11369510  0.00049149  0.50416536  1
  O  O405  1  0.11930288  0.50152871  0.01315596  1
  O  O406  1  0.11221214  0.49508485  0.49193617  1
  O  O407  1  0.62647188  -0.00256864  0.01247943  1
  O  O408  1  0.62225734  0.01145593  0.50532829  1
  O  O409  1  0.62456443  0.50913254  0.00107148  1
  O  O410  1  0.61851295  0.50580780  0.50705882  1
  O  O411  1  0.36617543  0.36572460  0.12920117  1
  O  O412  1  0.36834677  0.36633952  0.62778173  1
  O  O413  1  0.37715998  0.86801484  0.13003945  1
  O  O414  1  0.36301945  0.87251711  0.63458967  1
  O  O415  1  0.86858989  0.36651397  0.11907804  1
  O  O416  1  0.86724637  0.37229784  0.62225870  1
  O  O417  1  0.86328531  0.88187930  0.12241516  1
  O  O418  1  0.87458705  0.86692227  0.61487156  1
  O  O419  1  0.13612533  0.13094962  0.37883951  1
  O  O420  1  0.13013135  0.13363157  0.88309629  1
  O  O421  1  0.13333159  0.63287219  0.36901649  1
  O  O422  1  0.12018939  0.63779178  0.87038563  1
  O  O423  1  0.63201019  0.12146092  0.38570418  1
  O  O424  1  0.63597429  0.12563064  0.86955823  1
  O  O425  1  0.63383355  0.62219350  0.38731370  1
  O  O426  1  0.62795144  0.63072021  0.88148422  1
