# generated using pymatgen
data_V85Zn86O256
_symmetry_space_group_name_H-M   'P 1'
_cell_length_a   16.95406312
_cell_length_b   16.95614354
_cell_length_c   16.94062153
_cell_angle_alpha   89.98836495
_cell_angle_beta   90.06148047
_cell_angle_gamma   90.09617647
_symmetry_Int_Tables_number   1
_chemical_formula_structural   V85Zn86O256
_chemical_formula_sum   'V85 Zn86 O256'
_cell_volume   4870.00435182
_cell_formula_units_Z   1
loop_
 _symmetry_equiv_pos_site_id
 _symmetry_equiv_pos_as_xyz
  1  'x, y, z'
loop_
 _atom_site_type_symbol
 _atom_site_label
 _atom_site_symmetry_multiplicity
 _atom_site_fract_x
 _atom_site_fract_y
 _atom_site_fract_z
 _atom_site_occupancy
  V  V0  1  0.87934083  0.62718148  0.25399609  1
  V  V1  1  0.62812198  0.12744587  0.00093626  1
  V  V2  1  0.24498178  0.37196681  0.62962473  1
  V  V3  1  0.88705731  0.88212112  0.00091627  1
  V  V4  1  0.87929398  0.50113648  0.38320018  1
  V  V5  1  -0.01680462  0.12542743  0.61488714  1
  V  V6  1  0.11533400  0.24243057  0.86564512  1
  V  V7  1  0.49375021  0.49505853  -0.00005278  1
  V  V8  1  0.75188779  0.36791492  0.12128788  1
  V  V9  1  0.36935763  0.49231009  0.87597518  1
  V  V10  1  0.37568289  -0.00273099  0.87279814  1
  V  V11  1  0.50653799  0.24615656  0.74543188  1
  V  V12  1  0.74569265  0.87551632  0.61721782  1
  V  V13  1  0.50022126  0.37576884  0.37608558  1
  V  V14  1  -0.03832687  0.57951607  0.07807994  1
  V  V15  1  0.63038978  0.25152913  0.87793027  1
  V  V16  1  0.50515902  0.49970619  0.50832921  1
  V  V17  1  0.49953814  0.00378243  0.50606820  1
  V  V18  1  0.62799445  0.62462558  0.50661284  1
  V  V19  1  0.37055906  0.25603346  0.10877522  1
  V  V20  1  0.49726230  -0.00044716  0.00198634  1
  V  V21  1  0.75300910  0.24891985  0.49670892  1
  V  V22  1  0.12182188  0.74902780  0.37190966  1
  V  V23  1  0.37132464  0.76190965  0.61958416  1
  V  V24  1  0.49423258  0.12622876  0.12340763  1
  V  V25  1  0.74856526  0.38556424  0.61867576  1
  V  V26  1  0.12692336  0.62139719  0.00545838  1
  V  V27  1  0.50062166  0.87240040  0.87623935  1
  V  V28  1  0.87095021  0.75382448  0.61939563  1
  V  V29  1  0.87667636  0.00447840  0.38104458  1
  V  V30  1  0.00290237  0.75073975  0.24430370  1
  V  V31  1  0.37582011  0.86786697  0.01138111  1
  V  V32  1  0.87358729  0.62817511  0.75709614  1
  V  V33  1  0.25423501  -0.00366383  0.73652080  1
  V  V34  1  0.61893421  0.49917489  0.12689198  1
  V  V35  1  0.25412874  0.13041762  0.87883444  1
  V  V36  1  0.74778909  0.50158890  0.25302734  1
  V  V37  1  0.24523953  0.48577930  0.25169173  1
  V  V38  1  0.74876851  0.88108340  0.12578674  1
  V  V39  1  0.62456821  0.38122137  0.74246722  1
  V  V40  1  0.12133972  0.00513504  0.60169024  1
  V  V41  1  0.00199012  0.75823755  0.74884714  1
  V  V42  1  0.25358964  0.74918759  0.01127133  1
  V  V43  1  0.62129497  0.62794161  -0.00090077  1
  V  V44  1  0.37430300  0.37522334  0.50135852  1
  V  V45  1  0.37500259  -0.00044996  0.37482639  1
  V  V46  1  0.25174171  0.76467842  0.50066295  1
  V  V47  1  0.00582873  0.37859033  0.37723972  1
  V  V48  1  0.01066237  0.25624174  0.24400576  1
  V  V49  1  0.11787576  0.49513724  0.62585001  1
  V  V50  1  0.74984036  0.75617421  -0.00098774  1
  V  V51  1  0.24139628  0.37178373  0.10065947  1
  V  V52  1  0.62534897  0.75209073  0.37742686  1
  V  V53  1  0.49252636  0.63266869  0.12530091  1
  V  V54  1  0.75737575  0.12541945  0.87460062  1
  V  V55  1  0.36628404  0.12408908  0.24639784  1
  V  V56  1  0.88228206  0.87871089  0.50071605  1
  V  V57  1  0.13196250  0.87841288  0.74080256  1
  V  V58  1  -0.00116601  0.62509419  0.62291403  1
  V  V59  1  0.24998585  0.62096219  0.37619770  1
  V  V60  1  0.74974679  0.63143225  0.38099900  1
  V  V61  1  0.49696517  0.87529207  0.37917669  1
  V  V62  1  0.49477652  0.25208401  0.24939873  1
  V  V63  1  0.75322142  -0.00144681  0.75104438  1
  V  V64  1  0.38377748  0.12302602  0.74429783  1
  V  V65  1  0.62470485  0.12827595  0.51553366  1
  V  V66  1  0.12456030  0.25145629  0.38467573  1
  V  V67  1  0.62298189  0.37527134  0.25178101  1
  V  V68  1  0.12502672  0.62027218  0.50212522  1
  V  V69  1  0.62639844  0.23914770  0.37370173  1
  V  V70  1  0.24939967  0.87980294  0.14155528  1
  V  V71  1  0.24944939  0.62709352  0.87563631  1
  V  V72  1  0.87906287  0.37393380  0.50338910  1
  V  V73  1  0.49916209  0.74944597  0.74759520  1
  V  V74  1  0.24228265  0.49845881  0.75091594  1
  V  V75  1  0.37202392  0.62788370  0.24798276  1
  V  V76  1  0.37969669  0.24520564  0.62441712  1
  V  V77  1  0.01156551  0.10013973  0.13098839  1
  V  V78  1  0.74696561  0.00635651  0.25652014  1
  V  V79  1  0.88579599  0.00208806  0.87411282  1
  V  V80  1  0.87391324  0.12922191  0.25605373  1
  V  V81  1  0.74682236  0.50573144  0.75488739  1
  V  V82  1  0.49893757  0.37446358  0.87467363  1
  V  V83  1  0.37382268  0.62347378  0.74524803  1
  V  V84  1  0.24776290  0.12696069  0.37913847  1
  Zn  Zn85  1  0.12904934  0.75587640  0.87550753  1
  Zn  Zn86  1  0.00773285  0.88464817  0.87582274  1
  Zn  Zn87  1  0.80856672  0.29958129  -0.03586962  1
  Zn  Zn88  1  0.62386261  0.87690381  0.25159499  1
  Zn  Zn89  1  0.93268650  0.45698027  0.93905800  1
  Zn  Zn90  1  0.87718385  0.75094330  0.12466438  1
  Zn  Zn91  1  0.24580973  0.24665220  0.50510460  1
  Zn  Zn92  1  0.62332487  0.00283450  0.12726154  1
  Zn  Zn93  1  0.49692768  0.75391847  0.24883347  1
  Zn  Zn94  1  0.62592572  0.75024234  0.87302361  1
  Zn  Zn95  1  0.62241961  0.00508579  0.63107028  1
  Zn  Zn96  1  -0.00635159  0.34757232  0.86190063  1
  Zn  Zn97  1  0.12506375  0.11703326  0.00243205  1
  Zn  Zn98  1  0.75303813  0.62524203  0.87857328  1
  Zn  Zn99  1  0.00096105  0.87857252  0.37339670  1
  Zn  Zn100  1  0.91006342  0.26942645  0.67690109  1
  Zn  Zn101  1  0.12025864  0.49514256  0.12672552  1
  Zn  Zn102  1  0.50270450  0.62308489  0.62514059  1
  Zn  Zn103  1  0.62457404  0.87437732  0.74796045  1
  Zn  Zn104  1  0.87836461  0.24792315  0.12495331  1
  Zn  Zn105  1  0.37528243  0.49906760  0.37519196  1
  Zn  Zn106  1  0.09797716  0.92871833  0.21560754  1
  Zn  Zn107  1  0.18840586  0.19496568  0.18985804  1
  Zn  Zn108  1  0.18988744  0.17736187  0.68435525  1
  Zn  Zn109  1  0.18763935  0.68385524  0.18684215  1
  Zn  Zn110  1  0.18853073  0.69023435  0.68461441  1
  Zn  Zn111  1  0.68429626  0.18565582  0.18967858  1
  Zn  Zn112  1  0.72001459  0.20258210  0.69723758  1
  Zn  Zn113  1  0.68657289  0.69075404  0.18864324  1
  Zn  Zn114  1  0.68745157  0.69219629  0.68623504  1
  Zn  Zn115  1  0.31294997  0.30950764  0.31350607  1
  Zn  Zn116  1  0.31077801  0.31158277  0.80997128  1
  Zn  Zn117  1  0.31673981  0.80701242  0.32080945  1
  Zn  Zn118  1  0.31288913  0.81219903  0.81409198  1
  Zn  Zn119  1  0.81378038  0.31277563  0.31312346  1
  Zn  Zn120  1  0.83324020  0.33153676  0.79829714  1
  Zn  Zn121  1  0.81189899  0.81433334  0.31366238  1
  Zn  Zn122  1  0.81439348  0.81759651  0.81193164  1
  Zn  Zn123  1  0.18625992  0.43704655  0.44206124  1
  Zn  Zn124  1  0.13297159  0.41622509  0.94866542  1
  Zn  Zn125  1  0.17436630  0.95033052  0.40047664  1
  Zn  Zn126  1  0.18719153  0.94053982  0.93262458  1
  Zn  Zn127  1  0.68606232  0.44057682  0.43526971  1
  Zn  Zn128  1  0.68465290  0.44188972  0.93477654  1
  Zn  Zn129  1  0.68779804  0.94033436  0.43922360  1
  Zn  Zn130  1  0.68671759  0.94127412  0.93819293  1
  Zn  Zn131  1  0.27942041  0.03814531  0.04773710  1
  Zn  Zn132  1  0.31311209  0.05990303  0.55749163  1
  Zn  Zn133  1  0.31004476  0.55701817  0.06350921  1
  Zn  Zn134  1  0.31117689  0.56174095  0.56359050  1
  Zn  Zn135  1  0.81880545  0.06991608  0.06324173  1
  Zn  Zn136  1  0.80477240  0.06319478  0.55896332  1
  Zn  Zn137  1  0.79460132  0.56341417  0.06692951  1
  Zn  Zn138  1  0.81323824  0.56270248  0.56477947  1
  Zn  Zn139  1  0.42901384  0.43755644  0.18581728  1
  Zn  Zn140  1  0.43578697  0.43537866  0.68744090  1
  Zn  Zn141  1  0.43527689  0.93812737  0.19074590  1
  Zn  Zn142  1  0.44033963  0.93547700  0.68468543  1
  Zn  Zn143  1  0.93042946  0.43228731  0.19511544  1
  Zn  Zn144  1  0.95702581  0.45801930  0.73388900  1
  Zn  Zn145  1  0.92610977  0.93457992  0.19543414  1
  Zn  Zn146  1  0.94254708  0.94869961  0.68550972  1
  Zn  Zn147  1  0.05791174  0.07087590  0.32383028  1
  Zn  Zn148  1  0.06833086  0.07027588  0.79880170  1
  Zn  Zn149  1  0.06322949  0.56127001  0.30994370  1
  Zn  Zn150  1  0.06301860  0.56815167  0.81852171  1
  Zn  Zn151  1  0.55767996  0.06291370  0.31103624  1
  Zn  Zn152  1  0.56673508  0.06100567  0.81237648  1
  Zn  Zn153  1  0.55927487  0.56336231  0.31670879  1
  Zn  Zn154  1  0.56162226  0.56272796  0.81347248  1
  Zn  Zn155  1  0.43902552  0.18573714  0.43840528  1
  Zn  Zn156  1  0.43952149  0.18587999  0.93331073  1
  Zn  Zn157  1  0.43672521  0.68646932  0.43741121  1
  Zn  Zn158  1  0.43423461  0.68518651  0.93495321  1
  Zn  Zn159  1  0.94194901  0.18617720  0.44233840  1
  Zn  Zn160  1  0.94459128  0.17427477  0.94968661  1
  Zn  Zn161  1  0.93899614  0.69079741  0.44081720  1
  Zn  Zn162  1  0.93770528  0.70000532  0.93326449  1
  Zn  Zn163  1  0.06151954  0.30153824  0.04826821  1
  Zn  Zn164  1  0.05904770  0.31174213  0.56510160  1
  Zn  Zn165  1  0.06836431  0.80954882  0.06452392  1
  Zn  Zn166  1  0.06674537  0.81450707  0.56198335  1
  Zn  Zn167  1  0.56123344  0.31268354  0.06247856  1
  Zn  Zn168  1  0.56413654  0.31148462  0.56281325  1
  Zn  Zn169  1  0.56490015  0.81356811  0.06469352  1
  Zn  Zn170  1  0.56168906  0.81202704  0.55916110  1
  O  O171  1  0.11137270  0.12877549  0.13607814  1
  O  O172  1  0.13300467  0.10667829  0.61412258  1
  O  O173  1  0.12483142  0.62006187  0.11486388  1
  O  O174  1  0.11828046  0.61919081  0.62064152  1
  O  O175  1  0.61498579  0.12737879  0.11695657  1
  O  O176  1  0.63308045  0.13002643  0.61657952  1
  O  O177  1  0.61843772  0.61942976  0.11625266  1
  O  O178  1  0.62422250  0.63227534  0.61037474  1
  O  O179  1  0.38084896  0.37411557  0.38560174  1
  O  O180  1  0.37988643  0.38608297  0.86663406  1
  O  O181  1  0.38400949  0.88628074  0.37043987  1
  O  O182  1  0.38568876  0.87741990  0.88204190  1
  O  O183  1  0.88111266  0.38426913  0.38109836  1
  O  O184  1  0.86615445  0.37129465  0.89747524  1
  O  O185  1  0.87300444  0.88192356  0.38472761  1
  O  O186  1  0.88038238  0.88422000  0.88335155  1
  O  O187  1  0.26944513  0.01156928  0.38009857  1
  O  O188  1  0.26212201  0.00679888  0.85993824  1
  O  O189  1  0.24994235  0.50122233  0.36631451  1
  O  O190  1  0.25693954  0.50655362  0.86503391  1
  O  O191  1  0.75621753  -0.00346185  0.36271406  1
  O  O192  1  0.75659599  0.00422524  0.86921021  1
  O  O193  1  0.75576418  0.51114165  0.36996119  1
  O  O194  1  0.74709676  0.50569685  0.86146653  1
  O  O195  1  0.25106599  0.48285570  0.13235195  1
  O  O196  1  0.24102813  0.49330775  0.63106668  1
  O  O197  1  0.26588007  0.97875899  0.14437915  1
  O  O198  1  0.24883005  1.00014909  0.63155335  1
  O  O199  1  0.73822670  0.49107280  0.13382546  1
  O  O200  1  0.74789773  0.49141444  0.62862287  1
  O  O201  1  0.75047110  0.99576018  0.13473621  1
  O  O202  1  0.74690268  0.99315395  0.63377811  1
  O  O203  1  -0.00698324  0.36251513  0.26141666  1
  O  O204  1  -0.05008802  0.34865722  0.75365746  1
  O  O205  1  0.00043127  0.86573896  0.25355725  1
  O  O206  1  0.00927711  0.87215295  0.74753637  1
  O  O207  1  0.50152417  0.37206160  0.25454299  1
  O  O208  1  0.50831383  0.37148940  0.75464400  1
  O  O209  1  0.50333023  0.87440356  0.26154358  1
  O  O210  1  0.49936719  0.86636916  0.75866809  1
  O  O211  1  0.49265282  0.13389186  0.24170992  1
  O  O212  1  0.49151846  0.12787194  0.75264278  1
  O  O213  1  0.49110367  0.62028238  0.24111211  1
  O  O214  1  0.49230369  0.63093019  0.74812345  1
  O  O215  1  0.99618405  0.13834341  0.24730310  1
  O  O216  1  1.00186027  0.10672496  0.71664618  1
  O  O217  1  0.98534598  0.62946417  0.25543784  1
  O  O218  1  0.99325720  0.63619648  0.74085693  1
  O  O219  1  0.38341901  0.25189120  0.01083560  1
  O  O220  1  0.37777926  0.26078279  0.50759014  1
  O  O221  1  0.36816810  0.75720800  -0.00443875  1
  O  O222  1  0.36372172  0.74244735  0.50748419  1
  O  O223  1  0.86717859  0.22155406  0.01600522  1
  O  O224  1  0.86332157  0.26108513  0.48612502  1
  O  O225  1  0.86650435  0.76074525  0.00269653  1
  O  O226  1  0.87555050  0.75668763  0.51275948  1
  O  O227  1  0.12754661  0.25832497  0.48877917  1
  O  O228  1  0.12538831  0.23118949  0.97932010  1
  O  O229  1  0.13231432  0.73688347  0.49902175  1
  O  O230  1  0.13651684  0.74253797  0.99774101  1
  O  O231  1  0.62656937  0.24469501  0.49105012  1
  O  O232  1  0.61478636  0.24055231  0.99021877  1
  O  O233  1  0.61963681  0.74002403  0.48620218  1
  O  O234  1  0.63086397  0.74418286  0.99938050  1
  O  O235  1  0.48752131  0.24971224  0.12935155  1
  O  O236  1  0.49163293  0.25586019  0.63351466  1
  O  O237  1  0.50477688  0.73594026  0.12716319  1
  O  O238  1  0.49191330  0.74733111  0.63090630  1
  O  O239  1  1.00056254  0.25676155  0.13814179  1
  O  O240  1  0.99843864  0.23393542  0.61939368  1
  O  O241  1  0.99873975  0.75198332  0.13861548  1
  O  O242  1  0.99569269  0.74542188  0.63303614  1
  O  O243  1  0.00652946  0.25697365  0.36850609  1
  O  O244  1  0.00969861  0.22813707  0.87216745  1
  O  O245  1  0.00500418  0.74671949  0.36469655  1
  O  O246  1  0.00409018  0.75682195  0.85857088  1
  O  O247  1  0.50592508  0.25731309  0.36981056  1
  O  O248  1  0.50843710  0.25551963  0.86635918  1
  O  O249  1  0.50517569  0.75856899  0.37518251  1
  O  O250  1  0.49818683  0.75569964  0.86637234  1
  O  O251  1  0.26105664  0.13200417  0.48399481  1
  O  O252  1  0.27359111  0.13032052  0.97758592  1
  O  O253  1  0.24189450  0.62365140  0.49317637  1
  O  O254  1  0.24686839  0.63079714  0.99721328  1
  O  O255  1  0.73949258  0.13802102  0.49789637  1
  O  O256  1  0.73336506  0.11371599  0.99363373  1
  O  O257  1  0.74246324  0.61994867  0.49118865  1
  O  O258  1  0.73886541  0.63587401  0.99922932  1
  O  O259  1  0.24151906  0.38156917  0.00279864  1
  O  O260  1  0.25835738  0.37467659  0.51241944  1
  O  O261  1  0.25973900  0.86611469  0.00867887  1
  O  O262  1  0.24669368  0.86037533  0.48740082  1
  O  O263  1  0.73746541  0.37810960  0.01701783  1
  O  O264  1  0.75464026  0.37591299  0.50185475  1
  O  O265  1  0.75456905  0.87182243  0.00643832  1
  O  O266  1  0.75753953  0.87881605  0.51238291  1
  O  O267  1  0.14175489  0.50553101  0.24612917  1
  O  O268  1  0.13816992  0.50812551  0.74232346  1
  O  O269  1  0.13132291  0.99031399  0.29942967  1
  O  O270  1  0.13850816  0.99417475  0.73959476  1
  O  O271  1  0.62713502  0.49632716  0.24737633  1
  O  O272  1  0.63038681  0.49330392  0.75230626  1
  O  O273  1  0.63267005  1.00186837  0.24831251  1
  O  O274  1  0.63420934  0.99344000  0.74971180  1
  O  O275  1  0.38518247  0.01594099  0.25998630  1
  O  O276  1  0.37488291  0.00505703  0.75007503  1
  O  O277  1  0.36206177  0.50663076  0.25212457  1
  O  O278  1  0.36698133  0.50657357  0.75259663  1
  O  O279  1  0.86543836  0.00778408  0.26006135  1
  O  O280  1  0.86218879  -0.00690996  0.75868726  1
  O  O281  1  0.86783985  0.50755319  0.26216002  1
  O  O282  1  0.85926875  0.51999213  0.73766970  1
  O  O283  1  0.11197903  0.37394277  0.38012947  1
  O  O284  1  0.12552341  0.34582698  0.85811745  1
  O  O285  1  0.11792545  0.85114055  0.38674744  1
  O  O286  1  0.12489866  0.87664708  0.86166247  1
  O  O287  1  0.61749019  0.36943159  0.36932737  1
  O  O288  1  0.62143743  0.36863955  0.86694012  1
  O  O289  1  0.62144230  0.86694924  0.37501147  1
  O  O290  1  0.61080399  0.87274081  0.87736564  1
  O  O291  1  0.37524014  0.14024786  0.13139364  1
  O  O292  1  0.37179348  0.13755661  0.62841184  1
  O  O293  1  0.38240796  0.61762707  0.13278496  1
  O  O294  1  0.37513008  0.62871048  0.63614029  1
  O  O295  1  0.89351875  0.11729356  0.14204185  1
  O  O296  1  0.88140402  0.12232222  0.61736926  1
  O  O297  1  0.87590602  0.62589826  0.13421902  1
  O  O298  1  0.88115634  0.63527012  0.62870299  1
  O  O299  1  0.25858210  0.26182658  0.12342837  1
  O  O300  1  0.25634975  0.25660218  0.62597572  1
  O  O301  1  0.25112211  0.75268512  0.11500040  1
  O  O302  1  0.25753747  0.74606709  0.61204356  1
  O  O303  1  0.74554158  0.26612009  0.13294522  1
  O  O304  1  0.73797796  0.26926416  0.60233908  1
  O  O305  1  0.75047701  0.75865920  0.11515071  1
  O  O306  1  0.76043178  0.76209562  0.63123691  1
  O  O307  1  0.24157202  0.24715368  0.37767348  1
  O  O308  1  0.25069047  0.23278777  0.86474686  1
  O  O309  1  0.24241885  0.73871931  0.38179472  1
  O  O310  1  0.25184310  0.74265696  0.88409169  1
  O  O311  1  0.73682294  0.26101853  0.38337133  1
  O  O312  1  0.73742067  0.24084241  0.88393299  1
  O  O313  1  0.74341772  0.73852705  0.37117052  1
  O  O314  1  0.74793499  0.75278870  0.88707454  1
  O  O315  1  0.00468529  0.10890887  0.02735960  1
  O  O316  1  0.00137364  0.12057045  0.51140516  1
  O  O317  1  0.00932582  0.63851164  0.00292536  1
  O  O318  1  0.00637823  0.62929902  0.51511278  1
  O  O319  1  0.50510617  0.11923354  0.00393102  1
  O  O320  1  0.51189207  0.11723184  0.49651360  1
  O  O321  1  0.50246772  0.61828943  0.00594757  1
  O  O322  1  0.50730924  0.61583077  0.49959706  1
  O  O323  1  0.49494430  0.38076091  0.49713969  1
  O  O324  1  0.50568733  0.38878965  0.99324752  1
  O  O325  1  0.50726307  0.88618474  0.48660183  1
  O  O326  1  0.49375098  0.87676103  0.99649566  1
  O  O327  1  0.98913454  0.37171883  0.49165274  1
  O  O328  1  1.02075066  0.38132219  0.97629444  1
  O  O329  1  0.98559815  0.86819842  0.49828823  1
  O  O330  1  0.99062755  0.86966537  1.00012130  1
  O  O331  1  0.49668050  0.49217888  0.38615282  1
  O  O332  1  0.49116796  0.49582437  0.88079364  1
  O  O333  1  0.49492879  0.99494129  0.38170570  1
  O  O334  1  0.49491233  0.99193154  0.88048982  1
  O  O335  1  0.99083487  0.49195836  0.36871342  1
  O  O336  1  0.99490953  0.48483428  0.84433863  1
  O  O337  1  0.98046736  0.99734197  0.37371168  1
  O  O338  1  0.98891886  1.00637507  0.86611157  1
  O  O339  1  0.01333198  -0.00027223  0.15003235  1
  O  O340  1  0.01531946  0.00089055  0.61265615  1
  O  O341  1  0.00168669  0.50152949  0.13556064  1
  O  O342  1  0.01162049  0.50880119  0.63962812  1
  O  O343  1  0.49822494  0.00709449  0.11867747  1
  O  O344  1  0.50434260  -0.00461815  0.61136287  1
  O  O345  1  0.50056667  0.50491316  0.11704383  1
  O  O346  1  0.49541989  0.50118156  0.61278302  1
  O  O347  1  0.25268893  0.38516164  0.24965599  1
  O  O348  1  0.25592521  0.38415180  0.73714616  1
  O  O349  1  0.25521225  0.85790355  0.23908464  1
  O  O350  1  0.24594977  0.88381105  0.75233136  1
  O  O351  1  0.74304848  0.38182890  0.24463598  1
  O  O352  1  0.74315522  0.38963761  0.73962599  1
  O  O353  1  0.74943096  0.88359706  0.24160961  1
  O  O354  1  0.74728693  0.88135604  0.74174194  1
  O  O355  1  0.26078441  0.13515788  0.25939821  1
  O  O356  1  0.26739444  0.11526687  0.75258751  1
  O  O357  1  0.25608560  0.61601855  0.25538813  1
  O  O358  1  0.25660928  0.61978712  0.75270651  1
  O  O359  1  0.75988777  0.11873037  0.24456895  1
  O  O360  1  0.73663548  0.11037708  0.76694869  1
  O  O361  1  0.75961181  0.62221909  0.25583758  1
  O  O362  1  0.75432337  0.62412854  0.75153298  1
  O  O363  1  0.37223548  0.12360205  0.36496638  1
  O  O364  1  0.37374136  0.11879212  0.86290430  1
  O  O365  1  0.36771557  0.61928541  0.36928452  1
  O  O366  1  0.37077005  0.61559405  0.86271717  1
  O  O367  1  0.87835613  0.12056832  0.36468283  1
  O  O368  1  0.86252812  0.11647586  0.88290379  1
  O  O369  1  0.86867453  0.62146781  0.37389457  1
  O  O370  1  0.87404442  0.63506391  0.86109406  1
  O  O371  1  0.13860327  0.37223576  0.11782916  1
  O  O372  1  0.13090086  0.38378748  0.62169805  1
  O  O373  1  0.14255155  0.87275220  0.12769661  1
  O  O374  1  0.12430299  0.88435437  0.63368424  1
  O  O375  1  0.62797300  0.37987709  0.13330223  1
  O  O376  1  0.62890616  0.37511159  0.63586729  1
  O  O377  1  0.63680292  0.87892401  0.12720506  1
  O  O378  1  0.63341365  0.87473870  0.62487028  1
  O  O379  1  0.11353207  0.25271287  0.26072384  1
  O  O380  1  0.12685420  0.22212353  0.76597498  1
  O  O381  1  0.11577888  0.73714523  0.26005308  1
  O  O382  1  0.11964810  0.75937559  0.74697932  1
  O  O383  1  0.61588026  0.25483372  0.25610005  1
  O  O384  1  0.62536911  0.25961382  0.75753168  1
  O  O385  1  0.62060010  0.74918887  0.26320663  1
  O  O386  1  0.61078909  0.75050227  0.75189164  1
  O  O387  1  0.38071209  0.24485533  0.24455012  1
  O  O388  1  0.38336057  0.24212211  0.74291452  1
  O  O389  1  0.37850978  0.73219110  0.25632372  1
  O  O390  1  0.38186362  0.74278396  0.74428683  1
  O  O391  1  0.88345617  0.24387907  0.24834053  1
  O  O392  1  0.82228253  0.23898485  0.73752706  1
  O  O393  1  0.88017885  0.74313788  0.24861926  1
  O  O394  1  0.88230375  0.74924018  0.74004602  1
  O  O395  1  0.37987443  0.48768975  0.50150240  1
  O  O396  1  0.38202185  0.50546390  0.98785091  1
  O  O397  1  0.38932678  1.00795421  0.48967959  1
  O  O398  1  0.37786479  0.98721929  0.99358632  1
  O  O399  1  0.87176588  0.49451550  0.48904847  1
  O  O400  1  0.88974794  0.52743037  1.01522345  1
  O  O401  1  0.86437631  0.99159325  0.49092244  1
  O  O402  1  0.86990962  0.99130243  0.99034453  1
  O  O403  1  0.17007857  0.01383514  0.01290582  1
  O  O404  1  0.13672732  -0.01160106  0.50554210  1
  O  O405  1  0.12739712  0.51669597  0.00184064  1
  O  O406  1  0.12667786  0.51123687  0.51124203  1
  O  O407  1  0.61414173  0.00782686  0.00208289  1
  O  O408  1  0.62096305  0.01313299  0.50137143  1
  O  O409  1  0.61575155  0.50946402  0.00448420  1
  O  O410  1  0.61580886  0.51017710  0.49455076  1
  O  O411  1  0.36350266  0.36297103  0.12432803  1
  O  O412  1  0.36792578  0.36563427  0.62075284  1
  O  O413  1  0.37233834  0.87110952  0.11678969  1
  O  O414  1  0.37586376  0.86100706  0.62636700  1
  O  O415  1  0.85604121  0.37453706  0.12755960  1
  O  O416  1  0.86429210  0.37302804  0.60850249  1
  O  O417  1  0.86405014  0.87588825  0.11789518  1
  O  O418  1  0.87066119  0.87230431  0.61915913  1
  O  O419  1  0.13617391  0.13933949  0.37459053  1
  O  O420  1  0.14435903  0.11701703  0.87492487  1
  O  O421  1  0.12738574  0.62778793  0.38499928  1
  O  O422  1  0.13317185  0.63104754  0.88246304  1
  O  O423  1  0.62017458  0.13743202  0.37720633  1
  O  O424  1  0.62877174  0.13271887  0.88226231  1
  O  O425  1  0.63219582  0.63024567  0.38164170  1
  O  O426  1  0.62310328  0.62808808  0.88879946  1
