# generated using pymatgen
data_V85Zn86O256
_symmetry_space_group_name_H-M   'P 1'
_cell_length_a   16.93804469
_cell_length_b   16.94419609
_cell_length_c   16.94219298
_cell_angle_alpha   90.02335349
_cell_angle_beta   90.02205572
_cell_angle_gamma   90.04158245
_symmetry_Int_Tables_number   1
_chemical_formula_structural   V85Zn86O256
_chemical_formula_sum   'V85 Zn86 O256'
_cell_volume   4862.43361015
_cell_formula_units_Z   1
loop_
 _symmetry_equiv_pos_site_id
 _symmetry_equiv_pos_as_xyz
  1  'x, y, z'
loop_
 _atom_site_type_symbol
 _atom_site_label
 _atom_site_symmetry_multiplicity
 _atom_site_fract_x
 _atom_site_fract_y
 _atom_site_fract_z
 _atom_site_occupancy
  V  V0  1  0.01322603  0.62252439  0.12673361  1
  V  V1  1  0.49662830  0.25162732  0.74384650  1
  V  V2  1  0.37710311  0.63491357  0.24388009  1
  V  V3  1  0.37937864  0.75923416  0.62720493  1
  V  V4  1  0.62492250  0.25065935  0.87417981  1
  V  V5  1  0.19333788  0.82955096  0.68001986  1
  V  V6  1  0.37476903  0.50211026  0.87533344  1
  V  V7  1  0.61952432  0.86781779  0.25179662  1
  V  V8  1  -0.00233875  0.87084837  0.36650912  1
  V  V9  1  -0.00242137  0.38475816  0.88022254  1
  V  V10  1  0.87506083  0.24977952  0.62519315  1
  V  V11  1  0.24684479  0.12606482  0.37090592  1
  V  V12  1  0.50054008  0.37614084  0.87492259  1
  V  V13  1  0.24777041  0.75802064  0.49748092  1
  V  V14  1  0.75494392  0.25021568  0.00091915  1
  V  V15  1  0.87513563  0.49637201  0.37259313  1
  V  V16  1  0.25258820  0.49609565  0.74800768  1
  V  V17  1  0.11529994  0.62416839  0.49463369  1
  V  V18  1  0.38037759  0.62520472  0.74867149  1
  V  V19  1  0.50073461  0.50243519  0.00065761  1
  V  V20  1  0.24186727  0.49811943  0.24356172  1
  V  V21  1  0.26455894  0.25078644  0.50154011  1
  V  V22  1  0.74406453  0.62397931  0.38230053  1
  V  V23  1  0.49042460  0.12603278  0.62401065  1
  V  V24  1  0.11878557  0.49344920  0.62260332  1
  V  V25  1  0.49319506  0.87216203  0.37475729  1
  V  V26  1  0.24727552  0.00604251  0.75896425  1
  V  V27  1  0.12287526  0.61327892  -0.00853094  1
  V  V28  1  0.87330738  -0.00210942  0.87345218  1
  V  V29  1  0.74900201  0.86387450  0.12380467  1
  V  V30  1  0.25267582  0.24593238  -0.00063185  1
  V  V31  1  0.37197400  0.12788938  0.76072001  1
  V  V32  1  0.12061188  0.87665740  0.23650078  1
  V  V33  1  0.12589890  0.12826578  0.49798107  1
  V  V34  1  0.24497971  0.00289473  0.24035192  1
  V  V35  1  0.49826564  0.63839903  0.12736348  1
  V  V36  1  0.76231776  0.63900665  0.88133572  1
  V  V37  1  0.24799447  0.75037003  -0.00673136  1
  V  V38  1  0.75146841  0.12308925  0.87310476  1
  V  V39  1  0.00099895  -0.00448519  0.00418448  1
  V  V40  1  -0.00145088  0.24828961  0.75368111  1
  V  V41  1  0.62531130  0.00270029  0.62823980  1
  V  V42  1  0.61670333  0.24860032  0.37152785  1
  V  V43  1  0.76099612  0.50216381  0.76339584  1
  V  V44  1  0.04426132  0.43947580  0.43996478  1
  V  V45  1  0.62538192  -0.00080117  0.12728288  1
  V  V46  1  0.87623202  0.37904014  0.49858490  1
  V  V47  1  0.63255766  0.87687697  0.75921473  1
  V  V48  1  0.00217646  0.00088630  0.49885357  1
  V  V49  1  0.86988002  0.12044329  0.74819805  1
  V  V50  1  0.87221675  0.86975443  0.49939282  1
  V  V51  1  0.50438274  0.62898695  0.61498536  1
  V  V52  1  0.23694995  0.37626549  0.12685042  1
  V  V53  1  0.11999578  0.75057577  0.36548622  1
  V  V54  1  0.74840863  0.49973412  0.25076878  1
  V  V55  1  0.26054295  0.86894835  0.12489488  1
  V  V56  1  0.74937765  0.37492999  0.12660280  1
  V  V57  1  0.12689036  0.11920987  0.00393773  1
  V  V58  1  0.61785452  0.74641866  0.38268704  1
  V  V59  1  0.74913627  0.12569322  0.37374835  1
  V  V60  1  0.12857904  0.24218474  0.87580173  1
  V  V61  1  -0.00456726  0.62867907  0.63562249  1
  V  V62  1  0.38308786  0.25407958  0.13034180  1
  V  V63  1  0.87289550  0.86496718  -0.00032814  1
  V  V64  1  0.51065008  0.74999538  0.75974763  1
  V  V65  1  0.13131277  0.00322313  0.62786723  1
  V  V66  1  0.74707040  0.37744174  0.62696040  1
  V  V67  1  0.61200565  0.37239243  0.25107989  1
  V  V68  1  0.25106583  0.62670733  0.37222739  1
  V  V69  1  0.38358254  0.12720575  0.25022588  1
  V  V70  1  0.87638850  0.63499941  0.24870157  1
  V  V71  1  0.74966892  0.87901994  0.62601702  1
  V  V72  1  0.00136896  0.12277812  0.12995225  1
  V  V73  1  0.00381324  0.27015092  0.25260348  1
  V  V74  1  0.62632899  0.63722146  -0.00834719  1
  V  V75  1  0.00990563  0.86255801  0.86259024  1
  V  V76  1  0.63199691  0.51638364  0.62179619  1
  V  V77  1  0.87642076  0.38992725  -0.00231107  1
  V  V78  1  0.37800805  0.49626462  0.37646199  1
  V  V79  1  0.62449497  0.12345640  0.00129190  1
  V  V80  1  0.87360165  0.00080163  0.37360531  1
  V  V81  1  0.62165402  0.50211108  0.12571508  1
  V  V82  1  0.26496451  0.37127673  0.62293749  1
  V  V83  1  0.74979056  0.25026534  0.49814350  1
  V  V84  1  0.12535922  0.37156454  0.75141154  1
  Zn  Zn85  1  0.37086314  0.88087070  0.50393353  1
  Zn  Zn86  1  0.62604749  0.37729697  0.75034112  1
  Zn  Zn87  1  -0.00106579  0.12338086  0.62548964  1
  Zn  Zn88  1  0.49630027  -0.00224783  -0.00027252  1
  Zn  Zn89  1  0.62265232  0.12399143  0.50145114  1
  Zn  Zn90  1  0.12321286  0.26475700  0.37212827  1
  Zn  Zn91  1  0.75009852  -0.00093225  0.24984624  1
  Zn  Zn92  1  0.49586317  -0.00149132  0.50145510  1
  Zn  Zn93  1  0.50302967  0.49481356  0.50028361  1
  Zn  Zn94  1  0.87716333  0.12793557  0.24938430  1
  Zn  Zn95  1  0.50168590  0.87890389  0.87901235  1
  Zn  Zn96  1  0.37276020  -0.00077199  0.37677498  1
  Zn  Zn97  1  0.88701159  0.75770760  0.64153362  1
  Zn  Zn98  1  0.37472545  0.37668107  0.00395370  1
  Zn  Zn99  1  0.48877334  0.36475720  0.38255240  1
  Zn  Zn100  1  0.87671630  0.24974062  0.12655159  1
  Zn  Zn101  1  0.50388088  0.12924788  0.12965675  1
  Zn  Zn102  1  0.38018977  0.87172842  0.00078523  1
  Zn  Zn103  1  0.24579996  0.63022473  0.87041993  1
  Zn  Zn104  1  0.74685116  0.74504372  0.50263896  1
  Zn  Zn105  1  0.87970430  0.74923557  0.12594051  1
  Zn  Zn106  1  0.37454473  -0.00083388  0.88155989  1
  Zn  Zn107  1  0.18384340  0.19296094  0.18617280  1
  Zn  Zn108  1  0.19105510  0.18727948  0.68552026  1
  Zn  Zn109  1  0.18970566  0.68920005  0.18322254  1
  Zn  Zn110  1  0.18694235  0.66774843  0.68461570  1
  Zn  Zn111  1  0.68928963  0.18812153  0.18979385  1
  Zn  Zn112  1  0.68554711  0.18816602  0.68812540  1
  Zn  Zn113  1  0.68497952  0.68653037  0.19202619  1
  Zn  Zn114  1  0.72457198  0.70694066  0.71065955  1
  Zn  Zn115  1  0.30792598  0.31195847  0.30895970  1
  Zn  Zn116  1  0.31426575  0.31196639  0.81405317  1
  Zn  Zn117  1  0.30964375  0.81404323  0.31008733  1
  Zn  Zn118  1  0.31876007  0.81178089  0.81918516  1
  Zn  Zn119  1  0.81385871  0.31210183  0.30987312  1
  Zn  Zn120  1  0.81403643  0.31451475  0.81405439  1
  Zn  Zn121  1  0.80410128  0.81209746  0.31342873  1
  Zn  Zn122  1  0.81870459  0.81354532  0.81418327  1
  Zn  Zn123  1  0.21067729  0.43871050  0.43930430  1
  Zn  Zn124  1  0.18920224  0.43328181  0.93766135  1
  Zn  Zn125  1  0.18642822  0.93996843  0.43147213  1
  Zn  Zn126  1  0.18637845  0.93460655  0.93832090  1
  Zn  Zn127  1  0.68393234  0.43574064  0.43868909  1
  Zn  Zn128  1  0.68520047  0.43834341  0.94093741  1
  Zn  Zn129  1  0.68307601  0.93849053  0.44009548  1
  Zn  Zn130  1  0.69119536  0.93833393  0.94087442  1
  Zn  Zn131  1  0.31337539  0.06284433  0.06487050  1
  Zn  Zn132  1  0.31199044  0.06172293  0.56528499  1
  Zn  Zn133  1  0.30965861  0.56487262  0.06179756  1
  Zn  Zn134  1  0.31024786  0.56750975  0.56116947  1
  Zn  Zn135  1  0.81356916  0.05848365  0.06354391  1
  Zn  Zn136  1  0.81061243  0.05981816  0.55995701  1
  Zn  Zn137  1  0.81016435  0.56680727  0.06340127  1
  Zn  Zn138  1  0.81674952  0.55969680  0.56159231  1
  Zn  Zn139  1  0.43230653  0.44275861  0.18882856  1
  Zn  Zn140  1  0.44488404  0.44068091  0.68635605  1
  Zn  Zn141  1  0.43914567  0.94143537  0.18941148  1
  Zn  Zn142  1  0.43998723  0.94002329  0.69573499  1
  Zn  Zn143  1  0.93508361  0.44373309  0.17993543  1
  Zn  Zn144  1  0.93857037  0.43853533  0.68911948  1
  Zn  Zn145  1  0.93561783  0.93814663  0.18571226  1
  Zn  Zn146  1  0.94044179  0.94055297  0.68698022  1
  Zn  Zn147  1  0.06365294  0.06061351  0.31135732  1
  Zn  Zn148  1  0.05917036  0.05928057  0.81507063  1
  Zn  Zn149  1  0.06198328  0.56752813  0.30197665  1
  Zn  Zn150  1  0.06343821  0.56182839  0.81158924  1
  Zn  Zn151  1  0.56271799  0.05587887  0.31458609  1
  Zn  Zn152  1  0.56130441  0.06108343  0.81214039  1
  Zn  Zn153  1  0.55938841  0.56410471  0.31115747  1
  Zn  Zn154  1  0.56890934  0.56312449  0.80785584  1
  Zn  Zn155  1  0.43737897  0.18198112  0.43669697  1
  Zn  Zn156  1  0.43877456  0.18772262  0.93882610  1
  Zn  Zn157  1  0.43504736  0.68852700  0.43651777  1
  Zn  Zn158  1  0.43364611  0.68983903  0.94125951  1
  Zn  Zn159  1  0.94020552  0.19099063  0.43337034  1
  Zn  Zn160  1  0.94005180  0.18770622  0.93810257  1
  Zn  Zn161  1  0.93530397  0.68617948  0.43696116  1
  Zn  Zn162  1  0.94385594  0.68582448  0.93864369  1
  Zn  Zn163  1  0.05911668  0.30889678  0.06118370  1
  Zn  Zn164  1  0.06815521  0.30336986  0.56845770  1
  Zn  Zn165  1  0.06145106  0.80297015  0.05642627  1
  Zn  Zn166  1  0.05591992  0.80896067  0.55432574  1
  Zn  Zn167  1  0.56275355  0.31363525  0.06101532  1
  Zn  Zn168  1  0.56092464  0.31414709  0.55854509  1
  Zn  Zn169  1  0.56228476  0.81340925  0.06227851  1
  Zn  Zn170  1  0.56286836  0.81633470  0.56246968  1
  O  O171  1  0.11498880  0.13028812  0.11464710  1
  O  O172  1  0.12331103  0.11955156  0.61524591  1
  O  O173  1  0.11815611  0.62327768  0.11992390  1
  O  O174  1  0.11796583  0.61336420  0.61292646  1
  O  O175  1  0.62712422  0.11836836  0.12014399  1
  O  O176  1  0.61721694  0.11778998  0.62770495  1
  O  O177  1  0.61932771  0.62008918  0.11996225  1
  O  O178  1  0.62323785  0.61778967  0.62870211  1
  O  O179  1  0.37231126  0.39129787  0.36619331  1
  O  O180  1  0.38278830  0.38610995  0.87630578  1
  O  O181  1  0.38244546  0.87388787  0.37444505  1
  O  O182  1  0.38165188  0.87972319  0.87956298  1
  O  O183  1  0.87132165  0.38742333  0.38095597  1
  O  O184  1  0.88535636  0.36870769  0.88532838  1
  O  O185  1  0.87887822  0.87941975  0.37875506  1
  O  O186  1  0.87898176  0.88224360  0.88216054  1
  O  O187  1  0.25019142  0.00886589  0.36278552  1
  O  O188  1  0.24716072  -0.00243338  0.86171127  1
  O  O189  1  0.25921513  0.50876578  0.36541822  1
  O  O190  1  0.26049539  0.49681135  0.86721635  1
  O  O191  1  0.75603618  0.00763554  0.37652675  1
  O  O192  1  0.76507137  0.00761862  0.88124922  1
  O  O193  1  0.75455023  0.50453852  0.37086053  1
  O  O194  1  0.74911998  0.49502376  0.86509541  1
  O  O195  1  0.25712546  0.48458780  0.12887256  1
  O  O196  1  0.23946955  0.49419886  0.62530812  1
  O  O197  1  0.24760142  0.99280976  0.13557520  1
  O  O198  1  0.23795210  1.00026119  0.63259238  1
  O  O199  1  0.74056491  0.49597862  0.13109416  1
  O  O200  1  0.74517629  0.49850338  0.63244873  1
  O  O201  1  0.73972437  0.99294886  0.12747942  1
  O  O202  1  0.74155723  0.99017363  0.62013076  1
  O  O203  1  -0.00255333  0.36851309  0.24285788  1
  O  O204  1  0.00529809  0.36692182  0.75548950  1
  O  O205  1  0.00475485  0.87971971  0.25892278  1
  O  O206  1  -0.00666948  0.87603093  0.76321235  1
  O  O207  1  0.50988038  0.38073506  0.25513248  1
  O  O208  1  0.50255915  0.36790473  0.75528818  1
  O  O209  1  0.50791146  0.87890322  0.25968898  1
  O  O210  1  0.51388497  0.86675520  0.75101455  1
  O  O211  1  0.48681939  0.12052879  0.25238808  1
  O  O212  1  0.49351473  0.13362050  0.74524711  1
  O  O213  1  0.48600760  0.62083298  0.24156822  1
  O  O214  1  0.50069225  0.63217229  0.73933894  1
  O  O215  1  0.99999316  0.12153628  0.23820615  1
  O  O216  1  0.98751502  0.13115396  0.75112603  1
  O  O217  1  0.99154921  0.62674288  0.23739856  1
  O  O218  1  1.00740398  0.62420414  0.73448902  1
  O  O219  1  0.36721979  0.24986883  0.00778664  1
  O  O220  1  0.36364960  0.24537832  0.49677827  1
  O  O221  1  0.35630492  0.74881072  0.00110422  1
  O  O222  1  0.36302131  0.74812464  0.51009763  1
  O  O223  1  0.86278461  0.25113813  0.00009472  1
  O  O224  1  0.87173448  0.25991304  0.50327801  1
  O  O225  1  0.87808250  0.76261240  0.00083253  1
  O  O226  1  0.87475568  0.76247467  0.50186626  1
  O  O227  1  0.12869956  0.23718535  0.49587248  1
  O  O228  1  0.13063107  0.24170541  0.99379490  1
  O  O229  1  0.12952286  0.74342762  0.48961971  1
  O  O230  1  0.14000037  0.73660744  1.00381467  1
  O  O231  1  0.63438296  0.24768858  0.49041107  1
  O  O232  1  0.63598145  0.24528253  0.99601588  1
  O  O233  1  0.62530887  0.75348181  0.48644959  1
  O  O234  1  0.62546472  0.73518605  1.00319288  1
  O  O235  1  0.48767017  0.25002117  0.12186081  1
  O  O236  1  0.50919663  0.24277561  0.63692835  1
  O  O237  1  0.50412691  0.73743317  0.12700717  1
  O  O238  1  0.49603037  0.74486464  0.63069324  1
  O  O239  1  0.99848956  0.24213738  0.13605675  1
  O  O240  1  0.99278833  0.24594500  0.63468352  1
  O  O241  1  0.99572665  0.73138464  0.11946732  1
  O  O242  1  1.00101724  0.73529310  0.62197664  1
  O  O243  1  0.00290347  0.25071440  0.35825415  1
  O  O244  1  0.00777776  0.25514377  0.86957146  1
  O  O245  1  0.00748442  0.75879001  0.37878349  1
  O  O246  1  -0.00121908  0.76313719  0.87605911  1
  O  O247  1  0.51278583  0.24652317  0.37643423  1
  O  O248  1  0.50468391  0.25692809  0.86851760  1
  O  O249  1  0.50491644  0.75731038  0.37659382  1
  O  O250  1  0.49869914  0.74634161  0.86134460  1
  O  O251  1  0.24405949  0.13023716  0.49259442  1
  O  O252  1  0.24077982  0.13727631  1.00913359  1
  O  O253  1  0.23709415  0.63512771  0.49559719  1
  O  O254  1  0.24215919  0.63285272  0.99844351  1
  O  O255  1  0.74931059  0.13078261  0.48925537  1
  O  O256  1  0.74231771  0.13148653  0.99683900  1
  O  O257  1  0.75735220  0.62408257  0.48625182  1
  O  O258  1  0.73628924  0.61802949  0.99031141  1
  O  O259  1  0.25279286  0.36492319  0.00964363  1
  O  O260  1  0.24975417  0.36321144  0.51079433  1
  O  O261  1  0.24649258  0.86541640  0.00821573  1
  O  O262  1  0.24829143  0.86245034  0.49319679  1
  O  O263  1  0.75422708  0.36705479  0.00490288  1
  O  O264  1  0.75799408  0.37123566  0.50689153  1
  O  O265  1  0.75978208  0.87946282  0.01122443  1
  O  O266  1  0.75906826  0.87660776  0.50368667  1
  O  O267  1  0.14243835  0.50596489  0.25221988  1
  O  O268  1  0.13275734  0.49363710  0.74064930  1
  O  O269  1  0.13234456  0.98803691  0.25409147  1
  O  O270  1  0.13180423  1.00971210  0.74072246  1
  O  O271  1  0.62897941  0.49324435  0.24617606  1
  O  O272  1  0.63509930  0.49619955  0.73720581  1
  O  O273  1  0.62782680  0.98954003  0.24417070  1
  O  O274  1  0.62170814  0.98950951  0.73918377  1
  O  O275  1  0.36442392  0.01073148  0.25095190  1
  O  O276  1  0.36506627  0.01015285  0.75035794  1
  O  O277  1  0.36645244  0.50943385  0.25936685  1
  O  O278  1  0.37438990  0.50548304  0.75546131  1
  O  O279  1  0.87311703  0.00007025  0.26370189  1
  O  O280  1  0.87952051  0.00999445  0.75871020  1
  O  O281  1  0.86780414  0.50591524  0.25693441  1
  O  O282  1  0.85928151  0.49999468  0.74602558  1
  O  O283  1  0.11806703  0.38394988  0.38975498  1
  O  O284  1  0.11968645  0.36380756  0.87115205  1
  O  O285  1  0.11575398  0.86858410  0.36701570  1
  O  O286  1  0.10810210  0.88050402  0.87520627  1
  O  O287  1  0.62624049  0.36559697  0.36656962  1
  O  O288  1  0.61672458  0.36950649  0.87465812  1
  O  O289  1  0.61716353  0.86910132  0.36952068  1
  O  O290  1  0.62806065  0.88225580  0.86199139  1
  O  O291  1  0.37606661  0.13490830  0.13456167  1
  O  O292  1  0.38667087  0.12316061  0.63504134  1
  O  O293  1  0.38235585  0.61971682  0.13598485  1
  O  O294  1  0.38314222  0.63373382  0.62945427  1
  O  O295  1  0.88472864  0.12624567  0.12585402  1
  O  O296  1  0.87451503  0.12814054  0.63130431  1
  O  O297  1  0.87138511  0.62949546  0.13564665  1
  O  O298  1  0.89461340  0.62123808  0.61737897  1
  O  O299  1  0.25659118  0.26044769  0.12050508  1
  O  O300  1  0.24651696  0.25943686  0.61478433  1
  O  O301  1  0.24807339  0.76055213  0.11605817  1
  O  O302  1  0.25273539  0.75724607  0.62182682  1
  O  O303  1  0.75130118  0.25577767  0.11722305  1
  O  O304  1  0.75522166  0.25884438  0.62064675  1
  O  O305  1  0.75085059  0.76103291  0.13030529  1
  O  O306  1  0.74190412  0.77053419  0.61474160  1
  O  O307  1  0.24337391  0.24519677  0.38102207  1
  O  O308  1  0.24129854  0.25591973  0.88632787  1
  O  O309  1  0.24216712  0.74527897  0.38070921  1
  O  O310  1  0.24872248  0.74906157  0.88665009  1
  O  O311  1  0.74545015  0.24277788  0.37838047  1
  O  O312  1  0.74518254  0.24514644  0.88194872  1
  O  O313  1  0.74050404  0.74084853  0.37925061  1
  O  O314  1  0.75070941  0.73745902  0.87943197  1
  O  O315  1  0.00586382  0.11924713  0.00836501  1
  O  O316  1  0.00817571  0.11959546  0.49838468  1
  O  O317  1  0.01668636  0.62576592  0.00630402  1
  O  O318  1  0.01199166  0.62695889  0.50280787  1
  O  O319  1  0.51647062  0.12944021  0.00327891  1
  O  O320  1  0.50221379  0.12392842  0.51076162  1
  O  O321  1  0.50851429  0.62215954  0.00572434  1
  O  O322  1  0.49564934  0.62155339  0.51252251  1
  O  O323  1  0.50147004  0.38112567  0.49456473  1
  O  O324  1  0.49804293  0.38311055  0.99263742  1
  O  O325  1  0.49458542  0.87495463  0.48960979  1
  O  O326  1  0.49954664  0.87696329  0.99797154  1
  O  O327  1  0.99428987  0.37173177  0.50501177  1
  O  O328  1  0.98867013  0.36848007  0.99321425  1
  O  O329  1  0.99323311  0.88119245  0.48795919  1
  O  O330  1  0.99385867  0.88132125  0.99623693  1
  O  O331  1  0.48608021  0.50339528  0.37674445  1
  O  O332  1  0.49562010  0.49599971  0.87745196  1
  O  O333  1  0.49647999  0.98813976  0.37881702  1
  O  O334  1  0.49702789  0.99995491  0.87929513  1
  O  O335  1  0.99272926  0.50301762  0.37177689  1
  O  O336  1  1.00554810  0.48366035  0.87016694  1
  O  O337  1  0.99273259  0.99317019  0.37973734  1
  O  O338  1  0.98940005  0.99644646  0.88599209  1
  O  O339  1  -0.00379049  0.00578154  0.11211310  1
  O  O340  1  0.01247092  0.00140859  0.61721260  1
  O  O341  1  -0.01003033  0.52346793  0.12162126  1
  O  O342  1  0.01275551  0.50527393  0.62758722  1
  O  O343  1  0.51450402  0.00448098  0.12491102  1
  O  O344  1  0.50610947  0.00953733  0.62685339  1
  O  O345  1  0.50458701  0.50654654  0.11944794  1
  O  O346  1  0.51485014  0.50997023  0.62576201  1
  O  O347  1  0.24966082  0.38132202  0.23589981  1
  O  O348  1  0.24448390  0.37685570  0.74364316  1
  O  O349  1  0.24165813  0.88110751  0.24253922  1
  O  O350  1  0.25253985  0.88260457  0.74547306  1
  O  O351  1  0.74407982  0.38161984  0.24434397  1
  O  O352  1  0.75065836  0.38419338  0.74369177  1
  O  O353  1  0.74107234  0.87825629  0.24301416  1
  O  O354  1  0.73887525  0.87835665  0.74311510  1
  O  O355  1  0.24992650  0.12053800  0.25412655  1
  O  O356  1  0.26023107  0.11909147  0.74568415  1
  O  O357  1  0.25913873  0.61909843  0.24944996  1
  O  O358  1  0.25976477  0.61416389  0.75116813  1
  O  O359  1  0.75442358  0.12316279  0.26217868  1
  O  O360  1  0.76232097  0.13166127  0.75593173  1
  O  O361  1  0.75569969  0.61836851  0.26033752  1
  O  O362  1  0.73922261  0.61018030  0.77350400  1
  O  O363  1  0.36190624  0.12633634  0.36663186  1
  O  O364  1  0.37669486  0.12515556  0.86413207  1
  O  O365  1  0.37003594  0.62041461  0.36395427  1
  O  O366  1  0.37542465  0.61427921  0.86900406  1
  O  O367  1  0.86856115  0.11665295  0.37610613  1
  O  O368  1  0.87196136  0.11897651  0.86922981  1
  O  O369  1  0.87023062  0.61457992  0.36968364  1
  O  O370  1  0.86104185  0.62413446  0.88816985  1
  O  O371  1  0.13840197  0.37069339  0.11922800  1
  O  O372  1  0.12985458  0.37928553  0.63162438  1
  O  O373  1  0.12589923  0.86824513  0.13473301  1
  O  O374  1  0.12505279  0.88127302  0.62023930  1
  O  O375  1  0.62851336  0.37979277  0.13255684  1
  O  O376  1  0.63944451  0.37972703  0.62554905  1
  O  O377  1  0.63024095  0.87956226  0.13233738  1
  O  O378  1  0.62961638  0.88431827  0.63171722  1
  O  O379  1  0.10940864  0.25124367  0.25230200  1
  O  O380  1  0.12086599  0.25071109  0.75730686  1
  O  O381  1  0.13073253  0.75689617  0.26053730  1
  O  O382  1  0.14213005  0.76409238  0.73298489  1
  O  O383  1  0.63034649  0.26005431  0.25884347  1
  O  O384  1  0.61736157  0.25274505  0.75819405  1
  O  O385  1  0.62863427  0.76191991  0.26107264  1
  O  O386  1  0.62346946  0.76624547  0.74547472  1
  O  O387  1  0.36851271  0.24082408  0.24172508  1
  O  O388  1  0.38565875  0.24392227  0.75365124  1
  O  O389  1  0.36777718  0.73353157  0.25193366  1
  O  O390  1  0.38352587  0.74423334  0.74328181  1
  O  O391  1  0.88850995  0.24832570  0.24872269  1
  O  O392  1  0.87905449  0.24474783  0.74407548  1
  O  O393  1  0.87065593  0.73743550  0.25508042  1
  O  O394  1  0.83573622  0.73650224  0.73773586  1
  O  O395  1  0.36857382  0.50962491  0.47966127  1
  O  O396  1  0.38161392  0.50160367  0.99104130  1
  O  O397  1  0.37458469  0.99783107  0.49655267  1
  O  O398  1  0.37628410  0.99764083  1.00065669  1
  O  O399  1  0.87686806  0.48710908  0.49227472  1
  O  O400  1  0.86677136  0.48836581  1.00142355  1
  O  O401  1  0.87966292  0.99117437  0.48993800  1
  O  O402  1  0.88285060  0.99228884  0.99376491  1
  O  O403  1  0.11780871  0.01205448  -0.00604459  1
  O  O404  1  0.12458397  0.01022049  0.50403594  1
  O  O405  1  0.13672698  0.51467622  -0.00003647  1
  O  O406  1  0.11976180  0.50186572  0.49963987  1
  O  O407  1  0.62690326  0.00912751  0.00886626  1
  O  O408  1  0.62012592  0.00218112  0.51364323  1
  O  O409  1  0.61757749  0.50601869  0.00782977  1
  O  O410  1  0.62882145  0.49957763  0.51754103  1
  O  O411  1  0.36910413  0.36765119  0.12510409  1
  O  O412  1  0.36351032  0.38360258  0.62987073  1
  O  O413  1  0.36317838  0.87833410  0.12765560  1
  O  O414  1  0.38209220  0.86283452  0.62603994  1
  O  O415  1  0.86704010  0.37243895  0.11597445  1
  O  O416  1  0.86613810  0.37334396  0.61841829  1
  O  O417  1  0.86719731  0.87274939  0.11928813  1
  O  O418  1  0.86974407  0.87749982  0.61693614  1
  O  O419  1  0.13501762  0.12417868  0.38030339  1
  O  O420  1  0.11792047  0.13642572  0.88376502  1
  O  O421  1  0.12859444  0.63191665  0.37694721  1
  O  O422  1  0.12721294  0.62128314  0.88610618  1
  O  O423  1  0.63254795  0.13025587  0.37437876  1
  O  O424  1  0.63226515  0.12906105  0.88169042  1
  O  O425  1  0.63174505  0.63285999  0.36825439  1
  O  O426  1  0.62784399  0.62104340  0.88894253  1
