# generated using pymatgen
data_V85Zn86O256
_symmetry_space_group_name_H-M   'P 1'
_cell_length_a   16.93058272
_cell_length_b   16.93023450
_cell_length_c   16.93038698
_cell_angle_alpha   89.99782548
_cell_angle_beta   90.02099401
_cell_angle_gamma   89.99054660
_symmetry_Int_Tables_number   1
_chemical_formula_structural   V85Zn86O256
_chemical_formula_sum   'V85 Zn86 O256'
_cell_volume   4852.90432093
_cell_formula_units_Z   1
loop_
 _symmetry_equiv_pos_site_id
 _symmetry_equiv_pos_as_xyz
  1  'x, y, z'
loop_
 _atom_site_type_symbol
 _atom_site_label
 _atom_site_symmetry_multiplicity
 _atom_site_fract_x
 _atom_site_fract_y
 _atom_site_fract_z
 _atom_site_occupancy
  V  V0  1  0.74792367  0.50042759  0.24987419  1
  V  V1  1  0.74006559  0.87427749  0.12251379  1
  V  V2  1  -0.00228603  0.00105172  0.49604217  1
  V  V3  1  0.74878865  0.37606578  0.12365703  1
  V  V4  1  0.74191604  -0.00094578  0.24807612  1
  V  V5  1  0.74110594  -0.00484270  0.75023770  1
  V  V6  1  0.49372972  0.12547806  0.62760535  1
  V  V7  1  0.47423045  0.08957616  0.14504011  1
  V  V8  1  0.05021838  0.17705203  0.67950405  1
  V  V9  1  0.49479631  0.24403567  0.76163086  1
  V  V10  1  0.24809179  0.37266066  0.12443148  1
  V  V11  1  0.62953780  0.12138914  0.50090957  1
  V  V12  1  0.74458616  0.62305261  0.88856076  1
  V  V13  1  0.75297821  0.37343746  0.63015329  1
  V  V14  1  0.50133353  0.49931110  0.50133146  1
  V  V15  1  0.74072458  0.87290382  0.62594736  1
  V  V16  1  0.37410748  0.37327839  0.50208981  1
  V  V17  1  0.62991417  0.49850433  0.63182953  1
  V  V18  1  0.63249577  0.75584340  0.87825924  1
  V  V19  1  0.50194058  0.62359780  0.62694914  1
  V  V20  1  0.24934531  0.87905256  0.62737311  1
  V  V21  1  0.12398382  0.49889935  0.12685197  1
  V  V22  1  0.86892065  0.87009226  -0.00029265  1
  V  V23  1  0.62457448  0.37809772  0.24996160  1
  V  V24  1  0.12482409  0.62344669  0.49251810  1
  V  V25  1  0.49774658  0.25006330  0.24687440  1
  V  V26  1  0.50586289  0.37932684  0.88092888  1
  V  V27  1  -0.00148185  0.87308445  0.87518972  1
  V  V28  1  0.24828888  0.61850988  0.86980744  1
  V  V29  1  0.87122418  0.74870862  0.12214838  1
  V  V30  1  0.25082955  0.01775396  0.75272893  1
  V  V31  1  0.50095447  0.37664356  0.37508598  1
  V  V32  1  0.37598842  0.75284082  0.62927969  1
  V  V33  1  0.49480107  0.88305650  0.37418493  1
  V  V34  1  0.24899833  0.74723981  0.50370595  1
  V  V35  1  0.87121425  0.13033305  0.74620613  1
  V  V36  1  0.87311185  0.24918353  0.12553909  1
  V  V37  1  -0.00043012  0.62246806  0.62663645  1
  V  V38  1  0.62318235  0.12041456  0.01626259  1
  V  V39  1  0.86544390  0.62252904  0.74888945  1
  V  V40  1  0.37198860  0.86855051  0.00509684  1
  V  V41  1  0.37216629  0.50233803  0.37387142  1
  V  V42  1  0.63179890  0.24656400  0.37607336  1
  V  V43  1  0.61838075  0.51367019  0.11143497  1
  V  V44  1  0.00787009  0.24762939  0.25373058  1
  V  V45  1  0.25020999  0.24649316  -0.01151215  1
  V  V46  1  0.12389176  0.62512697  -0.00084221  1
  V  V47  1  0.74885244  0.62499064  0.37812055  1
  V  V48  1  0.24701925  0.24857101  0.49403282  1
  V  V49  1  0.87020843  0.00099118  0.37465768  1
  V  V50  1  0.47851237  0.63165556  0.12057205  1
  V  V51  1  0.37257145  0.61621796  0.74803543  1
  V  V52  1  0.00732208  0.37209251  0.37566707  1
  V  V53  1  0.74344814  0.24951802  -0.00297631  1
  V  V54  1  0.87218610  0.00020836  0.87444376  1
  V  V55  1  0.00110044  0.12473533  0.12419263  1
  V  V56  1  0.12630272  0.87895007  0.25955900  1
  V  V57  1  0.49848734  0.87220174  0.86426708  1
  V  V58  1  -0.00051818  0.00054076  0.00247614  1
  V  V59  1  0.50672648  -0.00651749  -0.00026343  1
  V  V60  1  0.87882346  0.62587508  0.25177592  1
  V  V61  1  0.37978373  0.25603341  0.12525018  1
  V  V62  1  0.87476947  0.37259016  0.49939312  1
  V  V63  1  0.00582183  0.36264475  0.86975375  1
  V  V64  1  0.38079018  0.50354583  0.88195110  1
  V  V65  1  0.12569846  0.87671153  0.75160796  1
  V  V66  1  0.12220827  0.12725309  0.48261117  1
  V  V67  1  0.13065102  0.12790488  -0.00736685  1
  V  V68  1  0.30543761  0.67995576  0.31906650  1
  V  V69  1  0.25198591  0.75136027  0.00908365  1
  V  V70  1  0.12683950  0.75072775  0.87520777  1
  V  V71  1  0.87459604  0.75036760  0.62459553  1
  V  V72  1  0.62222817  0.75066580  0.37093849  1
  V  V73  1  -0.00091534  0.49773164  -0.00070356  1
  V  V74  1  0.13331432  0.50002398  0.63486444  1
  V  V75  1  0.13733696  -0.00831918  0.12704559  1
  V  V76  1  0.25343408  0.49851957  0.25499866  1
  V  V77  1  0.87618825  0.87349089  0.49486242  1
  V  V78  1  0.36975393  0.00984649  0.87449038  1
  V  V79  1  0.27183067  0.11330883  0.36450750  1
  V  V80  1  0.73810021  0.12708054  0.87467696  1
  V  V81  1  0.86804260  0.12512328  0.25456674  1
  V  V82  1  0.62908668  0.36819507  0.75508922  1
  V  V83  1  0.87352379  0.49776906  0.86917267  1
  V  V84  1  0.11660024  0.00163499  0.62575397  1
  Zn  Zn85  1  0.87712025  0.24529709  0.62459803  1
  Zn  Zn86  1  0.61988193  0.87445246  0.24447680  1
  Zn  Zn87  1  0.25445439  0.37829454  0.63008640  1
  Zn  Zn88  1  -0.00151607  0.62573016  0.12594291  1
  Zn  Zn89  1  0.50793425  0.75201693  0.74712066  1
  Zn  Zn90  1  0.12512656  0.36788624  0.75331668  1
  Zn  Zn91  1  0.74812684  0.75025285  0.49978520  1
  Zn  Zn92  1  0.00114257  0.49794411  0.49936288  1
  Zn  Zn93  1  0.12821877  0.36987905  0.25532457  1
  Zn  Zn94  1  0.37902000  0.25198145  0.62652679  1
  Zn  Zn95  1  0.75174371  0.24583023  0.49843755  1
  Zn  Zn96  1  0.87616451  0.49783708  0.37571216  1
  Zn  Zn97  1  0.62020764  -0.00368524  0.62623002  1
  Zn  Zn98  1  0.87509705  0.37213326  -0.00207612  1
  Zn  Zn99  1  -0.00550473  0.76354917  0.25688360  1
  Zn  Zn100  1  0.37942517  0.38031819  0.00021802  1
  Zn  Zn101  1  0.62675207  0.62410533  0.50157267  1
  Zn  Zn102  1  0.36987196  0.88216986  0.49555746  1
  Zn  Zn103  1  0.11579272  0.75480909  0.37727201  1
  Zn  Zn104  1  -0.00039841  0.74975338  0.75068290  1
  Zn  Zn105  1  0.48702546  0.74402622  0.24904567  1
  Zn  Zn106  1  0.49162507  0.00528026  0.49886990  1
  Zn  Zn107  1  0.19007749  0.18155185  0.18549709  1
  Zn  Zn108  1  0.22355798  0.22151433  0.71131842  1
  Zn  Zn109  1  0.17839831  0.69331318  0.18508182  1
  Zn  Zn110  1  0.18666439  0.68716509  0.68836029  1
  Zn  Zn111  1  0.68535116  0.18721209  0.18893182  1
  Zn  Zn112  1  0.68376626  0.18932173  0.68598062  1
  Zn  Zn113  1  0.68935336  0.68921270  0.18820907  1
  Zn  Zn114  1  0.68710544  0.68904664  0.69228269  1
  Zn  Zn115  1  0.31311283  0.30929341  0.31440667  1
  Zn  Zn116  1  0.31838509  0.31876313  0.81569635  1
  Zn  Zn117  1  0.30588690  0.85113405  0.30563794  1
  Zn  Zn118  1  0.31245776  0.81345219  0.81403287  1
  Zn  Zn119  1  0.81536591  0.31300192  0.31331332  1
  Zn  Zn120  1  0.81368228  0.31097667  0.81380074  1
  Zn  Zn121  1  0.81025536  0.81247230  0.31174440  1
  Zn  Zn122  1  0.81007695  0.80907484  0.81039014  1
  Zn  Zn123  1  0.18728198  0.43896255  0.44012838  1
  Zn  Zn124  1  0.18755915  0.43619286  0.93648907  1
  Zn  Zn125  1  0.19292146  0.94376841  0.43863781  1
  Zn  Zn126  1  0.18988707  0.93979307  0.94029130  1
  Zn  Zn127  1  0.68842764  0.43678052  0.44088794  1
  Zn  Zn128  1  0.69027482  0.43936550  0.93559156  1
  Zn  Zn129  1  0.68497846  0.93827779  0.43691616  1
  Zn  Zn130  1  0.68671043  0.93469879  0.93575142  1
  Zn  Zn131  1  0.32081370  0.05867960  0.07209796  1
  Zn  Zn132  1  0.31017976  0.06595339  0.56029805  1
  Zn  Zn133  1  0.30818419  0.56255616  0.06020174  1
  Zn  Zn134  1  0.31145998  0.56307330  0.56088076  1
  Zn  Zn135  1  0.81120339  0.05986446  0.06479242  1
  Zn  Zn136  1  0.80923055  0.06097394  0.56500028  1
  Zn  Zn137  1  0.81359562  0.55986784  0.06275602  1
  Zn  Zn138  1  0.81265524  0.55670983  0.56244393  1
  Zn  Zn139  1  0.43848027  0.44355981  0.18619072  1
  Zn  Zn140  1  0.44064200  0.43605934  0.69216440  1
  Zn  Zn141  1  0.44176085  0.92465865  0.18242775  1
  Zn  Zn142  1  0.43290793  0.94342704  0.68733074  1
  Zn  Zn143  1  0.93629539  0.43513447  0.18825305  1
  Zn  Zn144  1  0.94033766  0.43568606  0.68859551  1
  Zn  Zn145  1  0.93713024  0.93752236  0.18719507  1
  Zn  Zn146  1  0.93306894  0.93930917  0.68715908  1
  Zn  Zn147  1  0.05632807  0.05571694  0.30999937  1
  Zn  Zn148  1  0.06330219  0.05907729  0.81829618  1
  Zn  Zn149  1  0.06252532  0.55890712  0.31349232  1
  Zn  Zn150  1  0.05809769  0.56104598  0.81173531  1
  Zn  Zn151  1  0.56412468  0.06439993  0.31433620  1
  Zn  Zn152  1  0.56107099  0.06287384  0.81723850  1
  Zn  Zn153  1  0.55922403  0.56744682  0.30696896  1
  Zn  Zn154  1  0.56471809  0.56247464  0.81154932  1
  Zn  Zn155  1  0.44216365  0.18753298  0.43717204  1
  Zn  Zn156  1  0.44081239  0.18804179  0.94697400  1
  Zn  Zn157  1  0.44370874  0.69430563  0.44505515  1
  Zn  Zn158  1  0.44374535  0.68704669  0.93961185  1
  Zn  Zn159  1  0.93685097  0.18609967  0.43714885  1
  Zn  Zn160  1  0.93173278  0.18417191  0.93844653  1
  Zn  Zn161  1  0.93887101  0.68841605  0.43658114  1
  Zn  Zn162  1  0.93584269  0.68632161  0.93688358  1
  Zn  Zn163  1  0.06391767  0.31177532  0.06115930  1
  Zn  Zn164  1  0.06883592  0.31595576  0.55702987  1
  Zn  Zn165  1  0.05670811  0.81116306  0.06468420  1
  Zn  Zn166  1  0.05998107  0.81337714  0.56033560  1
  Zn  Zn167  1  0.56772430  0.31579187  0.06264066  1
  Zn  Zn168  1  0.56314685  0.30949282  0.56555373  1
  Zn  Zn169  1  0.55842034  0.79979214  0.05643691  1
  Zn  Zn170  1  0.56170381  0.81081902  0.55558154  1
  O  O171  1  0.11899341  0.11504043  0.11872785  1
  O  O172  1  0.11497803  0.12046388  0.61924087  1
  O  O173  1  0.12044576  0.61746335  0.11838007  1
  O  O174  1  0.11849722  0.61713295  0.62147209  1
  O  O175  1  0.62090209  0.12201866  0.11775582  1
  O  O176  1  0.61586667  0.12482349  0.61781935  1
  O  O177  1  0.63125378  0.61398498  0.12445169  1
  O  O178  1  0.62153536  0.61606092  0.62665505  1
  O  O179  1  0.38209323  0.38162556  0.38184304  1
  O  O180  1  0.38543186  0.38738126  0.87476960  1
  O  O181  1  0.38816576  0.87152377  0.37640014  1
  O  O182  1  0.38255589  0.88206764  0.87968592  1
  O  O183  1  0.88279542  0.37539439  0.38296669  1
  O  O184  1  0.88295234  0.38272913  0.87607400  1
  O  O185  1  0.86894922  0.87999342  0.38858092  1
  O  O186  1  0.87640450  0.87783101  0.88135873  1
  O  O187  1  0.25649147  0.01243856  0.37451885  1
  O  O188  1  0.26179494  -0.00096372  0.86977705  1
  O  O189  1  0.25717184  0.49660248  0.36771297  1
  O  O190  1  0.25585657  0.51205048  0.87724869  1
  O  O191  1  0.76122112  -0.00611873  0.36579610  1
  O  O192  1  0.75403262  0.00567778  0.86906316  1
  O  O193  1  0.74984663  0.50600625  0.36700129  1
  O  O194  1  0.75991520  0.51172457  0.87777148  1
  O  O195  1  0.24614518  0.48943455  0.13033475  1
  O  O196  1  0.23717178  0.50003648  0.62486460  1
  O  O197  1  0.23499111  1.00103558  0.11884561  1
  O  O198  1  0.23688083  1.00034495  0.63271349  1
  O  O199  1  0.74356256  0.49563058  0.13118490  1
  O  O200  1  0.74235693  0.48640094  0.62253160  1
  O  O201  1  0.75644223  0.98709811  0.13507919  1
  O  O202  1  0.74558954  0.99070818  0.63351718  1
  O  O203  1  -0.00034130  0.36535168  0.25729255  1
  O  O204  1  0.00304460  0.37444025  0.76466368  1
  O  O205  1  0.01732169  0.87902897  0.24192339  1
  O  O206  1  0.00495668  0.87562771  0.75725306  1
  O  O207  1  0.50632738  0.37185825  0.25463668  1
  O  O208  1  0.50712073  0.36459755  0.75977176  1
  O  O209  1  0.50030440  0.86601428  0.25837170  1
  O  O210  1  0.49487213  0.87506917  0.76078353  1
  O  O211  1  0.50901826  0.13405706  0.23804112  1
  O  O212  1  0.50878307  0.13879857  0.74740701  1
  O  O213  1  0.50140536  0.62809948  0.23221199  1
  O  O214  1  0.49116857  0.62568662  0.74208461  1
  O  O215  1  0.98962609  0.13023088  0.24487097  1
  O  O216  1  0.99277163  0.11931068  0.74606759  1
  O  O217  1  0.98523189  0.61835813  0.24903657  1
  O  O218  1  0.98996311  0.62692935  0.74273186  1
  O  O219  1  0.36591923  0.25883344  0.00509226  1
  O  O220  1  0.37544370  0.26395999  0.49762944  1
  O  O221  1  0.36619408  0.76112610  -0.01245671  1
  O  O222  1  0.36717948  0.75187145  0.51381435  1
  O  O223  1  0.86201640  0.24728809  0.00935653  1
  O  O224  1  0.87234252  0.25864502  0.50137661  1
  O  O225  1  0.87894665  0.75923862  0.00687099  1
  O  O226  1  0.87271043  0.75769633  0.50667917  1
  O  O227  1  0.13331195  0.23861005  0.50128089  1
  O  O228  1  0.14068235  0.24287942  1.00775716  1
  O  O229  1  0.13162490  0.74365274  0.49975644  1
  O  O230  1  0.12881088  0.74557089  0.99394343  1
  O  O231  1  0.62567775  0.24532715  0.49122758  1
  O  O232  1  0.63620465  0.23963537  1.00645684  1
  O  O233  1  0.62763070  0.74427575  0.48687186  1
  O  O234  1  0.62071773  0.74376217  0.97828322  1
  O  O235  1  0.49458036  0.25971709  0.13307926  1
  O  O236  1  0.50009174  0.24472795  0.63882635  1
  O  O237  1  0.49611068  0.73818001  0.12976848  1
  O  O238  1  0.49295481  0.74402897  0.62534115  1
  O  O239  1  0.99227014  0.24505531  0.12946802  1
  O  O240  1  0.99900222  0.24495250  0.62215272  1
  O  O241  1  0.98607953  0.74645031  0.13033397  1
  O  O242  1  0.99455646  0.73847896  0.62536520  1
  O  O243  1  -0.00631281  0.25689304  0.36401820  1
  O  O244  1  -0.00617918  0.26500207  0.88455971  1
  O  O245  1  0.00249473  0.74867032  0.36990771  1
  O  O246  1  0.00800282  0.75534321  0.87496997  1
  O  O247  1  0.50862883  0.25682025  0.36603989  1
  O  O248  1  0.49748588  0.25508392  0.86725159  1
  O  O249  1  0.50626604  0.75573863  0.37093141  1
  O  O250  1  0.50704977  0.75657897  0.87055035  1
  O  O251  1  0.24137077  0.12928042  0.48809899  1
  O  O252  1  0.24668015  0.13964617  1.00963594  1
  O  O253  1  0.24112783  0.63845758  0.50747729  1
  O  O254  1  0.24290422  0.63133024  0.99046808  1
  O  O255  1  0.73515708  0.12667074  0.50521741  1
  O  O256  1  0.74265580  0.12778363  0.99633926  1
  O  O257  1  0.75070737  0.62264632  0.48826444  1
  O  O258  1  0.75684941  0.62593432  0.98645990  1
  O  O259  1  0.24958357  0.36500070  0.00789821  1
  O  O260  1  0.25730446  0.36805377  0.50134470  1
  O  O261  1  0.26299959  0.86667155  -0.00768900  1
  O  O262  1  0.24741163  0.86388493  0.50723964  1
  O  O263  1  0.75033655  0.36531242  0.00336653  1
  O  O264  1  0.75853068  0.37176817  0.50737709  1
  O  O265  1  0.76143849  0.88092389  0.00592296  1
  O  O266  1  0.75743526  0.87570827  0.50855525  1
  O  O267  1  0.13680229  0.49894920  0.24493113  1
  O  O268  1  0.12379382  0.50055760  0.73747458  1
  O  O269  1  0.11860495  0.99467326  0.23496517  1
  O  O270  1  0.12960575  0.99713102  0.74482491  1
  O  O271  1  0.63605858  0.49828879  0.24492928  1
  O  O272  1  0.61918141  0.48781771  0.73766490  1
  O  O273  1  0.63840294  0.99814152  0.25406343  1
  O  O274  1  0.63801103  1.00358508  0.75236437  1
  O  O275  1  0.39370456  0.02719894  0.18091927  1
  O  O276  1  0.36516959  -0.00024133  0.76471864  1
  O  O277  1  0.36171228  0.49842464  0.25488863  1
  O  O278  1  0.37632919  0.51041012  0.75781130  1
  O  O279  1  0.86899175  0.00573659  0.25667192  1
  O  O280  1  0.86520823  0.00884351  0.75557810  1
  O  O281  1  0.86235308  0.50546213  0.24869228  1
  O  O282  1  0.88102279  0.50653926  0.76142895  1
  O  O283  1  0.11236779  0.37628651  0.37546117  1
  O  O284  1  0.11114321  0.37731070  0.87326702  1
  O  O285  1  0.13020197  0.87974357  0.36365812  1
  O  O286  1  0.12002061  0.87177583  0.87197757  1
  O  O287  1  0.61933903  0.37107628  0.36981086  1
  O  O288  1  0.62044584  0.38258144  0.86518292  1
  O  O289  1  0.61424989  0.86767457  0.37289730  1
  O  O290  1  0.61840710  0.86368892  0.87576816  1
  O  O291  1  0.38518591  0.15007510  0.10785001  1
  O  O292  1  0.38984195  0.12938585  0.62259579  1
  O  O293  1  0.37906835  0.62069056  0.12658212  1
  O  O294  1  0.37973143  0.62912495  0.63124021  1
  O  O295  1  0.88063057  0.12971598  0.13152921  1
  O  O296  1  0.86980904  0.12569862  0.63685711  1
  O  O297  1  0.87301536  0.63141223  0.13255855  1
  O  O298  1  0.88012093  0.62631731  0.63013110  1
  O  O299  1  0.25839938  0.26094730  0.12617959  1
  O  O300  1  0.26139242  0.24542865  0.60499084  1
  O  O301  1  0.24665963  0.74353071  0.10818040  1
  O  O302  1  0.25522861  0.75545972  0.62045129  1
  O  O303  1  0.75293119  0.25605444  0.12080395  1
  O  O304  1  0.75092977  0.26200318  0.62293165  1
  O  O305  1  0.76280729  0.75819512  0.12915023  1
  O  O306  1  0.75606139  0.75523939  0.62377860  1
  O  O307  1  0.25754997  0.24076292  0.38755667  1
  O  O308  1  0.25559628  0.25127880  0.89005941  1
  O  O309  1  0.24948169  0.74656522  0.37991558  1
  O  O310  1  0.24275050  0.74032225  0.87918851  1
  O  O311  1  0.73551016  0.25469631  0.37312827  1
  O  O312  1  0.75543527  0.23975801  0.88612943  1
  O  O313  1  0.74386424  0.74120083  0.37663778  1
  O  O314  1  0.74196684  0.73931130  0.87264848  1
  O  O315  1  0.00624864  0.12131690  0.00537742  1
  O  O316  1  0.00589269  0.11215581  0.49561482  1
  O  O317  1  0.00454131  0.61275615  -0.00099942  1
  O  O318  1  0.00623663  0.62192819  0.51008437  1
  O  O319  1  0.50521972  0.11209300  0.01201042  1
  O  O320  1  0.50973000  0.12767750  0.51025494  1
  O  O321  1  0.49639023  0.62576594  0.01904847  1
  O  O322  1  0.50131748  0.61743857  0.51029460  1
  O  O323  1  0.49435001  0.38020314  0.49634894  1
  O  O324  1  0.50222104  0.36911379  0.98487862  1
  O  O325  1  0.49717451  0.87425925  0.48446505  1
  O  O326  1  0.49185723  0.87610516  0.98876428  1
  O  O327  1  0.99346327  0.37393572  0.49238132  1
  O  O328  1  0.99963564  0.38393492  0.99265327  1
  O  O329  1  0.99067119  0.88933778  0.50639102  1
  O  O330  1  0.98871115  0.88051273  0.99520777  1
  O  O331  1  0.49418980  0.49751737  0.37988715  1
  O  O332  1  0.49327659  0.49316649  0.87060077  1
  O  O333  1  0.50207837  0.98572965  0.37102229  1
  O  O334  1  0.49251387  0.99234897  0.88113422  1
  O  O335  1  0.99612413  0.48835529  0.37649487  1
  O  O336  1  0.99287201  0.49360564  0.88214724  1
  O  O337  1  0.98395112  0.99927231  0.38246643  1
  O  O338  1  0.99224770  0.99304366  0.88260669  1
  O  O339  1  0.00021363  0.00819194  0.11647607  1
  O  O340  1  0.01074549  -0.00331057  0.62017822  1
  O  O341  1  0.00393636  0.49860950  0.11661219  1
  O  O342  1  0.00807720  0.50946047  0.62474289  1
  O  O343  1  0.51564984  -0.01028096  0.10799264  1
  O  O344  1  0.50445798  0.01116888  0.63177799  1
  O  O345  1  0.51225710  0.51087709  0.12840409  1
  O  O346  1  0.50682265  0.50431832  0.62144600  1
  O  O347  1  0.24843259  0.38069914  0.24435283  1
  O  O348  1  0.23716903  0.33844902  0.73949929  1
  O  O349  1  0.22723173  0.88225285  0.23665406  1
  O  O350  1  0.24281725  0.88340876  0.74554526  1
  O  O351  1  0.74598521  0.38296988  0.24582828  1
  O  O352  1  0.74236672  0.36987865  0.74437644  1
  O  O353  1  0.74803399  0.88185336  0.24050459  1
  O  O354  1  0.75746137  0.88395624  0.73989612  1
  O  O355  1  0.25090807  0.13238407  0.26718512  1
  O  O356  1  0.24683283  0.11718754  0.74854677  1
  O  O357  1  0.24596511  0.62287912  0.25560363  1
  O  O358  1  0.25899882  0.62992883  0.75831615  1
  O  O359  1  0.76041065  0.11664667  0.24203383  1
  O  O360  1  0.75252089  0.12061280  0.75792256  1
  O  O361  1  0.75815564  0.61890481  0.25855285  1
  O  O362  1  0.76271314  0.62488202  0.75627594  1
  O  O363  1  0.37182589  0.12407952  0.37390148  1
  O  O364  1  0.38273646  0.10772562  0.88515071  1
  O  O365  1  0.37132372  0.62543187  0.37799697  1
  O  O366  1  0.37028664  0.62149267  0.86765596  1
  O  O367  1  0.87443088  0.11721484  0.36459045  1
  O  O368  1  0.86435739  0.11719531  0.87009057  1
  O  O369  1  0.86612915  0.62111863  0.36900053  1
  O  O370  1  0.86817674  0.61978186  0.86815297  1
  O  O371  1  0.13246587  0.38048241  0.12852989  1
  O  O372  1  0.12384708  0.39056567  0.62674501  1
  O  O373  1  0.12010676  0.88970374  0.12027065  1
  O  O374  1  0.12897744  0.88291928  0.63017220  1
  O  O375  1  0.62965595  0.38680343  0.13238681  1
  O  O376  1  0.63226755  0.37933149  0.63211042  1
  O  O377  1  0.63727709  0.86254256  0.12069339  1
  O  O378  1  0.63675987  0.87224887  0.62018435  1
  O  O379  1  0.11055198  0.24819482  0.24245420  1
  O  O380  1  0.10956912  0.23377565  0.73816694  1
  O  O381  1  0.12163289  0.76561826  0.25217024  1
  O  O382  1  0.12317028  0.75748297  0.75707816  1
  O  O383  1  0.61703392  0.25630455  0.25482818  1
  O  O384  1  0.61495401  0.26152615  0.74932504  1
  O  O385  1  0.62754595  0.75221455  0.26227898  1
  O  O386  1  0.62189189  0.74201358  0.76802981  1
  O  O387  1  0.38991062  0.25692396  0.24280519  1
  O  O388  1  0.39151523  0.25293199  0.74987071  1
  O  O389  1  0.35864480  0.74562877  0.26372871  1
  O  O390  1  0.37503035  0.74105736  0.73988992  1
  O  O391  1  0.87835590  0.24172220  0.24405825  1
  O  O392  1  0.87376614  0.23446952  0.75091745  1
  O  O393  1  0.87432404  0.74162150  0.24384484  1
  O  O394  1  0.87767975  0.74151970  0.74245968  1
  O  O395  1  0.37798896  0.49125412  0.49514450  1
  O  O396  1  0.37081509  0.49919472  0.98633347  1
  O  O397  1  0.37896021  0.99331314  0.51236256  1
  O  O398  1  0.38066965  0.98837394  0.99223095  1
  O  O399  1  0.87838828  0.48514197  0.49960617  1
  O  O400  1  0.88317114  0.49773474  0.99093628  1
  O  O401  1  0.87877974  0.99675780  0.49448895  1
  O  O402  1  0.87970460  0.99403871  0.99380922  1
  O  O403  1  0.11956583  0.00518919  0.00817336  1
  O  O404  1  0.11847582  0.00663988  0.50686888  1
  O  O405  1  0.11883476  0.50433778  0.00534510  1
  O  O406  1  0.12397055  0.50808238  0.51139132  1
  O  O407  1  0.61692721  0.00822072  -0.01066499  1
  O  O408  1  0.61740651  0.00830884  0.50126740  1
  O  O409  1  0.62898134  0.49805966  0.01413200  1
  O  O410  1  0.61896126  0.49929304  0.51227067  1
  O  O411  1  0.36906552  0.37213351  0.12199153  1
  O  O412  1  0.37461806  0.37695658  0.61678141  1
  O  O413  1  0.37875012  0.86864450  0.10401209  1
  O  O414  1  0.36678183  0.86603390  0.62987797  1
  O  O415  1  0.86714599  0.36766046  0.12206632  1
  O  O416  1  0.86998639  0.37222232  0.62063395  1
  O  O417  1  0.86876231  0.86818436  0.11730350  1
  O  O418  1  0.86735649  0.87083411  0.61584142  1
  O  O419  1  0.12448073  0.11741447  0.38166056  1
  O  O420  1  0.12359912  0.11945954  0.89296338  1
  O  O421  1  0.12246870  0.62268554  0.38990886  1
  O  O422  1  0.13088727  0.62825062  0.87730194  1
  O  O423  1  0.61801986  0.13548089  0.38591870  1
  O  O424  1  0.63526683  0.12395669  0.88526870  1
  O  O425  1  0.63281025  0.62959610  0.37518299  1
  O  O426  1  0.64078102  0.62554459  0.87201950  1
