# generated using pymatgen
data_V85Zn86O256
_symmetry_space_group_name_H-M   'P 1'
_cell_length_a   16.92344093
_cell_length_b   16.92589559
_cell_length_c   16.91976810
_cell_angle_alpha   89.94873003
_cell_angle_beta   89.99027688
_cell_angle_gamma   89.96976005
_symmetry_Int_Tables_number   1
_chemical_formula_structural   V85Zn86O256
_chemical_formula_sum   'V85 Zn86 O256'
_cell_volume   4846.57003894
_cell_formula_units_Z   1
loop_
 _symmetry_equiv_pos_site_id
 _symmetry_equiv_pos_as_xyz
  1  'x, y, z'
loop_
 _atom_site_type_symbol
 _atom_site_label
 _atom_site_symmetry_multiplicity
 _atom_site_fract_x
 _atom_site_fract_y
 _atom_site_fract_z
 _atom_site_occupancy
  V  V0  1  0.50008438  0.75229867  0.74998379  1
  V  V1  1  -0.00130202  0.62531155  0.62337730  1
  V  V2  1  0.25362533  0.12402871  0.37590570  1
  V  V3  1  0.87522885  0.62242266  0.24756571  1
  V  V4  1  0.19479773  0.56888694  0.93022988  1
  V  V5  1  0.37914322  0.62454842  0.25016271  1
  V  V6  1  0.26141666  0.00447600  0.75349754  1
  V  V7  1  0.74352239  0.12501437  0.88341617  1
  V  V8  1  -0.00088015  0.13162393  0.62288458  1
  V  V9  1  0.48050138  0.24536755  0.74539733  1
  V  V10  1  0.37487588  0.49871987  0.37517902  1
  V  V11  1  0.87172792  0.62337509  0.75246721  1
  V  V12  1  0.62593376  0.62270451  0.49899859  1
  V  V13  1  0.25442920  0.24537167  0.50415347  1
  V  V14  1  0.25390707  0.75491278  0.49683196  1
  V  V15  1  0.37872352  0.75300397  0.12157223  1
  V  V16  1  0.50900383  0.62536921  0.11177559  1
  V  V17  1  0.00057015  0.74698323  0.24558950  1
  V  V18  1  0.12627736  0.62618198  0.49831430  1
  V  V19  1  0.61611834  0.37419607  0.25168823  1
  V  V20  1  0.87217215  0.13561555  0.74698722  1
  V  V21  1  0.62321541  0.88183571  0.24589003  1
  V  V22  1  0.87180430  0.01587578  0.36993142  1
  V  V23  1  0.12363108  0.00096032  0.12499637  1
  V  V24  1  0.74715075  0.49158176  0.24647762  1
  V  V25  1  0.74760814  0.62346860  0.37337352  1
  V  V26  1  0.75438158  0.24169692  0.49672831  1
  V  V27  1  0.12209976  0.37441364  0.75128343  1
  V  V28  1  0.38300046  0.50324166  0.88567787  1
  V  V29  1  -0.00310918  0.87408332  0.37241513  1
  V  V30  1  0.13200469  0.74981794  0.87837058  1
  V  V31  1  0.37765852  0.26120865  0.12673126  1
  V  V32  1  0.37516323  0.89061020  -0.00145004  1
  V  V33  1  -0.00016459  0.87363577  0.87085377  1
  V  V34  1  0.37782079  0.37143313  0.50332901  1
  V  V35  1  0.49801874  0.88241697  0.87438077  1
  V  V36  1  0.61882332  0.24064570  0.37412684  1
  V  V37  1  0.50059123  0.62406570  0.62451667  1
  V  V38  1  0.50741766  -0.01279882  0.50088554  1
  V  V39  1  0.38078265  -0.01456548  0.38163155  1
  V  V40  1  0.75714352  0.36631985  0.62447115  1
  V  V41  1  0.87544344  0.87481190  0.49533857  1
  V  V42  1  0.25315047  0.26158993  0.00631008  1
  V  V43  1  0.25492177  0.36940551  0.62702772  1
  V  V44  1  0.87256179  0.25560997  0.13833265  1
  V  V45  1  0.12698570  0.50032452  0.62386461  1
  V  V46  1  0.87667600  0.49626316  0.88753625  1
  V  V47  1  0.12405917  0.24900621  0.87506381  1
  V  V48  1  0.62100578  0.24691196  0.88499820  1
  V  V49  1  -0.00070532  0.00207356  -0.00266276  1
  V  V50  1  0.37600010  0.75431875  0.61959895  1
  V  V51  1  0.52051510  0.00657688  0.00089415  1
  V  V52  1  0.74618423  0.88403709  0.62643303  1
  V  V53  1  0.74427894  0.74385289  0.00038244  1
  V  V54  1  0.75988872  0.26574294  0.00254534  1
  V  V55  1  0.62225314  0.74410031  0.87705355  1
  V  V56  1  0.12515011  0.87342331  0.24742733  1
  V  V57  1  0.25379352  -0.00097902  0.24991323  1
  V  V58  1  0.24982218  0.87796193  0.62403349  1
  V  V59  1  0.87206924  0.00254030  0.86998390  1
  V  V60  1  0.61860283  0.75514046  0.37348293  1
  V  V61  1  0.62109621  0.36799523  0.74938545  1
  V  V62  1  0.25181363  0.50335136  0.75011941  1
  V  V63  1  0.87493585  0.49761311  0.37485628  1
  V  V64  1  0.75198367  0.01117225  0.24435984  1
  V  V65  1  0.49334679  0.12141882  0.62365185  1
  V  V66  1  0.87218835  0.87542972  -0.00220750  1
  V  V67  1  0.74990430  0.49675252  0.74994712  1
  V  V68  1  -0.00037199  0.37796131  0.89142202  1
  V  V69  1  0.62504681  0.49759412  0.62500759  1
  V  V70  1  0.26375986  0.12343759  0.87339123  1
  V  V71  1  0.62492796  0.49624338  0.11256342  1
  V  V72  1  0.49535238  0.37650531  0.88644710  1
  V  V73  1  0.12489300  0.12497942  0.00166557  1
  V  V74  1  0.13067678  0.37739532  0.23938525  1
  V  V75  1  0.25026023  0.87459546  0.12149276  1
  V  V76  1  0.36955247  0.62675635  0.75248298  1
  V  V77  1  0.00432056  0.37236135  0.37315983  1
  V  V78  1  0.12541613  0.74935943  0.37291033  1
  V  V79  1  0.01099004  0.61156960  0.11224487  1
  V  V80  1  0.87479620  0.74965591  0.12285882  1
  V  V81  1  0.87398074  0.75113167  0.62491725  1
  V  V82  1  0.50999251  0.12542717  0.12346330  1
  V  V83  1  0.00088870  0.49817214  0.49857291  1
  V  V84  1  0.38258282  0.12719380  0.24768766  1
  Zn  Zn85  1  0.00085712  0.24046982  0.25478447  1
  Zn  Zn86  1  0.62038372  0.88145205  0.74527328  1
  Zn  Zn87  1  0.12800683  0.12109598  0.50182578  1
  Zn  Zn88  1  0.74972141  0.75004816  0.49814493  1
  Zn  Zn89  1  0.50039552  0.75703741  0.25187558  1
  Zn  Zn90  1  0.12636488  0.87715905  0.75074397  1
  Zn  Zn91  1  -0.01595053  0.11918112  0.13648120  1
  Zn  Zn92  1  -0.00437506  0.25419154  0.74727562  1
  Zn  Zn93  1  0.49634908  0.36931395  0.37194323  1
  Zn  Zn94  1  0.62685509  0.11939456  0.50662133  1
  Zn  Zn95  1  0.74445165  0.62019062  0.87944717  1
  Zn  Zn96  1  0.25033761  0.62393123  0.37136835  1
  Zn  Zn97  1  0.50080798  0.49622638  0.49961628  1
  Zn  Zn98  1  0.00099827  0.74994644  0.75101230  1
  Zn  Zn99  1  0.12744559  0.24768144  0.37342551  1
  Zn  Zn100  1  0.00265456  0.00070798  0.50065730  1
  Zn  Zn101  1  0.24995570  0.49771303  0.24034546  1
  Zn  Zn102  1  0.25124912  0.74763421  -0.00544200  1
  Zn  Zn103  1  0.12358314  0.00090170  0.62619582  1
  Zn  Zn104  1  0.73724321  0.01036588  0.74427591  1
  Zn  Zn105  1  0.87888221  0.37034445  0.50504462  1
  Zn  Zn106  1  0.74587271  0.87997959  0.12196045  1
  Zn  Zn107  1  0.18650359  0.18870215  0.18937467  1
  Zn  Zn108  1  0.18829454  0.18560021  0.68831366  1
  Zn  Zn109  1  0.19143977  0.68334473  0.18198092  1
  Zn  Zn110  1  0.18601526  0.69193442  0.68987846  1
  Zn  Zn111  1  0.69173263  0.19427718  0.18776206  1
  Zn  Zn112  1  0.68134931  0.18546518  0.68741685  1
  Zn  Zn113  1  0.68710686  0.68816668  0.18864583  1
  Zn  Zn114  1  0.68801732  0.69140935  0.68874601  1
  Zn  Zn115  1  0.31265654  0.31048019  0.31197184  1
  Zn  Zn116  1  0.30815812  0.31873049  0.82198308  1
  Zn  Zn117  1  0.31311998  0.81047355  0.30861504  1
  Zn  Zn118  1  0.31468422  0.81697678  0.81197342  1
  Zn  Zn119  1  0.80871055  0.31324380  0.31772325  1
  Zn  Zn120  1  0.81121438  0.31333621  0.81789315  1
  Zn  Zn121  1  0.80564787  0.81325079  0.30879936  1
  Zn  Zn122  1  0.80988027  0.81140186  0.81114246  1
  Zn  Zn123  1  0.19076349  0.43666065  0.43446351  1
  Zn  Zn124  1  0.18693313  0.43864638  1.06722070  1
  Zn  Zn125  1  0.18720100  0.93813971  0.43882542  1
  Zn  Zn126  1  0.18859275  0.93818700  0.93381436  1
  Zn  Zn127  1  0.68653909  0.43227368  0.43718090  1
  Zn  Zn128  1  0.68466635  0.43693904  0.93317947  1
  Zn  Zn129  1  0.69089944  0.93797383  0.43293777  1
  Zn  Zn130  1  0.68753623  0.93215089  0.93108062  1
  Zn  Zn131  1  0.31205668  0.06881508  0.06410606  1
  Zn  Zn132  1  0.32025738  0.06106968  0.56449869  1
  Zn  Zn133  1  0.32177925  0.56332573  0.06753066  1
  Zn  Zn134  1  0.31250443  0.56381694  0.56148884  1
  Zn  Zn135  1  0.80888173  0.06816242  0.06190023  1
  Zn  Zn136  1  0.81908949  0.06419012  0.55995817  1
  Zn  Zn137  1  0.81073280  0.56324003  0.06530780  1
  Zn  Zn138  1  0.81124343  0.55883673  0.56171228  1
  Zn  Zn139  1  0.44023331  0.44245610  0.18447595  1
  Zn  Zn140  1  0.43795907  0.43643309  0.69103154  1
  Zn  Zn141  1  0.44302149  0.94233771  0.18615386  1
  Zn  Zn142  1  0.43711295  0.93870526  0.68353958  1
  Zn  Zn143  1  0.93803907  0.43083559  0.18475709  1
  Zn  Zn144  1  0.93723444  0.43920404  0.68937977  1
  Zn  Zn145  1  0.93489115  0.93820036  0.18722993  1
  Zn  Zn146  1  0.93516373  0.94395119  0.68708649  1
  Zn  Zn147  1  0.06362961  0.06097627  0.31417366  1
  Zn  Zn148  1  0.06617701  0.06265573  0.80580691  1
  Zn  Zn149  1  0.06308440  0.56068285  0.30718226  1
  Zn  Zn150  1  0.05623270  0.55920946  0.81043986  1
  Zn  Zn151  1  0.56226726  0.06074493  0.31353028  1
  Zn  Zn152  1  0.55944773  0.06332624  0.80955029  1
  Zn  Zn153  1  0.55863285  0.56099950  0.31065269  1
  Zn  Zn154  1  0.56000060  0.56248094  0.81045813  1
  Zn  Zn155  1  0.43826781  0.18318771  0.44046285  1
  Zn  Zn156  1  0.43956813  0.18962857  0.94304346  1
  Zn  Zn157  1  0.43977620  0.68656268  0.43746336  1
  Zn  Zn158  1  0.43537719  0.69070468  0.93719535  1
  Zn  Zn159  1  0.93846521  0.19016372  0.43953575  1
  Zn  Zn160  1  0.93653403  0.18786063  0.93790544  1
  Zn  Zn161  1  0.93663203  0.68716692  0.43572040  1
  Zn  Zn162  1  0.93826058  0.68620841  0.93764722  1
  Zn  Zn163  1  0.05506679  0.30372257  0.06604870  1
  Zn  Zn164  1  0.06774417  0.30865959  0.56040192  1
  Zn  Zn165  1  0.06128786  0.80932390  0.05818795  1
  Zn  Zn166  1  0.06298996  0.81379612  0.56224636  1
  Zn  Zn167  1  0.56308271  0.31211575  0.06541863  1
  Zn  Zn168  1  0.56382993  0.30527039  0.56414311  1
  Zn  Zn169  1  0.56296559  0.81567263  0.06266906  1
  Zn  Zn170  1  0.56484233  0.81006497  0.55916595  1
  O  O171  1  0.12770196  0.11729766  0.11556394  1
  O  O172  1  0.11235980  0.12456359  0.62524740  1
  O  O173  1  0.11037195  0.62669091  0.12769032  1
  O  O174  1  0.11876608  0.62181019  0.62028124  1
  O  O175  1  0.60871462  0.13810212  0.13237422  1
  O  O176  1  0.60448045  0.13339476  0.62271662  1
  O  O177  1  0.61468925  0.61753971  0.13018440  1
  O  O178  1  0.62241254  0.62058011  0.62002947  1
  O  O179  1  0.37562494  0.38030275  0.38316665  1
  O  O180  1  0.38055820  0.39317097  0.87036554  1
  O  O181  1  0.37507471  0.88731593  0.36869614  1
  O  O182  1  0.38894396  0.86990284  0.88549702  1
  O  O183  1  0.88714821  0.38136102  0.37529488  1
  O  O184  1  0.89127910  0.38140709  0.86810880  1
  O  O185  1  0.87846766  0.87121736  0.38201895  1
  O  O186  1  0.87877436  0.88255773  0.87668835  1
  O  O187  1  0.26312601  0.00309045  0.37242943  1
  O  O188  1  0.24823360  0.00803995  0.86284558  1
  O  O189  1  0.26318527  0.50293141  0.37250508  1
  O  O190  1  0.26042165  0.51053966  0.86929232  1
  O  O191  1  0.76547617  -0.00313191  0.36512957  1
  O  O192  1  0.75630905  0.00776598  0.87442352  1
  O  O193  1  0.75413247  0.50524400  0.36917581  1
  O  O194  1  0.75599637  0.49999987  0.86680478  1
  O  O195  1  0.25624295  0.49960520  0.12728629  1
  O  O196  1  0.24445705  0.49411213  0.63027130  1
  O  O197  1  0.24509415  0.99475207  0.12972243  1
  O  O198  1  0.25214974  0.99288727  0.63144040  1
  O  O199  1  0.73489150  0.50834960  0.13377107  1
  O  O200  1  0.74325991  0.49100768  0.63071177  1
  O  O201  1  0.75936633  0.99790129  0.13887737  1
  O  O202  1  0.75794511  0.98723940  0.62373658  1
  O  O203  1  0.01038368  0.37077317  0.25785682  1
  O  O204  1  0.01328047  0.37408428  0.74641735  1
  O  O205  1  0.00460981  0.86693045  0.25183784  1
  O  O206  1  -0.00267652  0.87608402  0.76111099  1
  O  O207  1  0.51202462  0.37788517  0.25051646  1
  O  O208  1  0.50439356  0.36384916  0.75524152  1
  O  O209  1  0.51685523  0.87857467  0.24890854  1
  O  O210  1  0.49570738  0.87060266  0.75766189  1
  O  O211  1  0.48894074  0.11674548  0.24244185  1
  O  O212  1  0.49731873  0.13921044  0.74582299  1
  O  O213  1  0.49056282  0.62877911  0.24260258  1
  O  O214  1  0.49102537  0.63141322  0.74225796  1
  O  O215  1  1.00630503  0.12667999  0.24737788  1
  O  O216  1  0.99225799  0.12845341  0.74181973  1
  O  O217  1  0.99280991  0.63124293  0.24455854  1
  O  O218  1  0.98744004  0.62397088  0.74165791  1
  O  O219  1  0.36105050  0.24709170  0.00982793  1
  O  O220  1  0.36472021  0.25806006  0.49545949  1
  O  O221  1  0.37627763  0.76010750  0.01036776  1
  O  O222  1  0.36726332  0.74427867  0.50785987  1
  O  O223  1  0.86170944  0.25469562  -0.00609166  1
  O  O224  1  0.85896089  0.25244729  0.49632734  1
  O  O225  1  0.86901339  0.75548682  0.00497055  1
  O  O226  1  0.87323783  0.75603169  0.50696215  1
  O  O227  1  0.14125557  0.24580091  0.49545609  1
  O  O228  1  0.13226323  0.24295149  0.99749788  1
  O  O229  1  0.13114076  0.74589791  0.49316542  1
  O  O230  1  0.12701718  0.75202499  0.98429339  1
  O  O231  1  0.63210835  0.24938704  0.48856298  1
  O  O232  1  0.63318221  0.25555969  0.98941888  1
  O  O233  1  0.62905665  0.74179138  0.49165530  1
  O  O234  1  0.63254803  0.75630909  0.99136854  1
  O  O235  1  0.48376806  0.24180029  0.11355553  1
  O  O236  1  0.49703878  0.24796408  0.64057366  1
  O  O237  1  0.49712770  0.74238637  0.12688267  1
  O  O238  1  0.49288043  0.74706734  0.62798428  1
  O  O239  1  0.98471839  0.24472973  0.13072366  1
  O  O240  1  1.00242537  0.23780648  0.62650862  1
  O  O241  1  0.99236958  0.74479578  0.12858709  1
  O  O242  1  0.98887735  0.74607904  0.62615906  1
  O  O243  1  0.00411778  0.25875311  0.37606979  1
  O  O244  1  0.00614973  0.25986113  0.87347604  1
  O  O245  1  0.00441157  0.75405236  0.36621789  1
  O  O246  1  0.00456628  0.75820280  0.87332716  1
  O  O247  1  0.51382328  0.25041842  0.37941788  1
  O  O248  1  0.50368489  0.25431230  0.86794445  1
  O  O249  1  0.51397377  0.74589768  0.37247700  1
  O  O250  1  0.50463078  0.75715544  0.87037087  1
  O  O251  1  0.25523399  0.12996997  0.49457007  1
  O  O252  1  0.23920638  0.12803672  0.99172436  1
  O  O253  1  0.24357694  0.63700761  0.49924647  1
  O  O254  1  0.25173471  0.62656025  0.99382019  1
  O  O255  1  0.74668408  0.13747213  0.50673467  1
  O  O256  1  0.74952188  0.13441501  0.98642212  1
  O  O257  1  0.74231151  0.62404759  0.49283753  1
  O  O258  1  0.75406380  0.63962063  0.99704365  1
  O  O259  1  0.24342272  0.35910114  -0.00122450  1
  O  O260  1  0.25792830  0.36853763  0.50780647  1
  O  O261  1  0.25890028  0.87602224  0.00416005  1
  O  O262  1  0.24764078  0.86284467  0.50702805  1
  O  O263  1  0.74937736  0.36385964  -0.00590091  1
  O  O264  1  0.75130502  0.36674895  0.50947541  1
  O  O265  1  0.75636618  0.86636073  0.00065230  1
  O  O266  1  0.76048470  0.87397192  0.50782475  1
  O  O267  1  0.12780896  0.48284979  0.25427410  1
  O  O268  1  0.13156986  0.49420020  0.74538879  1
  O  O269  1  0.13326507  0.99089296  0.24561421  1
  O  O270  1  0.13760616  0.99611864  0.74552253  1
  O  O271  1  0.62993194  0.49344306  0.24567865  1
  O  O272  1  0.62933327  0.48863391  0.74690321  1
  O  O273  1  0.63806700  0.98979874  0.25994298  1
  O  O274  1  0.62601395  0.99383298  0.75369134  1
  O  O275  1  0.37232209  0.00565533  0.25809122  1
  O  O276  1  0.36104691  -0.00181806  0.74791260  1
  O  O277  1  0.37629433  0.50733454  0.25710489  1
  O  O278  1  0.36953793  0.50868532  0.75475238  1
  O  O279  1  0.86534822  -0.00455117  0.26052799  1
  O  O280  1  0.87064689  0.01010816  0.76084682  1
  O  O281  1  0.86646106  0.50185019  0.25346321  1
  O  O282  1  0.86861437  0.50654026  0.75543555  1
  O  O283  1  0.11483857  0.37477496  0.37180089  1
  O  O284  1  0.11305020  0.36481811  0.86643001  1
  O  O285  1  0.11824849  0.86937434  0.36843852  1
  O  O286  1  0.11568736  0.86870178  0.87365753  1
  O  O287  1  0.61918380  0.36810139  0.36884743  1
  O  O288  1  0.61515881  0.37031401  0.86678389  1
  O  O289  1  0.63381955  0.86452494  0.36386236  1
  O  O290  1  0.61189767  0.86469899  0.87355205  1
  O  O291  1  0.38181511  0.13144969  0.13212137  1
  O  O292  1  0.39110322  0.12836196  0.62292500  1
  O  O293  1  0.38903775  0.63419436  0.12933369  1
  O  O294  1  0.37993004  0.63414300  0.63011295  1
  O  O295  1  0.87342203  0.14653894  0.11132427  1
  O  O296  1  0.88560601  0.12254985  0.63410991  1
  O  O297  1  0.88007883  0.63500752  0.12926116  1
  O  O298  1  0.87716828  0.63148682  0.62962694  1
  O  O299  1  0.26014351  0.24371382  0.11362080  1
  O  O300  1  0.24762406  0.25822687  0.61895106  1
  O  O301  1  0.26038825  0.75630805  0.11991301  1
  O  O302  1  0.25679810  0.75588397  0.61856911  1
  O  O303  1  0.75697122  0.25009316  0.11056964  1
  O  O304  1  0.74012793  0.25732112  0.61180928  1
  O  O305  1  0.75736668  0.75070326  0.11804222  1
  O  O306  1  0.76234523  0.75715220  0.62306640  1
  O  O307  1  0.25209695  0.23914765  0.38253099  1
  O  O308  1  0.24315501  0.24553508  0.88605713  1
  O  O309  1  0.24625114  0.74963497  0.38172948  1
  O  O310  1  0.24083092  0.75535239  0.87476079  1
  O  O311  1  0.73922550  0.25578165  0.39063857  1
  O  O312  1  0.74163071  0.24628675  0.88339883  1
  O  O313  1  0.74193588  0.73824067  0.37454126  1
  O  O314  1  0.74041329  0.75002698  0.88090484  1
  O  O315  1  0.01264909  0.12116099  -0.00246817  1
  O  O316  1  0.00041873  0.12474081  0.51135028  1
  O  O317  1  -0.00292648  0.62532610  0.01302667  1
  O  O318  1  0.00560406  0.61991885  0.50457029  1
  O  O319  1  0.50064268  0.11292813  0.00443482  1
  O  O320  1  0.50191592  0.11527586  0.50784492  1
  O  O321  1  0.50065819  0.63071812  0.01328456  1
  O  O322  1  0.50945442  0.62231086  0.50684408  1
  O  O323  1  0.48627603  0.37318975  0.50536283  1
  O  O324  1  0.50150280  0.36964351  0.98562427  1
  O  O325  1  0.50125059  0.88773738  0.50424407  1
  O  O326  1  0.49636698  0.88835532  0.99645774  1
  O  O327  1  1.00076948  0.37991973  0.49464100  1
  O  O328  1  1.00567005  0.37503716  0.98940241  1
  O  O329  1  0.98879397  0.87472139  0.49490218  1
  O  O330  1  0.99291896  0.88001974  0.98772429  1
  O  O331  1  0.48777561  0.49599461  0.37883340  1
  O  O332  1  0.49062382  0.49209632  0.86886247  1
  O  O333  1  0.48881422  1.00351434  0.38607556  1
  O  O334  1  0.50244565  0.99494114  0.88916279  1
  O  O335  1  0.99494651  0.49453313  0.37949167  1
  O  O336  1  0.99329426  0.48573945  0.87173677  1
  O  O337  1  0.98704937  0.99074690  0.37385108  1
  O  O338  1  0.99356242  0.99498215  0.87758756  1
  O  O339  1  0.00348498  0.00035972  0.11527970  1
  O  O340  1  0.00036456  0.01326369  0.62349290  1
  O  O341  1  -0.00549402  0.51333650  0.12902170  1
  O  O342  1  0.00639986  0.50467105  0.61860400  1
  O  O343  1  0.49908465  0.00906332  0.10969327  1
  O  O344  1  0.49490277  0.00546179  0.61043753  1
  O  O345  1  0.51177733  0.51389178  0.12566197  1
  O  O346  1  0.50729110  0.50552900  0.62585036  1
  O  O347  1  0.23436571  0.37477340  0.25568882  1
  O  O348  1  0.24049130  0.37951694  0.74565869  1
  O  O349  1  0.24556407  0.87908747  0.24155088  1
  O  O350  1  0.25073583  0.88593109  0.74304517  1
  O  O351  1  0.74087773  0.38769928  0.25583116  1
  O  O352  1  0.74107458  0.37486994  0.74430520  1
  O  O353  1  0.74123526  0.88346516  0.24515401  1
  O  O354  1  0.75368623  0.87675429  0.73362249  1
  O  O355  1  0.25974201  0.11824313  0.25583975  1
  O  O356  1  0.24783634  0.11415850  0.75745249  1
  O  O357  1  0.26658088  0.62651005  0.24959181  1
  O  O358  1  0.26299002  0.62228532  0.74241695  1
  O  O359  1  0.74445350  0.10989861  0.24746325  1
  O  O360  1  0.75599462  0.12819370  0.75765627  1
  O  O361  1  0.75484579  0.61618967  0.25556428  1
  O  O362  1  0.75968481  0.61987396  0.75003863  1
  O  O363  1  0.36917726  0.11871699  0.36726485  1
  O  O364  1  0.36232655  0.13070686  0.88072216  1
  O  O365  1  0.37627081  0.61845562  0.36723096  1
  O  O366  1  0.38463461  0.61638618  0.86423050  1
  O  O367  1  0.87692393  0.11375330  0.37701943  1
  O  O368  1  0.86818405  0.11903758  0.86922300  1
  O  O369  1  0.86882674  0.61820531  0.36865373  1
  O  O370  1  0.87486668  0.61701733  0.86611429  1
  O  O371  1  0.11936400  0.37218135  0.13457545  1
  O  O372  1  0.13541624  0.37936460  0.63018041  1
  O  O373  1  0.12875165  0.87987683  0.12654724  1
  O  O374  1  0.13844858  0.87178735  0.62795893  1
  O  O375  1  0.61950073  0.38902966  0.13203217  1
  O  O376  1  0.63019532  0.37744282  0.63275973  1
  O  O377  1  0.62788995  0.87203677  0.14074316  1
  O  O378  1  0.64401646  0.86731361  0.62220562  1
  O  O379  1  0.12576865  0.26182800  0.25368686  1
  O  O380  1  0.12615567  0.25728683  0.75944905  1
  O  O381  1  0.12222156  0.75445104  0.25321278  1
  O  O382  1  0.12046584  0.75291352  0.76146646  1
  O  O383  1  0.63656316  0.26022082  0.26580083  1
  O  O384  1  0.62057498  0.25980301  0.76027763  1
  O  O385  1  0.62569821  0.76083661  0.25650146  1
  O  O386  1  0.61704523  0.75653749  0.75527706  1
  O  O387  1  0.36936969  0.24155947  0.23644785  1
  O  O388  1  0.38293835  0.25648754  0.75648869  1
  O  O389  1  0.37937657  0.74650201  0.23829696  1
  O  O390  1  0.37961806  0.74386225  0.74310393  1
  O  O391  1  0.86790614  0.25126005  0.24151102  1
  O  O392  1  0.87577197  0.23940069  0.75614034  1
  O  O393  1  0.87810079  0.74514486  0.24089202  1
  O  O394  1  0.87591034  0.74119303  0.74313712  1
  O  O395  1  0.37463661  0.49204456  0.49366940  1
  O  O396  1  0.37935908  0.50792496  0.98395947  1
  O  O397  1  0.38299261  0.99842606  0.48705934  1
  O  O398  1  0.37717490  0.99212968  1.00385922  1
  O  O399  1  0.88222235  0.49688100  0.49323977  1
  O  O400  1  0.86691285  0.50302342  0.98652429  1
  O  O401  1  0.87624974  0.99254980  0.48559492  1
  O  O402  1  0.87792714  0.99726169  0.98868137  1
  O  O403  1  0.12029051  0.00626732  0.00272631  1
  O  O404  1  0.12155269  0.00176992  0.50540189  1
  O  O405  1  0.14003514  0.50579099  -0.01709773  1
  O  O406  1  0.12267686  0.50596492  0.50417913  1
  O  O407  1  0.61882531  -0.00285724  0.00059786  1
  O  O408  1  0.61187655  0.00044663  0.49023272  1
  O  O409  1  0.63057070  0.49906200  0.01354232  1
  O  O410  1  0.62390992  0.50445631  0.50663082  1
  O  O411  1  0.38041822  0.36055703  0.13016861  1
  O  O412  1  0.36216215  0.38195607  0.62029207  1
  O  O413  1  0.37373646  0.87027540  0.11952966  1
  O  O414  1  0.36474715  0.86213054  0.62814183  1
  O  O415  1  0.87644803  0.35680364  0.12271856  1
  O  O416  1  0.86104685  0.37828080  0.62720810  1
  O  O417  1  0.87584168  0.86271679  0.11811704  1
  O  O418  1  0.87075392  0.86916270  0.61767126  1
  O  O419  1  0.14361165  0.11986940  0.37705933  1
  O  O420  1  0.12821691  0.13666771  0.87901468  1
  O  O421  1  0.12668463  0.63178214  0.37837338  1
  O  O422  1  0.12878633  0.62750513  0.87217822  1
  O  O423  1  0.62316483  0.13801517  0.37595824  1
  O  O424  1  0.63145382  0.13648927  0.86921352  1
  O  O425  1  0.62952730  0.62757066  0.37921149  1
  O  O426  1  0.62419618  0.63862259  0.86799648  1
