# generated using pymatgen
data_V85Zn86O256
_symmetry_space_group_name_H-M   'P 1'
_cell_length_a   16.94036113
_cell_length_b   16.93392595
_cell_length_c   16.94375408
_cell_angle_alpha   89.91826954
_cell_angle_beta   90.02754508
_cell_angle_gamma   90.04220997
_symmetry_Int_Tables_number   1
_chemical_formula_structural   V85Zn86O256
_chemical_formula_sum   'V85 Zn86 O256'
_cell_volume   4860.59404265
_cell_formula_units_Z   1
loop_
 _symmetry_equiv_pos_site_id
 _symmetry_equiv_pos_as_xyz
  1  'x, y, z'
loop_
 _atom_site_type_symbol
 _atom_site_label
 _atom_site_symmetry_multiplicity
 _atom_site_fract_x
 _atom_site_fract_y
 _atom_site_fract_z
 _atom_site_occupancy
  V  V0  1  0.75540687  0.86962241  0.13050981  1
  V  V1  1  0.51123156  0.74776371  0.25178929  1
  V  V2  1  0.12644002  0.87380933  0.25039858  1
  V  V3  1  0.24552285  0.50273490  0.24848203  1
  V  V4  1  0.86998401  0.25647054  0.10460277  1
  V  V5  1  0.37423029  0.24664288  0.13032805  1
  V  V6  1  0.62236170  0.12650440  0.50127337  1
  V  V7  1  -0.00348403  0.13086590  0.13314355  1
  V  V8  1  -0.00047610  0.87716464  0.37967465  1
  V  V9  1  0.25428745  0.12628580  0.36705543  1
  V  V10  1  0.75269858  -0.00296224  0.74757065  1
  V  V11  1  0.86960802  0.75202188  0.62476400  1
  V  V12  1  0.74144268  0.62815736  0.36869664  1
  V  V13  1  0.11854771  0.37648280  0.24468808  1
  V  V14  1  0.37615423  0.00188922  0.36606569  1
  V  V15  1  0.24521262  0.38630408  0.61677392  1
  V  V16  1  0.87641341  0.00315443  0.37362160  1
  V  V17  1  0.25030932  0.50004701  0.74855524  1
  V  V18  1  0.11943127  0.25031298  0.36780498  1
  V  V19  1  0.37287384  0.87349903  0.49817511  1
  V  V20  1  0.38652047  0.37494602  0.50052525  1
  V  V21  1  0.63355103  0.86900793  0.75195281  1
  V  V22  1  0.12268010  0.12839161  0.00279526  1
  V  V23  1  0.24804051  0.62505376  0.37722607  1
  V  V24  1  0.87263645  0.13981720  0.25249641  1
  V  V25  1  0.38311021  0.87789535  -0.00071355  1
  V  V26  1  0.87665450  -0.00272105  0.88015085  1
  V  V27  1  0.25354812  0.88246212  0.12552821  1
  V  V28  1  0.62680131  -0.00274047  0.62728635  1
  V  V29  1  0.25200666  0.74983932  -0.00061766  1
  V  V30  1  0.87254565  0.88061525  0.50474586  1
  V  V31  1  0.12511021  0.25364135  0.87463345  1
  V  V32  1  0.74322006  0.75009667  0.49742705  1
  V  V33  1  0.74046107  0.62845087  0.87346814  1
  V  V34  1  0.25208870  0.25318912  0.49981664  1
  V  V35  1  0.49912114  -0.00043091  0.50074499  1
  V  V36  1  0.50937017  0.87677201  0.87742993  1
  V  V37  1  0.75087994  0.49562833  0.74619017  1
  V  V38  1  0.87714513  0.24836083  0.62139048  1
  V  V39  1  0.24394006  0.87299966  0.62570917  1
  V  V40  1  0.12002108  0.12222724  0.49669876  1
  V  V41  1  0.37896070  0.74786800  0.12829142  1
  V  V42  1  0.83028878  0.44607397  0.93165897  1
  V  V43  1  0.49494788  0.25272309  0.25866526  1
  V  V44  1  0.75068938  0.50037663  0.24102657  1
  V  V45  1  0.37512027  0.62412263  0.75712733  1
  V  V46  1  0.00140955  0.11653481  0.62070596  1
  V  V47  1  0.37610601  0.37863403  -0.01710480  1
  V  V48  1  0.48117208  0.12829363  0.64090322  1
  V  V49  1  -0.00032877  -0.00204995  0.00088971  1
  V  V50  1  0.00070608  0.75456749  0.75158395  1
  V  V51  1  0.12419731  0.38396389  0.74245211  1
  V  V52  1  0.50887768  0.86970982  0.37644475  1
  V  V53  1  -0.00195728  0.38183628  0.87649428  1
  V  V54  1  0.74835527  0.75058512  -0.00196850  1
  V  V55  1  0.24850509  0.25145403  -0.00049825  1
  V  V56  1  0.00534847  0.62109982  0.62657073  1
  V  V57  1  0.50521063  0.61223210  0.12732072  1
  V  V58  1  0.74805974  0.37260720  0.62212752  1
  V  V59  1  0.12228893  -0.00300687  0.62022983  1
  V  V60  1  0.49555441  0.50026637  -0.01812038  1
  V  V61  1  0.00503842  0.50003860  0.50215969  1
  V  V62  1  0.50562845  0.74828675  0.75714839  1
  V  V63  1  0.87359371  0.51006751  0.36935386  1
  V  V64  1  0.25161166  0.62323986  0.87599694  1
  V  V65  1  -0.00325965  0.37459475  0.37037171  1
  V  V66  1  0.60757686  0.36456828  0.74796567  1
  V  V67  1  0.62152597  0.38013779  0.23895753  1
  V  V68  1  0.24881622  0.38131643  0.12502053  1
  V  V69  1  0.74522119  0.13130664  0.88067068  1
  V  V70  1  0.00441832  0.49676130  0.00729403  1
  V  V71  1  0.12403880  0.74457509  0.87632464  1
  V  V72  1  0.87911470  0.12240894  0.74832840  1
  V  V73  1  0.87419221  0.62076732  0.75503875  1
  V  V74  1  0.87419530  0.37667194  0.49747976  1
  V  V75  1  0.12701622  0.62094996  0.01422665  1
  V  V76  1  0.50155356  0.62089260  0.61826092  1
  V  V77  1  0.38530895  0.49690262  0.38005721  1
  V  V78  1  0.00560737  0.24908308  0.74549744  1
  V  V79  1  0.50275446  0.12536798  0.13437482  1
  V  V80  1  -0.01326775  0.74813264  0.24679799  1
  V  V81  1  -0.01183399  0.62691101  0.12879158  1
  V  V82  1  0.37568421  0.75095171  0.62576183  1
  V  V83  1  0.62325581  0.26091693  0.37782188  1
  V  V84  1  0.51106793  0.00320390  0.00127625  1
  Zn  Zn85  1  0.12389113  0.00199321  0.12675220  1
  Zn  Zn86  1  0.62815263  0.87713595  0.25323628  1
  Zn  Zn87  1  0.24480759  0.74802649  0.49796604  1
  Zn  Zn88  1  0.12650003  0.62374381  0.50359615  1
  Zn  Zn89  1  0.37541210  0.62267205  0.25155132  1
  Zn  Zn90  1  0.12121486  0.74611290  0.37567906  1
  Zn  Zn91  1  0.62366552  0.62269616  0.00056259  1
  Zn  Zn92  1  0.74949708  0.24811902  0.49897186  1
  Zn  Zn93  1  0.25289550  0.00470258  0.24590310  1
  Zn  Zn94  1  0.31381099  0.16508026  0.83768413  1
  Zn  Zn95  1  0.87899301  0.86375287  0.00874837  1
  Zn  Zn96  1  0.63574837  0.14553882  0.01374252  1
  Zn  Zn97  1  0.62976061  0.00139767  0.13145030  1
  Zn  Zn98  1  0.74974278  0.00257211  0.24967913  1
  Zn  Zn99  1  0.14132073  0.90094024  0.77854639  1
  Zn  Zn100  1  0.74560671  0.12518795  0.37438741  1
  Zn  Zn101  1  0.74930435  0.37492402  0.10922485  1
  Zn  Zn102  1  -0.00220366  0.86891799  0.88224844  1
  Zn  Zn103  1  0.61836119  0.49336589  0.61484087  1
  Zn  Zn104  1  0.28264702  0.01800894  0.75078378  1
  Zn  Zn105  1  0.62052304  0.62164813  0.49399225  1
  Zn  Zn106  1  0.60986790  0.25576646  0.88076920  1
  Zn  Zn107  1  0.18630699  0.19051043  0.18673570  1
  Zn  Zn108  1  0.24240562  0.22020373  0.70652424  1
  Zn  Zn109  1  0.18752021  0.69207477  0.18977446  1
  Zn  Zn110  1  0.18797422  0.69168647  0.68798466  1
  Zn  Zn111  1  0.68999857  0.19386378  0.18985722  1
  Zn  Zn112  1  0.68710069  0.18375447  0.68736056  1
  Zn  Zn113  1  0.68956927  0.68724939  0.18433105  1
  Zn  Zn114  1  0.68817564  0.68642742  0.68469480  1
  Zn  Zn115  1  0.31111795  0.31642668  0.31433079  1
  Zn  Zn116  1  0.43279762  0.29083422  0.79165695  1
  Zn  Zn117  1  0.31599190  0.81164338  0.31127393  1
  Zn  Zn118  1  0.33231901  0.84548713  0.79696647  1
  Zn  Zn119  1  0.80584222  0.31558341  0.31274394  1
  Zn  Zn120  1  0.81126899  0.30674830  0.80414541  1
  Zn  Zn121  1  0.81270776  0.81261161  0.31571143  1
  Zn  Zn122  1  0.81334125  0.81025292  0.81675661  1
  Zn  Zn123  1  0.18604972  0.44036282  0.43190222  1
  Zn  Zn124  1  0.18764596  0.44015112  0.93461681  1
  Zn  Zn125  1  0.18726586  0.93846216  0.43628233  1
  Zn  Zn126  1  0.18966570  0.93883470  0.94241753  1
  Zn  Zn127  1  0.68308047  0.44269081  0.43622178  1
  Zn  Zn128  1  0.66471404  0.43736523  0.93432475  1
  Zn  Zn129  1  0.69190490  0.93870189  0.43949285  1
  Zn  Zn130  1  0.68992412  0.93746406  0.93997226  1
  Zn  Zn131  1  0.32798632  0.07708851  0.02938858  1
  Zn  Zn132  1  0.30515505  0.05860601  0.55640827  1
  Zn  Zn133  1  0.31696747  0.56111152  0.06358755  1
  Zn  Zn134  1  0.31501460  0.56249392  0.56298087  1
  Zn  Zn135  1  0.81300547  0.06017221  0.06606579  1
  Zn  Zn136  1  0.81026830  0.06037473  0.56139860  1
  Zn  Zn137  1  0.81028026  0.57030424  0.06642004  1
  Zn  Zn138  1  0.81257801  0.56378366  0.56053792  1
  Zn  Zn139  1  0.43168591  0.43356482  0.19183003  1
  Zn  Zn140  1  0.42734352  0.44159931  0.68192064  1
  Zn  Zn141  1  0.44238708  0.93676024  0.18790778  1
  Zn  Zn142  1  0.44258519  0.93957765  0.68622190  1
  Zn  Zn143  1  0.93377659  0.43744117  0.18361872  1
  Zn  Zn144  1  0.93518650  0.43784144  0.68659898  1
  Zn  Zn145  1  0.93516440  0.94051492  0.19004830  1
  Zn  Zn146  1  0.94282912  0.93698951  0.68761082  1
  Zn  Zn147  1  0.06085555  0.05911423  0.31093727  1
  Zn  Zn148  1  0.13522036  0.07214437  0.80535829  1
  Zn  Zn149  1  0.06262740  0.56252361  0.31066200  1
  Zn  Zn150  1  0.06165050  0.56281008  0.81648749  1
  Zn  Zn151  1  0.56424629  0.06387079  0.31295670  1
  Zn  Zn152  1  0.56157863  0.06168661  0.81536366  1
  Zn  Zn153  1  0.56463312  0.56161955  0.31124639  1
  Zn  Zn154  1  0.56452372  0.55639773  0.80293518  1
  Zn  Zn155  1  0.43734101  0.18738346  0.44159426  1
  Zn  Zn156  1  0.44482710  0.18398409  0.94451960  1
  Zn  Zn157  1  0.43337459  0.68795341  0.43492127  1
  Zn  Zn158  1  0.43989994  0.69041206  0.93756075  1
  Zn  Zn159  1  0.93836382  0.19027173  0.43528178  1
  Zn  Zn160  1  0.94182230  0.18453927  0.93353460  1
  Zn  Zn161  1  0.93544264  0.68908294  0.43756989  1
  Zn  Zn162  1  0.93276919  0.68116972  0.93935999  1
  Zn  Zn163  1  0.05676524  0.31383735  0.06637654  1
  Zn  Zn164  1  0.06513413  0.31099828  0.55868314  1
  Zn  Zn165  1  0.06444381  0.81079069  0.06574806  1
  Zn  Zn166  1  0.05967042  0.80679548  0.55901078  1
  Zn  Zn167  1  0.55757731  0.31348267  0.05981246  1
  Zn  Zn168  1  0.55797285  0.30333489  0.57148956  1
  Zn  Zn169  1  0.57240552  0.80810257  0.06592341  1
  Zn  Zn170  1  0.56349380  0.81201734  0.56736362  1
  O  O171  1  0.11287579  0.12676059  0.12266099  1
  O  O172  1  0.11666890  0.11724827  0.61174124  1
  O  O173  1  0.12000732  0.62994844  0.11665423  1
  O  O174  1  0.10879683  0.62947626  0.62687879  1
  O  O175  1  0.61820797  0.12609653  0.12888270  1
  O  O176  1  0.61742522  0.11361578  0.62291095  1
  O  O177  1  0.60875973  0.62616206  0.12300494  1
  O  O178  1  0.60850223  0.62485603  0.62815593  1
  O  O179  1  0.36914356  0.38868089  0.38424373  1
  O  O180  1  0.37273609  0.37112639  0.88655077  1
  O  O181  1  0.38166702  0.88104073  0.38137322  1
  O  O182  1  0.39519016  0.85815106  0.89283850  1
  O  O183  1  0.87765907  0.38201259  0.38005459  1
  O  O184  1  0.88017660  0.37512584  0.86964994  1
  O  O185  1  0.88120054  0.88336243  0.38040835  1
  O  O186  1  0.87718952  0.88701848  0.87726505  1
  O  O187  1  0.25809484  0.00853635  0.37390097  1
  O  O188  1  0.20583509  -0.01604211  0.84189726  1
  O  O189  1  0.25526482  0.50972259  0.36851589  1
  O  O190  1  0.24314817  0.50899518  0.85982137  1
  O  O191  1  0.76334287  0.00327095  0.37512654  1
  O  O192  1  0.75718106  0.00574142  0.86608551  1
  O  O193  1  0.75636994  0.50756961  0.36583889  1
  O  O194  1  0.75430445  0.49968646  0.86820117  1
  O  O195  1  0.25527835  0.49231733  0.13430060  1
  O  O196  1  0.24690461  0.49962324  0.63443365  1
  O  O197  1  0.25414502  0.98801285  0.12353208  1
  O  O198  1  0.23987453  0.99080464  0.63010974  1
  O  O199  1  0.75619517  0.49696628  0.13679439  1
  O  O200  1  0.74990405  0.49105310  0.63054292  1
  O  O201  1  0.74981679  0.98676117  0.12709540  1
  O  O202  1  0.74377042  1.00396605  0.63957027  1
  O  O203  1  0.01269584  0.38343329  0.25112641  1
  O  O204  1  0.00508900  0.37174837  0.75428379  1
  O  O205  1  0.00532870  0.86721734  0.25536418  1
  O  O206  1  0.00190586  0.86062376  0.75416996  1
  O  O207  1  0.51156546  0.36840619  0.24656467  1
  O  O208  1  0.50265217  0.37192110  0.73741003  1
  O  O209  1  0.50144012  0.86609379  0.25941824  1
  O  O210  1  0.51300063  0.86733883  0.75884195  1
  O  O211  1  0.50064691  0.13492730  0.24174358  1
  O  O212  1  0.49277334  0.10993053  0.73969157  1
  O  O213  1  0.49785090  0.62944150  0.24220780  1
  O  O214  1  0.49394498  0.63090695  0.74503125  1
  O  O215  1  0.99249338  0.12113158  0.23897346  1
  O  O216  1  0.99559557  0.13321049  0.73655133  1
  O  O217  1  1.00664543  0.63919132  0.24389357  1
  O  O218  1  0.99107440  0.62804378  0.74614381  1
  O  O219  1  0.36655309  0.26495207  0.00989156  1
  O  O220  1  0.36300694  0.26151647  0.49010364  1
  O  O221  1  0.37387749  0.75538708  0.01231660  1
  O  O222  1  0.37364542  0.76177829  0.50382943  1
  O  O223  1  0.87583599  0.24637389  0.00616982  1
  O  O224  1  0.87290834  0.25855524  0.50370828  1
  O  O225  1  0.85898824  0.74815453  -0.00552226  1
  O  O226  1  0.86948245  0.75715668  0.50771389  1
  O  O227  1  0.13095808  0.24545731  0.48522111  1
  O  O228  1  0.12712896  0.24896772  0.99740428  1
  O  O229  1  0.12620243  0.74313793  0.49311583  1
  O  O230  1  0.13127182  0.74063500  0.99750719  1
  O  O231  1  0.62213455  0.24334311  0.49484639  1
  O  O232  1  0.62609439  0.25715009  0.99376454  1
  O  O233  1  0.64015399  0.74813284  0.50928420  1
  O  O234  1  0.63985647  0.74180688  1.00054641  1
  O  O235  1  0.49225584  0.24629808  0.13492927  1
  O  O236  1  0.49578724  0.22780180  0.63010136  1
  O  O237  1  0.49506644  0.74205297  0.13105857  1
  O  O238  1  0.49509365  0.74436209  0.63641650  1
  O  O239  1  0.98513847  0.24166461  0.12216322  1
  O  O240  1  0.99774809  0.24260828  0.62653821  1
  O  O241  1  1.00421121  0.74456781  0.13914785  1
  O  O242  1  0.99051090  0.74251860  0.63309336  1
  O  O243  1  0.00863866  0.26081516  0.37605916  1
  O  O244  1  0.00388662  0.26288962  0.86868439  1
  O  O245  1  -0.00149272  0.75641594  0.36322732  1
  O  O246  1  0.00359806  0.74417999  0.86874231  1
  O  O247  1  0.50442149  0.24525422  0.36456712  1
  O  O248  1  0.49754987  0.24356309  0.86912711  1
  O  O249  1  0.49236241  0.75776507  0.36476868  1
  O  O250  1  0.50485221  0.75236498  0.86332153  1
  O  O251  1  0.23973256  0.13359062  0.49088324  1
  O  O252  1  0.22887136  0.13712758  1.01545297  1
  O  O253  1  0.24818044  0.62366363  0.49160021  1
  O  O254  1  0.24481850  0.62709827  0.99788861  1
  O  O255  1  0.73378028  0.12554936  0.50237714  1
  O  O256  1  0.74942103  0.11621550  0.98453413  1
  O  O257  1  0.75152763  0.63354910  0.49056513  1
  O  O258  1  0.74684103  0.62735287  0.99034862  1
  O  O259  1  0.25631913  0.37391858  0.00580891  1
  O  O260  1  0.24970062  0.37253042  0.50109362  1
  O  O261  1  0.26209608  0.87179378  0.00530351  1
  O  O262  1  0.25695900  0.87405783  0.50632058  1
  O  O263  1  0.75742042  0.39769610  -0.00835493  1
  O  O264  1  0.75400868  0.37523455  0.51007174  1
  O  O265  1  0.75230873  0.86730656  0.00859808  1
  O  O266  1  0.76126678  0.86423755  0.49489891  1
  O  O267  1  0.13729011  0.49168955  0.25498906  1
  O  O268  1  0.12660350  0.48990307  0.75347842  1
  O  O269  1  0.12762322  0.98771330  0.24657153  1
  O  O270  1  0.09919706  0.99626132  0.72430732  1
  O  O271  1  0.63097374  0.48575985  0.25504809  1
  O  O272  1  0.63364732  0.48597742  0.74046169  1
  O  O273  1  0.63054935  0.99610149  0.25204154  1
  O  O274  1  0.63402032  0.99334451  0.74603664  1
  O  O275  1  0.37417797  -0.00477291  0.26264511  1
  O  O276  1  0.36913350  -0.04694954  0.76632226  1
  O  O277  1  0.36247262  0.49738380  0.26217688  1
  O  O278  1  0.36392718  0.51258136  0.74770899  1
  O  O279  1  0.87299322  0.01163070  0.25885318  1
  O  O280  1  0.87177208  0.00265743  0.75549227  1
  O  O281  1  0.86498654  0.49204937  0.25948535  1
  O  O282  1  0.86119626  0.50624018  0.74467112  1
  O  O283  1  0.11915699  0.36882512  0.36614161  1
  O  O284  1  0.11696553  0.36973761  0.86941890  1
  O  O285  1  0.11661404  0.87556048  0.36862104  1
  O  O286  1  0.11810837  0.85455750  0.88432488  1
  O  O287  1  0.62740353  0.36447939  0.36800810  1
  O  O288  1  0.62254701  0.37452093  0.85111431  1
  O  O289  1  0.61151383  0.87753309  0.37977296  1
  O  O290  1  0.61844141  0.87680988  0.86773648  1
  O  O291  1  0.38172027  0.14040228  0.11773545  1
  O  O292  1  0.38264737  0.11171604  0.62131278  1
  O  O293  1  0.38336701  0.63272731  0.12793276  1
  O  O294  1  0.38349076  0.63169362  0.63353765  1
  O  O295  1  0.87790444  0.13548739  0.13173626  1
  O  O296  1  0.88187736  0.12886921  0.62466790  1
  O  O297  1  0.88888580  0.62764559  0.12582588  1
  O  O298  1  0.88147971  0.63161269  0.63495166  1
  O  O299  1  0.25470937  0.25725706  0.11883215  1
  O  O300  1  0.23929871  0.26468835  0.60437817  1
  O  O301  1  0.25878751  0.75914192  0.12015307  1
  O  O302  1  0.25761869  0.75322932  0.61826980  1
  O  O303  1  0.76541130  0.25350946  0.12418722  1
  O  O304  1  0.75641467  0.25600976  0.62342332  1
  O  O305  1  0.74966943  0.76056528  0.11818504  1
  O  O306  1  0.76395068  0.74352917  0.61818535  1
  O  O307  1  0.24325999  0.24473954  0.38028262  1
  O  O308  1  0.23811357  0.25272837  0.89429851  1
  O  O309  1  0.25368976  0.73560514  0.37339647  1
  O  O310  1  0.24069164  0.74176229  0.88351005  1
  O  O311  1  0.73823729  0.24720696  0.37946128  1
  O  O312  1  0.75386288  0.23182316  0.86844301  1
  O  O313  1  0.75764009  0.73925441  0.38360975  1
  O  O314  1  0.74970159  0.73848215  0.87971482  1
  O  O315  1  0.00620078  0.12062082  0.00992319  1
  O  O316  1  0.01257578  0.13326938  0.50392915  1
  O  O317  1  0.00743662  0.61945114  0.00831187  1
  O  O318  1  -0.00380267  0.61772253  0.50908148  1
  O  O319  1  0.50906022  0.11699662  0.01627857  1
  O  O320  1  0.50807362  0.11814763  0.50725957  1
  O  O321  1  0.49422351  0.61306032  0.00778100  1
  O  O322  1  0.49884188  0.63681513  0.51563387  1
  O  O323  1  0.48526362  0.36914617  0.51168032  1
  O  O324  1  0.48431332  0.38864586  1.00501743  1
  O  O325  1  0.49297246  0.87760295  0.49587476  1
  O  O326  1  0.50278864  0.87695916  0.99669802  1
  O  O327  1  0.99382710  0.38185604  0.49412422  1
  O  O328  1  1.00313872  0.38571522  0.99235273  1
  O  O329  1  0.99005457  0.86699770  0.48561669  1
  O  O330  1  0.99732065  0.88215589  1.00453138  1
  O  O331  1  0.48348114  0.50379716  0.36940903  1
  O  O332  1  0.49583497  0.50580569  0.88317384  1
  O  O333  1  0.49291688  0.99410338  0.38200709  1
  O  O334  1  0.50632378  0.98936529  0.88803354  1
  O  O335  1  0.99108121  0.49598967  0.37863882  1
  O  O336  1  0.99963740  0.48925593  0.88264636  1
  O  O337  1  0.98850870  0.99071090  0.37154740  1
  O  O338  1  0.99284914  0.99848521  0.89216454  1
  O  O339  1  -0.00242218  0.00969247  0.11647970  1
  O  O340  1  -0.00203474  0.01166120  0.61530628  1
  O  O341  1  -0.00245827  0.50792511  0.11574732  1
  O  O342  1  -0.00873494  0.50856017  0.61469141  1
  O  O343  1  0.50393113  0.00938319  0.12368124  1
  O  O344  1  0.50741670  0.00365112  0.61812396  1
  O  O345  1  0.48795952  0.51150151  0.12547936  1
  O  O346  1  0.49685672  0.51802006  0.62955457  1
  O  O347  1  0.24105577  0.38195481  0.24396595  1
  O  O348  1  0.23994790  0.38717203  0.73619887  1
  O  O349  1  0.24442628  0.87578984  0.24326805  1
  O  O350  1  0.23628422  0.85326961  0.73014312  1
  O  O351  1  0.73742771  0.38209300  0.24737699  1
  O  O352  1  0.74867456  0.37927661  0.73734171  1
  O  O353  1  0.74969106  0.87311619  0.24187915  1
  O  O354  1  0.74210133  0.88106203  0.75624842  1
  O  O355  1  0.24501378  0.12463281  0.26269315  1
  O  O356  1  0.23389154  0.11979619  0.76019901  1
  O  O357  1  0.25130784  0.61808382  0.25421479  1
  O  O358  1  0.25667853  0.62225967  0.75343838  1
  O  O359  1  0.75953207  0.12533695  0.25372451  1
  O  O360  1  0.75828276  0.11629290  0.75700757  1
  O  O361  1  0.74500865  0.61539307  0.25522308  1
  O  O362  1  0.75304562  0.61596100  0.75361271  1
  O  O363  1  0.36533392  0.11487943  0.38401024  1
  O  O364  1  0.35901810  0.11398703  0.92310095  1
  O  O365  1  0.36814104  0.61367273  0.37384244  1
  O  O366  1  0.36956868  0.63368483  0.86350672  1
  O  O367  1  0.87585047  0.12004258  0.36964244  1
  O  O368  1  0.87080765  0.11380376  0.86986890  1
  O  O369  1  0.86826855  0.61391704  0.37744459  1
  O  O370  1  0.86533020  0.62511447  0.85984002  1
  O  O371  1  0.13649207  0.36870792  0.13213263  1
  O  O372  1  0.13140100  0.37555154  0.63015451  1
  O  O373  1  0.13625927  0.87608172  0.13138643  1
  O  O374  1  0.13108872  0.88243161  0.61129518  1
  O  O375  1  0.62877711  0.37134000  0.13664463  1
  O  O376  1  0.63086928  0.37209170  0.63220716  1
  O  O377  1  0.63960346  0.87693707  0.12937882  1
  O  O378  1  0.62039383  0.88892703  0.63528209  1
  O  O379  1  0.12958268  0.26002050  0.26025049  1
  O  O380  1  0.12667694  0.26449774  0.75926591  1
  O  O381  1  0.12016489  0.76297319  0.25374518  1
  O  O382  1  0.11350832  0.74089364  0.76225831  1
  O  O383  1  0.61855305  0.26101331  0.25768433  1
  O  O384  1  0.62829533  0.26378923  0.74843928  1
  O  O385  1  0.61379762  0.75191254  0.24739873  1
  O  O386  1  0.62051050  0.75974672  0.74219667  1
  O  O387  1  0.38287312  0.25847535  0.24447700  1
  O  O388  1  0.34345241  0.23845452  0.75671303  1
  O  O389  1  0.38303852  0.74868690  0.23886620  1
  O  O390  1  0.38552306  0.74785199  0.74455419  1
  O  O391  1  0.87427671  0.24183810  0.25219716  1
  O  O392  1  0.88375010  0.24219782  0.74037752  1
  O  O393  1  0.88864290  0.75303146  0.25046685  1
  O  O394  1  0.88021941  0.74374323  0.74402177  1
  O  O395  1  0.37197389  0.49264587  0.48780907  1
  O  O396  1  0.37978323  0.48826721  0.99918708  1
  O  O397  1  0.37730646  0.98828146  0.49215619  1
  O  O398  1  0.39382548  0.98241544  1.01234519  1
  O  O399  1  0.88144300  0.49425708  0.49129839  1
  O  O400  1  0.88472792  0.50909452  0.99602550  1
  O  O401  1  0.87017203  0.98823276  0.49450856  1
  O  O402  1  0.88169495  0.99884693  0.99426730  1
  O  O403  1  0.11806111  0.01001805  0.00479788  1
  O  O404  1  0.12909943  0.01122790  0.50517662  1
  O  O405  1  0.11649352  0.50871834  -0.00291968  1
  O  O406  1  0.10858587  0.50145428  0.49375941  1
  O  O407  1  0.61777357  0.00111186  0.00598970  1
  O  O408  1  0.62173145  0.00474166  0.50866649  1
  O  O409  1  0.60056729  0.50158201  0.00135348  1
  O  O410  1  0.62562347  0.50785029  0.50344098  1
  O  O411  1  0.36242224  0.36655382  0.12411377  1
  O  O412  1  0.35596714  0.38301698  0.61263075  1
  O  O413  1  0.37292831  0.86671151  0.12113643  1
  O  O414  1  0.36764465  0.87056696  0.61506945  1
  O  O415  1  0.87464826  0.36007056  0.12207168  1
  O  O416  1  0.86794876  0.36892381  0.61839807  1
  O  O417  1  0.86121411  0.87779971  0.12634049  1
  O  O418  1  0.88327111  0.86636532  0.61562815  1
  O  O419  1  0.12785120  0.13106988  0.37726456  1
  O  O420  1  0.10962973  0.14534516  0.88814137  1
  O  O421  1  0.13431484  0.62494062  0.37582972  1
  O  O422  1  0.12763872  0.63083731  0.88709199  1
  O  O423  1  0.62250875  0.13486904  0.38585026  1
  O  O424  1  0.64002489  0.12522927  0.87214097  1
  O  O425  1  0.63639582  0.62535158  0.37491341  1
  O  O426  1  0.63770967  0.61422015  0.87212795  1
