# generated using pymatgen
data_V85Zn86O256
_symmetry_space_group_name_H-M   'P 1'
_cell_length_a   16.91833897
_cell_length_b   16.93963876
_cell_length_c   16.94258611
_cell_angle_alpha   89.98492922
_cell_angle_beta   89.97928630
_cell_angle_gamma   89.93620410
_symmetry_Int_Tables_number   1
_chemical_formula_structural   V85Zn86O256
_chemical_formula_sum   'V85 Zn86 O256'
_cell_volume   4855.58158978
_cell_formula_units_Z   1
loop_
 _symmetry_equiv_pos_site_id
 _symmetry_equiv_pos_as_xyz
  1  'x, y, z'
loop_
 _atom_site_type_symbol
 _atom_site_label
 _atom_site_symmetry_multiplicity
 _atom_site_fract_x
 _atom_site_fract_y
 _atom_site_fract_z
 _atom_site_occupancy
  V  V0  1  0.62547774  0.36803521  0.75790697  1
  V  V1  1  0.37326863  0.87623830  0.50228429  1
  V  V2  1  0.37939239  0.74736782  0.62556122  1
  V  V3  1  0.62564675  -0.00762160  0.12319599  1
  V  V4  1  0.49922435  -0.00226116  -0.00753338  1
  V  V5  1  0.62715065  0.62222650  -0.02030526  1
  V  V6  1  0.62733291  0.24653416  0.36630518  1
  V  V7  1  -0.00277907  0.37260866  0.37243772  1
  V  V8  1  0.74743811  0.24628716  0.50072077  1
  V  V9  1  0.37745353  0.87212122  -0.00021170  1
  V  V10  1  -0.00554419  0.12302992  0.62499183  1
  V  V11  1  0.00046539  -0.00158155  0.49018539  1
  V  V12  1  0.75522072  0.24637976  0.00483647  1
  V  V13  1  0.25123098  0.87435498  0.63450232  1
  V  V14  1  0.87792203  0.37193857  0.00526749  1
  V  V15  1  0.64044807  0.75058200  0.37809217  1
  V  V16  1  0.25407096  0.87802279  0.13259003  1
  V  V17  1  0.75304650  0.50289985  0.76352710  1
  V  V18  1  -0.00334092  0.87485850  0.87635532  1
  V  V19  1  0.24873255  0.24377263  -0.00379794  1
  V  V20  1  0.36101620  0.00478922  0.37159678  1
  V  V21  1  0.49016741  0.37394924  0.37319472  1
  V  V22  1  0.62590907  0.12192134  0.49684352  1
  V  V23  1  0.13582401  0.12976633  0.49831210  1
  V  V24  1  0.87473726  0.00524734  0.87217304  1
  V  V25  1  0.11622486  0.62729703  0.50145108  1
  V  V26  1  0.12383815  0.00033889  0.62535820  1
  V  V27  1  -0.00093808  0.74364364  0.74589689  1
  V  V28  1  0.87407677  0.37606277  0.49881107  1
  V  V29  1  0.73854323  0.75199227  -0.00975146  1
  V  V30  1  0.12827534  0.75018593  0.87585056  1
  V  V31  1  0.75104879  -0.00769315  0.24432246  1
  V  V32  1  0.87887903  0.87115259  0.49442613  1
  V  V33  1  0.62318242  0.13228089  -0.00269994  1
  V  V34  1  0.87320647  0.24720421  0.62713475  1
  V  V35  1  0.88383664  0.12530427  0.22915120  1
  V  V36  1  0.25351181  0.50220028  0.24915789  1
  V  V37  1  0.37409951  0.37345634  -0.00281957  1
  V  V38  1  0.75043639  0.37687794  0.12284330  1
  V  V39  1  0.12516344  0.87358538  0.75103628  1
  V  V40  1  0.11816161  0.12231027  0.00095056  1
  V  V41  1  0.24973823  0.62940809  0.37210257  1
  V  V42  1  0.50382771  0.25118697  0.24681795  1
  V  V43  1  0.11805946  0.50400268  0.62306534  1
  V  V44  1  0.49996117  0.24415648  0.75290081  1
  V  V45  1  0.63872798  0.63199856  0.50144641  1
  V  V46  1  0.86800727  0.87234706  0.00759774  1
  V  V47  1  0.87446353  0.62004041  0.76396303  1
  V  V48  1  0.36326157  0.00979210  0.87598936  1
  V  V49  1  0.62613931  0.50063142  0.62929505  1
  V  V50  1  0.74798753  0.13204427  0.86818311  1
  V  V51  1  0.12334926  0.87833695  0.25344161  1
  V  V52  1  0.62505561  -0.00331728  0.62420163  1
  V  V53  1  0.75416575  0.00205344  0.74776009  1
  V  V54  1  0.85179240  0.62260532  0.25352093  1
  V  V55  1  0.12109040  -0.00011771  0.12663355  1
  V  V56  1  0.12105290  0.62496588  0.00002264  1
  V  V57  1  0.68812722  0.43247037  0.29560139  1
  V  V58  1  0.25359876  0.74584378  0.01629956  1
  V  V59  1  0.75230504  0.86814647  0.62093486  1
  V  V60  1  0.62542521  0.50095853  0.12209431  1
  V  V61  1  0.49505085  0.50279868  0.50118632  1
  V  V62  1  -0.00873534  0.50418978  -0.00343853  1
  V  V63  1  0.12245200  0.50446960  0.12901453  1
  V  V64  1  -0.00353647  0.37833108  0.87351998  1
  V  V65  1  0.36965573  0.24988714  0.12665389  1
  V  V66  1  0.49930125  0.00011537  0.49825393  1
  V  V67  1  0.87558558  0.73869935  0.61993344  1
  V  V68  1  0.37973313  0.51122318  0.36948067  1
  V  V69  1  0.49801066  0.12325328  0.12732593  1
  V  V70  1  0.35217872  0.12513245  0.25175778  1
  V  V71  1  0.25583518  0.37371629  0.60683158  1
  V  V72  1  0.11824151  0.75638591  0.37464972  1
  V  V73  1  0.49979625  0.87219988  0.37046444  1
  V  V74  1  -0.00626584  0.24528582  0.75019187  1
  V  V75  1  0.12795241  0.37531653  0.74796640  1
  V  V76  1  0.14522167  0.25218669  0.37968530  1
  V  V77  1  0.12973349  0.24043044  0.86996820  1
  V  V78  1  0.37687380  0.62296219  0.75074249  1
  V  V79  1  -0.00294927  0.75433127  0.25222134  1
  V  V80  1  0.25010957  0.62188001  0.87503108  1
  V  V81  1  0.62055230  0.87050729  0.76178540  1
  V  V82  1  -0.00579558  0.62891477  0.12951812  1
  V  V83  1  0.75820067  0.12065834  0.37142517  1
  V  V84  1  0.74793352  0.37297378  0.62945850  1
  Zn  Zn85  1  0.85638697  0.75247508  0.12909776  1
  Zn  Zn86  1  0.48818358  0.74327218  0.24820147  1
  Zn  Zn87  1  0.88075164  -0.00513442  0.36909944  1
  Zn  Zn88  1  -0.00675287  0.50530907  0.49835948  1
  Zn  Zn89  1  0.49856889  0.49805287  -0.00075288  1
  Zn  Zn90  1  0.36769116  0.24581690  0.60966864  1
  Zn  Zn91  1  0.24819559  0.74971957  0.50145414  1
  Zn  Zn92  1  0.50222802  0.37035799  0.87756782  1
  Zn  Zn93  1  -0.00470080  0.00419156  0.00234916  1
  Zn  Zn94  1  -0.00311365  0.25099711  0.23890802  1
  Zn  Zn95  1  0.36278529  0.13162869  0.74851843  1
  Zn  Zn96  1  0.49673360  0.12371863  0.62741916  1
  Zn  Zn97  1  0.24684439  0.37638286  0.12439322  1
  Zn  Zn98  1  0.24946819  0.49886267  0.74700428  1
  Zn  Zn99  1  0.49153187  0.62689497  0.12983611  1
  Zn  Zn100  1  0.37491640  0.49382978  0.87240126  1
  Zn  Zn101  1  0.12043406  0.37702987  0.25038928  1
  Zn  Zn102  1  0.50232596  0.62795474  0.62628410  1
  Zn  Zn103  1  0.86380007  0.50301557  0.37256707  1
  Zn  Zn104  1  0.62683443  0.87166407  0.24570242  1
  Zn  Zn105  1  0.51738608  0.74060601  0.77830357  1
  Zn  Zn106  1  0.24263150  0.01153241  0.75562663  1
  Zn  Zn107  1  0.16168677  0.20018606  0.17647657  1
  Zn  Zn108  1  0.18801752  0.19005907  0.68160629  1
  Zn  Zn109  1  0.32712364  0.68495728  0.19302100  1
  Zn  Zn110  1  0.19062308  0.68688053  0.68688827  1
  Zn  Zn111  1  0.69038222  0.18256144  0.18387763  1
  Zn  Zn112  1  0.68046868  0.18602523  0.68638905  1
  Zn  Zn113  1  0.65983025  0.70530865  0.16853878  1
  Zn  Zn114  1  0.69172668  0.68773174  0.69060862  1
  Zn  Zn115  1  0.31339261  0.31807225  0.31069054  1
  Zn  Zn116  1  0.31255930  0.30856645  0.80910156  1
  Zn  Zn117  1  0.30749777  0.81926524  0.31780018  1
  Zn  Zn118  1  0.34895914  0.79360497  0.83643427  1
  Zn  Zn119  1  0.82243344  0.30181624  0.31267377  1
  Zn  Zn120  1  0.81385309  0.31443270  0.81694954  1
  Zn  Zn121  1  0.81205267  0.81050786  0.31373434  1
  Zn  Zn122  1  0.81077423  0.81256410  0.81104695  1
  Zn  Zn123  1  0.18450520  0.44249255  0.43491640  1
  Zn  Zn124  1  0.18406125  0.43460770  0.93819203  1
  Zn  Zn125  1  0.18638186  0.93620627  0.44279493  1
  Zn  Zn126  1  0.18956366  0.93449423  0.94164589  1
  Zn  Zn127  1  0.66588354  0.42414401  0.45963928  1
  Zn  Zn128  1  0.68969154  0.43686363  0.93829355  1
  Zn  Zn129  1  0.69125193  0.93482204  0.43667124  1
  Zn  Zn130  1  0.68923822  0.94124104  0.93812036  1
  Zn  Zn131  1  0.30683195  0.06305245  0.06469264  1
  Zn  Zn132  1  0.31355929  0.06124946  0.56842757  1
  Zn  Zn133  1  0.31178122  0.55879977  0.06017023  1
  Zn  Zn134  1  0.30799203  0.56028959  0.56008042  1
  Zn  Zn135  1  0.81047887  0.05831343  0.05935308  1
  Zn  Zn136  1  0.81475275  0.05880167  0.56113506  1
  Zn  Zn137  1  0.80699366  0.56735125  0.06206898  1
  Zn  Zn138  1  0.81228397  0.55980334  0.56667874  1
  Zn  Zn139  1  0.43942464  0.43765911  0.18509587  1
  Zn  Zn140  1  0.43846791  0.43440290  0.68804941  1
  Zn  Zn141  1  0.43496892  0.93761522  0.18990717  1
  Zn  Zn142  1  0.43843522  0.93821608  0.69269304  1
  Zn  Zn143  1  0.93190684  0.44226105  0.18996886  1
  Zn  Zn144  1  0.93807913  0.43819969  0.68626799  1
  Zn  Zn145  1  0.93919525  0.93873400  0.18687520  1
  Zn  Zn146  1  0.93654624  0.93446000  0.68562946  1
  Zn  Zn147  1  0.06970584  0.06772670  0.31305793  1
  Zn  Zn148  1  0.06102934  0.06271620  0.81105429  1
  Zn  Zn149  1  0.05851829  0.56428308  0.31451567  1
  Zn  Zn150  1  0.06025227  0.56238333  0.81124501  1
  Zn  Zn151  1  0.56025221  0.06162747  0.31054065  1
  Zn  Zn152  1  0.56428868  0.05977067  0.81428618  1
  Zn  Zn153  1  0.56194161  0.57653528  0.31298405  1
  Zn  Zn154  1  0.55500639  0.55264006  0.81224323  1
  Zn  Zn155  1  0.43044412  0.18571074  0.43408052  1
  Zn  Zn156  1  0.43932607  0.18959589  0.93517645  1
  Zn  Zn157  1  0.44225066  0.68900513  0.43941102  1
  Zn  Zn158  1  0.43901397  0.68329899  0.94653900  1
  Zn  Zn159  1  0.94128366  0.18848524  0.43712533  1
  Zn  Zn160  1  0.93649644  0.18829677  0.93707772  1
  Zn  Zn161  1  0.93234244  0.68617808  0.43179085  1
  Zn  Zn162  1  0.93211493  0.69284313  0.93797719  1
  Zn  Zn163  1  0.06248039  0.31449937  0.06223497  1
  Zn  Zn164  1  0.06256276  0.31358265  0.56146225  1
  Zn  Zn165  1  0.06219571  0.81237060  0.06464948  1
  Zn  Zn166  1  0.06021726  0.81210922  0.56291607  1
  Zn  Zn167  1  0.56400740  0.31318486  0.06427516  1
  Zn  Zn168  1  0.52774777  0.29610529  0.54321657  1
  Zn  Zn169  1  0.55958174  0.80820012  0.05708876  1
  Zn  Zn170  1  0.56170096  0.81383477  0.56454558  1
  O  O171  1  0.13461416  0.10679607  0.11383638  1
  O  O172  1  0.11222737  0.12295893  0.61673802  1
  O  O173  1  0.11185536  0.61472775  0.11558965  1
  O  O174  1  0.13106660  0.61751584  0.61468105  1
  O  O175  1  0.61861317  0.11715362  0.11564846  1
  O  O176  1  0.62392146  0.11364205  0.61450288  1
  O  O177  1  0.63443919  0.60457202  0.11658560  1
  O  O178  1  0.62521652  0.62092420  0.61962945  1
  O  O179  1  0.38717018  0.38640317  0.37488563  1
  O  O180  1  0.37284735  0.37282050  0.88350934  1
  O  O181  1  0.38225039  0.88399838  0.38321605  1
  O  O182  1  0.36481450  0.89252207  0.89510945  1
  O  O183  1  0.87734124  0.37667261  0.38214360  1
  O  O184  1  0.88905768  0.37091392  0.88621690  1
  O  O185  1  0.87206209  0.87493398  0.39003648  1
  O  O186  1  0.88047314  0.88393409  0.87840429  1
  O  O187  1  0.26199862  -0.00450423  0.37965332  1
  O  O188  1  0.25953938  0.00182351  0.87748220  1
  O  O189  1  0.25766146  0.50733252  0.36940303  1
  O  O190  1  0.24588083  0.51156701  0.87515610  1
  O  O191  1  0.75227582  0.00655251  0.36560907  1
  O  O192  1  0.75654195  0.00874153  0.86771935  1
  O  O193  1  0.73682466  0.48128699  0.36878895  1
  O  O194  1  0.75499783  0.49382145  0.86236182  1
  O  O195  1  0.24041623  0.50320107  0.13377371  1
  O  O196  1  0.23778506  0.49029323  0.62524383  1
  O  O197  1  0.23739094  0.98607160  0.11836362  1
  O  O198  1  0.24131634  0.99060575  0.62814406  1
  O  O199  1  0.74660177  0.48410600  0.11809806  1
  O  O200  1  0.74053611  0.49428519  0.63254690  1
  O  O201  1  0.73904351  1.00630436  0.13233071  1
  O  O202  1  0.74689975  0.99453879  0.63253909  1
  O  O203  1  -0.00157937  0.37356633  0.25662937  1
  O  O204  1  0.00679624  0.37032753  0.75585258  1
  O  O205  1  0.00273535  0.86188676  0.24510203  1
  O  O206  1  0.00208185  0.86765298  0.76042110  1
  O  O207  1  0.49550163  0.36051968  0.25623403  1
  O  O208  1  0.50945798  0.36559409  0.75028431  1
  O  O209  1  0.50582437  0.87876641  0.26184901  1
  O  O210  1  0.51879324  0.87436239  0.74557668  1
  O  O211  1  0.49416147  0.13532912  0.24521274  1
  O  O212  1  0.50185738  0.13420260  0.75195911  1
  O  O213  1  0.49071760  0.62704068  0.24740129  1
  O  O214  1  0.49256829  0.62749260  0.74704914  1
  O  O215  1  0.98426016  0.12089311  0.25429631  1
  O  O216  1  1.00286410  0.13465597  0.73996760  1
  O  O217  1  0.99656369  0.63578415  0.24331569  1
  O  O218  1  0.98842042  0.63130560  0.75084280  1
  O  O219  1  0.36654434  0.25301810  0.00418046  1
  O  O220  1  0.41958299  0.26458308  0.50914535  1
  O  O221  1  0.36456900  0.76071716  0.00111862  1
  O  O222  1  0.37285203  0.75724903  0.50740675  1
  O  O223  1  0.86824488  0.25749103  -0.00034209  1
  O  O224  1  0.86670499  0.25569415  0.50521068  1
  O  O225  1  0.86531255  0.75694718  0.00421544  1
  O  O226  1  0.88590284  0.75723746  0.50951031  1
  O  O227  1  0.11792652  0.24257988  0.48936778  1
  O  O228  1  0.13046765  0.24474818  0.98753859  1
  O  O229  1  0.12435035  0.74589230  0.49330631  1
  O  O230  1  0.13166480  0.74505692  0.99508747  1
  O  O231  1  0.62805537  0.24247384  0.48909129  1
  O  O232  1  0.63215591  0.23790425  1.00264762  1
  O  O233  1  0.62030493  0.73863319  0.49753988  1
  O  O234  1  0.63047690  0.73999551  0.98925284  1
  O  O235  1  0.49298042  0.24446533  0.13094691  1
  O  O236  1  0.50924763  0.24426110  0.64339988  1
  O  O237  1  0.54305471  0.73746050  0.14177077  1
  O  O238  1  0.48591305  0.75086972  0.62652340  1
  O  O239  1  1.05339997  0.24025305  0.14147964  1
  O  O240  1  0.99461717  0.24410237  0.63109736  1
  O  O241  1  0.99819915  0.73905923  0.13037519  1
  O  O242  1  0.99245518  0.75604417  0.63998846  1
  O  O243  1  -0.00129623  0.26309534  0.37101972  1
  O  O244  1  0.00537207  0.25510708  0.86645157  1
  O  O245  1  0.00910999  0.74628027  0.36637321  1
  O  O246  1  0.00368876  0.75615072  0.86575910  1
  O  O247  1  0.50796954  0.25820075  0.36607803  1
  O  O248  1  0.50048987  0.25172032  0.86021684  1
  O  O249  1  0.50749063  0.76143816  0.37669431  1
  O  O250  1  0.45794459  0.76169844  0.86940130  1
  O  O251  1  0.23475664  0.12103340  0.50801731  1
  O  O252  1  0.23939782  0.13709921  1.00106112  1
  O  O253  1  0.23895653  0.62506063  0.48782675  1
  O  O254  1  0.24112104  0.62980717  0.99435149  1
  O  O255  1  0.74611514  0.12616489  0.49141999  1
  O  O256  1  0.74468083  0.13080154  0.99451490  1
  O  O257  1  0.73737093  0.62353879  0.50466778  1
  O  O258  1  0.73574982  0.63264698  0.99563469  1
  O  O259  1  0.25362640  0.36334426  0.00048609  1
  O  O260  1  0.24964894  0.38197899  0.50856437  1
  O  O261  1  0.25345834  0.86426451  0.01027894  1
  O  O262  1  0.25635745  0.87443286  0.51394610  1
  O  O263  1  0.75850320  0.36641886  0.00273502  1
  O  O264  1  0.75502686  0.36616286  0.50736879  1
  O  O265  1  0.75550138  0.86599820  -0.00646893  1
  O  O266  1  0.76159780  0.88351663  0.51425782  1
  O  O267  1  0.13127590  0.50347120  0.24423180  1
  O  O268  1  0.12320516  0.49248386  0.74184847  1
  O  O269  1  0.11596453  0.98786764  0.24370358  1
  O  O270  1  0.12213118  0.99043619  0.74409728  1
  O  O271  1  0.62787543  0.49899174  0.24474790  1
  O  O272  1  0.63276991  0.49583194  0.74427824  1
  O  O273  1  0.63292647  1.00127142  0.24061451  1
  O  O274  1  0.63419122  0.99122733  0.74429330  1
  O  O275  1  0.37661613  0.01204967  0.25970457  1
  O  O276  1  0.37508259  -0.00157306  0.76852864  1
  O  O277  1  0.36766340  0.49529668  0.25941553  1
  O  O278  1  0.37180821  0.51049630  0.74800640  1
  O  O279  1  0.86954632  0.00724002  0.24959719  1
  O  O280  1  0.86260188  -0.00598199  0.75577006  1
  O  O281  1  0.86917602  0.51679424  0.25196084  1
  O  O282  1  0.87002083  0.51286237  0.74230485  1
  O  O283  1  0.11642411  0.36627955  0.38005691  1
  O  O284  1  0.11485221  0.36624922  0.86776494  1
  O  O285  1  0.13002208  0.86721249  0.36888719  1
  O  O286  1  0.11810407  0.86943057  0.87165694  1
  O  O287  1  0.62585910  0.37151736  0.35641618  1
  O  O288  1  0.62784305  0.37741904  0.86119509  1
  O  O289  1  0.61803914  0.86475564  0.38061101  1
  O  O290  1  0.62920682  0.88137512  0.86008047  1
  O  O291  1  0.37765968  0.13013793  0.13187773  1
  O  O292  1  0.37944055  0.12885341  0.62894032  1
  O  O293  1  0.37716950  0.63191897  0.10940439  1
  O  O294  1  0.37388765  0.63065802  0.62932710  1
  O  O295  1  0.87930080  0.11835616  0.13028795  1
  O  O296  1  0.88628200  0.13004422  0.61956520  1
  O  O297  1  0.87834876  0.62759986  0.13493668  1
  O  O298  1  0.87376722  0.63571162  0.62915863  1
  O  O299  1  0.25165846  0.25423085  0.11519954  1
  O  O300  1  0.24852472  0.26832555  0.62135335  1
  O  O301  1  0.24672941  0.75563666  0.11823193  1
  O  O302  1  0.25853213  0.75733065  0.62257736  1
  O  O303  1  0.74528006  0.25833359  0.11249384  1
  O  O304  1  0.75393650  0.25159909  0.62145632  1
  O  O305  1  0.74396144  0.74993839  0.10199508  1
  O  O306  1  0.76145676  0.75847937  0.62911368  1
  O  O307  1  0.24390161  0.26022292  0.38385784  1
  O  O308  1  0.23839173  0.25394413  0.88024336  1
  O  O309  1  0.23958937  0.74402631  0.37800902  1
  O  O310  1  0.24859777  0.73751446  0.88400015  1
  O  O311  1  0.74572560  0.24082088  0.37798918  1
  O  O312  1  0.75709276  0.23765999  0.88387013  1
  O  O313  1  0.73861364  0.75907365  0.38774332  1
  O  O314  1  0.76018224  0.74942509  0.89030803  1
  O  O315  1  0.01315220  0.12498305  -0.00429467  1
  O  O316  1  0.00475677  0.11720520  0.50657513  1
  O  O317  1  -0.00157403  0.62074697  0.00518680  1
  O  O318  1  0.01169774  0.62463582  0.49267742  1
  O  O319  1  0.50668896  0.12081799  0.00519910  1
  O  O320  1  0.50726315  0.10992904  0.49443185  1
  O  O321  1  0.51692325  0.62276224  0.00398396  1
  O  O322  1  0.50964134  0.61659195  0.50418394  1
  O  O323  1  0.53168847  0.39346552  0.47958439  1
  O  O324  1  0.48812024  0.36867247  0.99844315  1
  O  O325  1  0.49456626  0.88397833  0.49470535  1
  O  O326  1  0.48961295  0.88503655  1.00819241  1
  O  O327  1  0.98448969  0.37330329  0.49564780  1
  O  O328  1  0.99573664  0.38074553  0.99490298  1
  O  O329  1  0.99176958  0.88689977  0.50836682  1
  O  O330  1  0.99173989  0.87037043  0.98692458  1
  O  O331  1  0.49482018  0.49787494  0.37802651  1
  O  O332  1  0.49316118  0.48938153  0.88121254  1
  O  O333  1  0.49668694  0.99105539  0.38163995  1
  O  O334  1  0.49190353  1.00306906  0.88848519  1
  O  O335  1  0.99749845  0.48663942  0.37759377  1
  O  O336  1  1.00579261  0.49024124  0.88424191  1
  O  O337  1  1.00178495  1.00420029  0.38710351  1
  O  O338  1  0.99142606  0.99258539  0.87512069  1
  O  O339  1  0.01496014  -0.01044316  0.11727914  1
  O  O340  1  0.00377790  0.00718150  0.62106275  1
  O  O341  1  0.00167040  0.51120796  0.12073491  1
  O  O342  1  0.01331850  0.49334689  0.61877895  1
  O  O343  1  0.50457744  0.00730942  0.11765339  1
  O  O344  1  0.50554526  -0.00098735  0.61634847  1
  O  O345  1  0.51065773  0.49800579  0.11913003  1
  O  O346  1  0.51108860  0.49851588  0.61901437  1
  O  O347  1  0.24523458  0.39014685  0.24910278  1
  O  O348  1  0.23554806  0.37646584  0.74969324  1
  O  O349  1  0.23756940  0.87397843  0.24071437  1
  O  O350  1  0.24442206  0.87662325  0.74090641  1
  O  O351  1  0.75456773  0.37090826  0.24227620  1
  O  O352  1  0.74670793  0.37926011  0.74677823  1
  O  O353  1  0.74980086  0.88810110  0.25296237  1
  O  O354  1  0.74421769  0.88137409  0.74089192  1
  O  O355  1  0.25471491  0.13508926  0.24134701  1
  O  O356  1  0.24808720  0.12478619  0.74746953  1
  O  O357  1  0.25446127  0.61646174  0.26341103  1
  O  O358  1  0.25401813  0.62113810  0.75909509  1
  O  O359  1  0.76239621  0.11682623  0.25354522  1
  O  O360  1  0.74349785  0.11611275  0.75744984  1
  O  O361  1  0.75591963  0.63452278  0.24272951  1
  O  O362  1  0.76426516  0.61732881  0.74791663  1
  O  O363  1  0.37520741  0.11723809  0.36467794  1
  O  O364  1  0.37587670  0.11243391  0.87584499  1
  O  O365  1  0.36744739  0.61723202  0.38377710  1
  O  O366  1  0.36556040  0.61852465  0.86877222  1
  O  O367  1  0.86478085  0.12219168  0.37563474  1
  O  O368  1  0.86785648  0.11199808  0.87917220  1
  O  O369  1  0.86891162  0.62350103  0.36033743  1
  O  O370  1  0.87898409  0.62291392  0.86245854  1
  O  O371  1  0.12489052  0.39518827  0.12429619  1
  O  O372  1  0.13110201  0.38016429  0.63047479  1
  O  O373  1  0.13186748  0.87789260  0.13244596  1
  O  O374  1  0.13132106  0.87766689  0.63091072  1
  O  O375  1  0.63589057  0.38525105  0.11992684  1
  O  O376  1  0.63320174  0.38523448  0.63480904  1
  O  O377  1  0.62088793  0.88982078  0.12345305  1
  O  O378  1  0.63505381  0.87935532  0.62783677  1
  O  O379  1  0.13092825  0.25756219  0.27411842  1
  O  O380  1  0.11413722  0.25736270  0.75303749  1
  O  O381  1  0.11417769  0.76365620  0.25945289  1
  O  O382  1  0.11774619  0.75269959  0.75492681  1
  O  O383  1  0.61638638  0.24065014  0.25278729  1
  O  O384  1  0.61811733  0.25782968  0.75059578  1
  O  O385  1  0.63310066  0.75430295  0.27230306  1
  O  O386  1  0.62769456  0.76339597  0.74972296  1
  O  O387  1  0.37948072  0.24408777  0.24647750  1
  O  O388  1  0.38868435  0.25056716  0.74475800  1
  O  O389  1  0.37605565  0.76800368  0.24757466  1
  O  O390  1  0.36522435  0.73294239  0.73882162  1
  O  O391  1  0.87748217  0.23082890  0.24367201  1
  O  O392  1  0.88640413  0.25646721  0.74513230  1
  O  O393  1  0.87871458  0.74328373  0.24753761  1
  O  O394  1  0.88005454  0.73879144  0.74593555  1
  O  O395  1  0.38954190  0.50354636  0.49395494  1
  O  O396  1  0.37063302  0.48185111  0.99870963  1
  O  O397  1  0.38251248  0.99687651  0.49450828  1
  O  O398  1  0.37997836  0.99993828  0.99378170  1
  O  O399  1  0.87184200  0.49113674  0.49550176  1
  O  O400  1  0.88588931  0.49452386  1.00405939  1
  O  O401  1  0.88472274  0.99162591  0.49824622  1
  O  O402  1  0.87416679  0.99090831  0.99004693  1
  O  O403  1  0.12229790  0.00665932  0.00304657  1
  O  O404  1  0.11738045  0.00617484  0.50639297  1
  O  O405  1  0.11236475  0.50491844  0.00518366  1
  O  O406  1  0.12110040  0.50972855  0.50519301  1
  O  O407  1  0.61796514  0.00742752  0.00455082  1
  O  O408  1  0.61880751  0.00064982  0.50359326  1
  O  O409  1  0.62638789  0.50836703  0.00162908  1
  O  O410  1  0.62090953  0.51571781  0.51059103  1
  O  O411  1  0.37105797  0.36611931  0.11768456  1
  O  O412  1  0.35702850  0.37883497  0.62865846  1
  O  O413  1  0.36334862  0.88654505  0.11469854  1
  O  O414  1  0.36884673  0.86954582  0.62499923  1
  O  O415  1  0.87061417  0.37725955  0.11319281  1
  O  O416  1  0.86879393  0.36950403  0.61797804  1
  O  O417  1  0.87792033  0.87515619  0.11033618  1
  O  O418  1  0.86952405  0.86500192  0.61989579  1
  O  O419  1  0.12411063  0.14165418  0.38357680  1
  O  O420  1  0.12025789  0.13500990  0.87925048  1
  O  O421  1  0.13112713  0.63395504  0.37914772  1
  O  O422  1  0.12870670  0.63128524  0.87938483  1
  O  O423  1  0.63681711  0.12560511  0.37687033  1
  O  O424  1  0.63676655  0.11684803  0.88554557  1
  O  O425  1  0.62524356  0.63864245  0.38963208  1
  O  O426  1  0.62229479  0.61919991  0.88113397  1
