# generated using pymatgen
data_V85Zn86O256
_symmetry_space_group_name_H-M   'P 1'
_cell_length_a   16.92493930
_cell_length_b   16.92174292
_cell_length_c   16.91744311
_cell_angle_alpha   89.98879214
_cell_angle_beta   90.01900532
_cell_angle_gamma   90.03438524
_symmetry_Int_Tables_number   1
_chemical_formula_structural   V85Zn86O256
_chemical_formula_sum   'V85 Zn86 O256'
_cell_volume   4845.14553789
_cell_formula_units_Z   1
loop_
 _symmetry_equiv_pos_site_id
 _symmetry_equiv_pos_as_xyz
  1  'x, y, z'
loop_
 _atom_site_type_symbol
 _atom_site_label
 _atom_site_symmetry_multiplicity
 _atom_site_fract_x
 _atom_site_fract_y
 _atom_site_fract_z
 _atom_site_occupancy
  V  V0  1  0.37699067  0.87141841  0.49461614  1
  V  V1  1  0.37682521  0.49886133  0.87853393  1
  V  V2  1  0.88814421  0.23377121  0.13998247  1
  V  V3  1  0.50113241  0.24771711  0.74508702  1
  V  V4  1  0.37954162  0.12305676  0.74703622  1
  V  V5  1  0.12510307  0.87055069  0.24638434  1
  V  V6  1  0.87186881  0.12533934  0.74353144  1
  V  V7  1  0.49980331  0.50178584  0.49916956  1
  V  V8  1  0.25215822  -0.00049069  0.24985137  1
  V  V9  1  0.74535348  0.50048462  0.25003437  1
  V  V10  1  0.12216803  0.49991116  0.12587460  1
  V  V11  1  0.49567663  0.25198033  0.24540208  1
  V  V12  1  0.74942821  0.87629286  0.12115371  1
  V  V13  1  0.87447608  0.62778560  0.24614236  1
  V  V14  1  0.87630079  0.86751827  0.00327551  1
  V  V15  1  0.51447424  0.50218081  0.00574120  1
  V  V16  1  0.87731148  0.00511410  0.37481935  1
  V  V17  1  0.37260328  0.37371207  0.49953419  1
  V  V18  1  0.12392262  0.51301834  0.62307998  1
  V  V19  1  0.00320353  0.51491506  0.50182597  1
  V  V20  1  0.74900858  0.63278060  0.37839528  1
  V  V21  1  0.74218919  0.86752699  0.62023981  1
  V  V22  1  0.87676296  0.49703251  0.87526220  1
  V  V23  1  0.37550884  0.24512366  0.61848348  1
  V  V24  1  0.25307716  0.13091268  0.38258384  1
  V  V25  1  0.63848817  0.74177497  0.87585852  1
  V  V26  1  0.87975441  0.62789880  0.74783131  1
  V  V27  1  0.50126973  0.37359747  0.87671696  1
  V  V28  1  0.12715953  0.36905473  0.75059265  1
  V  V29  1  0.24595594  0.75215909  -0.00021902  1
  V  V30  1  0.37355834  0.75365993  0.12004140  1
  V  V31  1  0.11881013  0.11500670  0.50113924  1
  V  V32  1  0.74431040  -0.00985235  0.74900712  1
  V  V33  1  0.74617254  0.12259847  0.87375706  1
  V  V34  1  0.00212687  0.24590970  0.74698485  1
  V  V35  1  0.75030102  0.50287418  0.75179600  1
  V  V36  1  0.87843352  0.36749776  0.00270523  1
  V  V37  1  0.24610520  0.87645726  0.62820632  1
  V  V38  1  0.86906974  0.87250499  0.49796268  1
  V  V39  1  -0.00473820  0.75097220  0.24292848  1
  V  V40  1  0.75694367  0.37489416  0.61723212  1
  V  V41  1  0.12382879  0.74492997  0.38291739  1
  V  V42  1  0.75021921  0.37017311  0.12959638  1
  V  V43  1  0.87454424  0.49756564  0.38198165  1
  V  V44  1  0.25005082  0.36621291  0.13008163  1
  V  V45  1  0.62324451  0.37738446  0.25059036  1
  V  V46  1  0.50564205  0.12585929  0.12206326  1
  V  V47  1  0.37677801  0.36943910  0.00704133  1
  V  V48  1  0.75189308  0.12636661  0.37519713  1
  V  V49  1  0.38384006  0.62901961  0.75187551  1
  V  V50  1  0.50176501  -0.01291880  0.00586444  1
  V  V51  1  0.11771114  0.37131261  0.25373169  1
  V  V52  1  0.62526351  0.50287873  0.62520444  1
  V  V53  1  0.00034685  0.87906875  0.37880933  1
  V  V54  1  0.25094251  0.12907164  0.87076882  1
  V  V55  1  0.62396288  0.76097487  0.37661557  1
  V  V56  1  0.00659157  0.86955722  0.86179304  1
  V  V57  1  0.24855052  0.88025679  0.11860466  1
  V  V58  1  0.50515480  0.86761636  0.85558660  1
  V  V59  1  0.62618993  0.63492340  0.50236911  1
  V  V60  1  0.51267802  0.62380342  0.12327338  1
  V  V61  1  0.62054942  0.88483912  0.24461449  1
  V  V62  1  0.38045624  -0.00208274  0.37164248  1
  V  V63  1  -0.00589843  0.36988458  0.38375544  1
  V  V64  1  0.49949801  0.00091109  0.49858619  1
  V  V65  1  0.00444270  0.36657404  0.87532588  1
  V  V66  1  0.37002253  0.13176629  0.24026128  1
  V  V67  1  0.37418633  0.62327216  0.24896633  1
  V  V68  1  0.24751885  0.62257958  0.87777141  1
  V  V69  1  0.87607450  0.74716987  0.62322439  1
  V  V70  1  0.62190311  0.12769409  0.50306081  1
  V  V71  1  0.61800251  -0.00018866  0.62810018  1
  V  V72  1  0.12594204  0.25323003  0.38530105  1
  V  V73  1  0.24736983  0.37007739  0.62125998  1
  V  V74  1  0.49797657  0.75705578  0.25348832  1
  V  V75  1  0.75065453  0.24467261  0.00234537  1
  V  V76  1  0.75015741  0.00567105  0.24561556  1
  V  V77  1  0.10497734  0.03052158  0.14642551  1
  V  V78  1  0.24705874  0.25098847  -0.00314388  1
  V  V79  1  0.12247883  0.12844637  -0.00911880  1
  V  V80  1  0.24808957  0.62320495  0.38139227  1
  V  V81  1  0.87401042  -0.00265881  0.87458526  1
  V  V82  1  0.37531245  -0.00666474  0.88038348  1
  V  V83  1  0.62571535  0.37449871  0.75032205  1
  V  V84  1  0.00150208  0.00180692  0.00016554  1
  Zn  Zn85  1  0.50442366  0.63262906  0.63134774  1
  Zn  Zn86  1  0.24973666  0.49863919  0.25158118  1
  Zn  Zn87  1  0.25150603  0.49621291  0.75040352  1
  Zn  Zn88  1  0.87984488  0.25529838  0.61573423  1
  Zn  Zn89  1  0.49895608  0.37380933  0.37489591  1
  Zn  Zn90  1  0.11301253  -0.00926725  0.63258319  1
  Zn  Zn91  1  0.62353098  0.24753175  0.87717016  1
  Zn  Zn92  1  0.12645400  0.75343507  0.85945173  1
  Zn  Zn93  1  0.75376879  0.25272411  0.49611257  1
  Zn  Zn94  1  0.24617526  -0.00691571  0.75343332  1
  Zn  Zn95  1  0.37398774  0.49838858  0.37427347  1
  Zn  Zn96  1  -0.00254297  0.62787521  0.12060624  1
  Zn  Zn97  1  0.04396339  0.69467428  0.69407934  1
  Zn  Zn98  1  -0.00540043  0.11835864  0.61630614  1
  Zn  Zn99  1  0.75292777  0.62645399  0.89614667  1
  Zn  Zn100  1  0.80763829  0.70684797  0.06303011  1
  Zn  Zn101  1  0.00174678  0.49920820  0.00142150  1
  Zn  Zn102  1  0.62353437  0.25056943  0.37592453  1
  Zn  Zn103  1  0.62565905  0.11838841  0.00417418  1
  Zn  Zn104  1  0.12085014  0.62471293  0.00023731  1
  Zn  Zn105  1  0.25011351  0.74786720  0.50137952  1
  Zn  Zn106  1  0.38383016  0.75975832  0.63376940  1
  Zn  Zn107  1  0.17075482  0.18605346  0.19328422  1
  Zn  Zn108  1  0.18913271  0.18577759  0.68538610  1
  Zn  Zn109  1  0.18720643  0.68589560  0.18982556  1
  Zn  Zn110  1  0.21034718  0.69073606  0.69073004  1
  Zn  Zn111  1  0.68611172  0.18902127  0.18891802  1
  Zn  Zn112  1  0.68606783  0.18655651  0.68526045  1
  Zn  Zn113  1  0.68563965  0.69260329  0.19371631  1
  Zn  Zn114  1  0.68442443  0.69242107  0.69760212  1
  Zn  Zn115  1  0.31118778  0.31190171  0.31403549  1
  Zn  Zn116  1  0.31449779  0.31128222  0.81178205  1
  Zn  Zn117  1  0.31105670  0.81118772  0.31170248  1
  Zn  Zn118  1  0.31420937  0.81227528  0.81560591  1
  Zn  Zn119  1  0.81619113  0.30926249  0.31406039  1
  Zn  Zn120  1  0.81342738  0.31065646  0.80989958  1
  Zn  Zn121  1  0.81012515  0.81534125  0.30840791  1
  Zn  Zn122  1  0.81533044  0.81143321  0.81188930  1
  Zn  Zn123  1  0.18701552  0.44122510  0.44101172  1
  Zn  Zn124  1  0.18643428  0.43601054  0.93919643  1
  Zn  Zn125  1  0.19207124  0.93671405  0.43648034  1
  Zn  Zn126  1  0.18366531  0.94128409  0.93745366  1
  Zn  Zn127  1  0.68388542  0.44187218  0.43518238  1
  Zn  Zn128  1  0.69075112  0.43331766  0.93817302  1
  Zn  Zn129  1  0.68810887  0.94041380  0.43787957  1
  Zn  Zn130  1  0.68158619  0.93118826  0.93883856  1
  Zn  Zn131  1  0.31207547  0.06262389  0.06084313  1
  Zn  Zn132  1  0.31039550  0.06024232  0.56153436  1
  Zn  Zn133  1  0.31246663  0.55929822  0.06424617  1
  Zn  Zn134  1  0.31187289  0.55952642  0.56518525  1
  Zn  Zn135  1  0.81505870  0.05956126  0.06420507  1
  Zn  Zn136  1  0.80997405  0.05791754  0.55937563  1
  Zn  Zn137  1  0.81352604  0.54522187  0.06487387  1
  Zn  Zn138  1  0.81173684  0.56419518  0.56121148  1
  Zn  Zn139  1  0.43702637  0.44014036  0.18527594  1
  Zn  Zn140  1  0.43838723  0.43917663  0.68696442  1
  Zn  Zn141  1  0.43525884  0.93786538  0.18366659  1
  Zn  Zn142  1  0.43309124  0.94209640  0.68373581  1
  Zn  Zn143  1  0.93634262  0.43390492  0.19294076  1
  Zn  Zn144  1  0.94143556  0.44065188  0.68632957  1
  Zn  Zn145  1  0.93301106  0.93918743  0.18932368  1
  Zn  Zn146  1  0.93430153  0.94055105  0.68206411  1
  Zn  Zn147  1  0.06323117  0.06411941  0.31744475  1
  Zn  Zn148  1  0.06239862  0.05802774  0.80960013  1
  Zn  Zn149  1  0.06157228  0.56059741  0.31187186  1
  Zn  Zn150  1  0.06530900  0.55468379  0.81377822  1
  Zn  Zn151  1  0.56164091  0.06700678  0.31287847  1
  Zn  Zn152  1  0.56035850  0.05941701  0.81522547  1
  Zn  Zn153  1  0.56150209  0.56515998  0.31353493  1
  Zn  Zn154  1  0.56644302  0.56540670  0.82034027  1
  Zn  Zn155  1  0.43999315  0.18651254  0.43374185  1
  Zn  Zn156  1  0.43516461  0.18703314  0.93775620  1
  Zn  Zn157  1  0.44052526  0.68599641  0.43567743  1
  Zn  Zn158  1  0.43981890  0.68979485  0.94148190  1
  Zn  Zn159  1  0.93534282  0.19146563  0.43713935  1
  Zn  Zn160  1  0.93519912  0.18548170  0.93579374  1
  Zn  Zn161  1  0.93485325  0.69255098  0.43519492  1
  Zn  Zn162  1  0.94322760  0.68454286  0.93162517  1
  Zn  Zn163  1  0.06454032  0.30895215  0.06346971  1
  Zn  Zn164  1  0.06067261  0.31252857  0.56080108  1
  Zn  Zn165  1  0.06363265  0.81578485  0.05960333  1
  Zn  Zn166  1  0.06003463  0.81668204  0.55837163  1
  Zn  Zn167  1  0.56534803  0.31058630  0.06619105  1
  Zn  Zn168  1  0.56346009  0.31331642  0.56382588  1
  Zn  Zn169  1  0.56609509  0.80982811  0.06257559  1
  Zn  Zn170  1  0.55630205  0.81561959  0.56489550  1
  O  O171  1  0.15073453  0.12089882  0.09714833  1
  O  O172  1  0.12926867  0.12826960  0.60620418  1
  O  O173  1  0.12379745  0.61351448  0.12661153  1
  O  O174  1  0.13080719  0.61400413  0.63594862  1
  O  O175  1  0.60995431  0.12581423  0.12633483  1
  O  O176  1  0.63167012  0.11571299  0.61141521  1
  O  O177  1  0.61164518  0.63242857  0.13146571  1
  O  O178  1  0.62928008  0.62193148  0.61820834  1
  O  O179  1  0.37694084  0.37605629  0.38529408  1
  O  O180  1  0.38124146  0.38097690  0.88241822  1
  O  O181  1  0.36745772  0.88793719  0.37842005  1
  O  O182  1  0.38235242  0.88750431  0.87130252  1
  O  O183  1  0.88165393  0.38513294  0.37099283  1
  O  O184  1  0.88103448  0.37790646  0.87939448  1
  O  O185  1  0.87999306  0.87900027  0.37890193  1
  O  O186  1  0.88173113  0.88034193  0.88272571  1
  O  O187  1  0.25887565  0.00835666  0.36811617  1
  O  O188  1  0.25916856  0.00719995  0.87730803  1
  O  O189  1  0.25204218  0.50856573  0.37293546  1
  O  O190  1  0.25922647  0.50524585  0.87801030  1
  O  O191  1  0.75489550  0.00874674  0.36824457  1
  O  O192  1  0.75087968  0.00338883  0.86796034  1
  O  O193  1  0.75557134  0.50778279  0.36828969  1
  O  O194  1  0.76209487  0.49584236  0.86929189  1
  O  O195  1  0.23858283  0.48843729  0.12553865  1
  O  O196  1  0.24228422  0.48821551  0.62702323  1
  O  O197  1  0.24337563  0.99502671  0.13127198  1
  O  O198  1  0.24967563  0.98503812  0.62399259  1
  O  O199  1  0.75599939  0.48547493  0.14269403  1
  O  O200  1  0.74593128  0.49245656  0.63173414  1
  O  O201  1  0.75257714  0.99248165  0.13535262  1
  O  O202  1  0.74092191  0.99109055  0.63084262  1
  O  O203  1  0.00830372  0.38218093  0.26724542  1
  O  O204  1  0.00582874  0.36589321  0.75360456  1
  O  O205  1  0.00522262  0.86992100  0.25671714  1
  O  O206  1  -0.00940235  0.87920416  0.76419675  1
  O  O207  1  0.50639172  0.37044518  0.24731477  1
  O  O208  1  0.50569620  0.36899432  0.75491320  1
  O  O209  1  0.50607235  0.86810530  0.24303546  1
  O  O210  1  0.49673513  0.87913340  0.75736535  1
  O  O211  1  0.49163024  0.13149083  0.24283456  1
  O  O212  1  0.48834211  0.13221203  0.75570267  1
  O  O213  1  0.49285358  0.63286335  0.24416726  1
  O  O214  1  0.48721142  0.61507272  0.75291512  1
  O  O215  1  1.07171203  0.10996785  0.21436704  1
  O  O216  1  0.98844566  0.13254159  0.75397811  1
  O  O217  1  0.99046691  0.63259707  0.25020157  1
  O  O218  1  0.98528421  0.61392257  0.75165842  1
  O  O219  1  0.36584534  0.26192334  -0.00243868  1
  O  O220  1  0.38470384  0.25593439  0.51137311  1
  O  O221  1  0.36341400  0.74621169  0.01311721  1
  O  O222  1  0.37838195  0.76603151  0.48937287  1
  O  O223  1  0.86494066  0.25035494  0.00499952  1
  O  O224  1  0.86744055  0.24861226  0.50383505  1
  O  O225  1  0.88410590  0.76337426  -0.00174535  1
  O  O226  1  0.87287887  0.76241001  0.50392723  1
  O  O227  1  0.12537609  0.24337798  0.49017984  1
  O  O228  1  0.13769526  0.24522127  0.99816839  1
  O  O229  1  0.12470155  0.75116010  0.48623446  1
  O  O230  1  0.13701841  0.74715558  0.99940407  1
  O  O231  1  0.62783176  0.24226710  0.49867628  1
  O  O232  1  0.63908827  0.24665803  1.00033683  1
  O  O233  1  0.61856445  0.74189952  0.49145607  1
  O  O234  1  0.61392407  0.75658545  0.97612447  1
  O  O235  1  0.50005433  0.24303889  0.13541756  1
  O  O236  1  0.49246778  0.25477826  0.63747146  1
  O  O237  1  0.49092495  0.74556653  0.13126348  1
  O  O238  1  0.49347930  0.74465841  0.62105115  1
  O  O239  1  0.98651648  0.25187595  0.12273461  1
  O  O240  1  0.99850407  0.24367924  0.63413063  1
  O  O241  1  1.00706144  0.75089598  0.13922225  1
  O  O242  1  0.98361310  0.75483511  0.61866156  1
  O  O243  1  0.00922156  0.25951183  0.37694786  1
  O  O244  1  -0.00697810  0.25915403  0.86352102  1
  O  O245  1  0.00634680  0.75709076  0.36475128  1
  O  O246  1  0.00422836  0.76499313  0.87570049  1
  O  O247  1  0.50193225  0.25156533  0.36030027  1
  O  O248  1  0.49898436  0.25588008  0.86503658  1
  O  O249  1  0.50822890  0.74670750  0.36124248  1
  O  O250  1  0.49073811  0.76765120  0.87564133  1
  O  O251  1  0.24422013  0.12217706  0.48724105  1
  O  O252  1  0.25233293  0.13329871  0.98687732  1
  O  O253  1  0.26132179  0.62815903  0.48615590  1
  O  O254  1  0.25124994  0.63147364  0.99223694  1
  O  O255  1  0.74075516  0.12292987  0.49102232  1
  O  O256  1  0.74871553  0.12737711  0.99291858  1
  O  O257  1  0.73964466  0.62147888  0.48850316  1
  O  O258  1  0.75972135  0.62314118  1.00880151  1
  O  O259  1  0.25551413  0.36784398  0.00569276  1
  O  O260  1  0.26315667  0.37865186  0.50714749  1
  O  O261  1  0.24317554  0.87025295  0.01074347  1
  O  O262  1  0.25997604  0.87332518  0.50537287  1
  O  O263  1  0.75587111  0.36559359  0.01022348  1
  O  O264  1  0.74183405  0.37884066  0.51463809  1
  O  O265  1  0.76016716  0.88332244  0.00899285  1
  O  O266  1  0.75544801  0.87712648  0.50796453  1
  O  O267  1  0.12744319  0.48900808  0.24540539  1
  O  O268  1  0.12519724  0.48501102  0.74108603  1
  O  O269  1  0.13371621  0.98336664  0.25220300  1
  O  O270  1  0.13626558  1.01296489  0.74250038  1
  O  O271  1  0.63356972  0.49285271  0.25625869  1
  O  O272  1  0.63303109  0.49705577  0.74795034  1
  O  O273  1  0.62900952  0.98997377  0.25762237  1
  O  O274  1  0.63176209  1.00820193  0.73959713  1
  O  O275  1  0.37091540  0.00737889  0.25480265  1
  O  O276  1  0.37105386  0.00964339  0.75689194  1
  O  O277  1  0.37341487  0.50998894  0.25208884  1
  O  O278  1  0.37570339  0.50118923  0.76562173  1
  O  O279  1  0.86335238  -0.00440167  0.26273461  1
  O  O280  1  0.86384811  0.00706017  0.75506583  1
  O  O281  1  0.86870818  0.50797253  0.26125808  1
  O  O282  1  0.86861246  0.50202584  0.75620916  1
  O  O283  1  0.12107794  0.37016280  0.37328416  1
  O  O284  1  0.11562137  0.37903895  0.86505200  1
  O  O285  1  0.11859329  0.86962553  0.36875359  1
  O  O286  1  0.11084978  0.87675145  0.87552991  1
  O  O287  1  0.62294111  0.37310628  0.36397680  1
  O  O288  1  0.62005701  0.37061368  0.86833726  1
  O  O289  1  0.63051412  0.86536377  0.36895253  1
  O  O290  1  0.60979062  0.87110725  0.87206345  1
  O  O291  1  0.38039752  0.12188038  0.13595733  1
  O  O292  1  0.36759152  0.13385852  0.63231864  1
  O  O293  1  0.37600447  0.63259781  0.13518717  1
  O  O294  1  0.37403576  0.61680306  0.64526232  1
  O  O295  1  0.87559523  0.13461367  0.12466803  1
  O  O296  1  0.87038059  0.12336775  0.63533555  1
  O  O297  1  0.87432509  0.62412286  0.13801106  1
  O  O298  1  0.86698714  0.63556316  0.63175163  1
  O  O299  1  0.24269942  0.26141514  0.11916316  1
  O  O300  1  0.26058633  0.26208019  0.62837315  1
  O  O301  1  0.25355062  0.75693033  0.12040390  1
  O  O302  1  0.26518340  0.76070152  0.61804392  1
  O  O303  1  0.75830653  0.25160076  0.12020084  1
  O  O304  1  0.74791240  0.26785056  0.62781917  1
  O  O305  1  0.75157698  0.76884336  0.13840523  1
  O  O306  1  0.75539209  0.76219207  0.63226776  1
  O  O307  1  0.24179205  0.24097822  0.37270756  1
  O  O308  1  0.25566878  0.24202566  0.88325187  1
  O  O309  1  0.24047373  0.74351473  0.37488630  1
  O  O310  1  0.24922726  0.74381056  0.88382033  1
  O  O311  1  0.74715182  0.23701288  0.37250635  1
  O  O312  1  0.75108780  0.24045508  0.88272521  1
  O  O313  1  0.73995936  0.74036040  0.36614162  1
  O  O314  1  0.74403251  0.74912030  0.87681535  1
  O  O315  1  0.01007964  0.11795117  -0.00894845  1
  O  O316  1  0.01570620  0.12667764  0.49519006  1
  O  O317  1  0.00187668  0.61898024  0.00325185  1
  O  O318  1  -0.00271410  0.61467422  0.49259858  1
  O  O319  1  0.50057891  0.12179201  0.00762592  1
  O  O320  1  0.50735276  0.11414733  0.49551082  1
  O  O321  1  0.49323538  0.61451159  0.01083376  1
  O  O322  1  0.50820454  0.61773804  0.50080789  1
  O  O323  1  0.49204054  0.38266967  0.50083578  1
  O  O324  1  0.49322720  0.37765361  1.00020757  1
  O  O325  1  0.49257792  0.89138189  0.49811248  1
  O  O326  1  0.49651881  0.88642355  1.00356506  1
  O  O327  1  1.00419399  0.38565646  0.48820215  1
  O  O328  1  0.99685249  0.37125899  0.99047931  1
  O  O329  1  0.99098847  0.87322280  0.48432901  1
  O  O330  1  0.99424292  0.88398123  0.99424829  1
  O  O331  1  0.49868056  0.49898868  0.38745071  1
  O  O332  1  0.49517189  0.49386395  0.88503315  1
  O  O333  1  0.48712994  1.00640040  0.37909593  1
  O  O334  1  0.49439132  0.98930796  0.88293452  1
  O  O335  1  0.99250807  0.49569448  0.38196528  1
  O  O336  1  0.98960329  0.48573578  0.87305632  1
  O  O337  1  0.99065722  0.99230847  0.36628630  1
  O  O338  1  0.99429083  0.99253167  0.88165748  1
  O  O339  1  0.00591123  -0.00348148  0.11819685  1
  O  O340  1  0.00052894  0.00494316  0.62228639  1
  O  O341  1  0.01117463  0.49682666  0.12772608  1
  O  O342  1  0.01035523  0.49571964  0.61438194  1
  O  O343  1  0.49260760  0.00776857  0.11211295  1
  O  O344  1  0.51026600  -0.00061467  0.61723888  1
  O  O345  1  0.49709030  0.51108597  0.11771752  1
  O  O346  1  0.50760579  0.50384096  0.61564555  1
  O  O347  1  0.24387851  0.37655636  0.24371513  1
  O  O348  1  0.24289625  0.37440273  0.74429513  1
  O  O349  1  0.24230961  0.87608866  0.24030131  1
  O  O350  1  0.26094062  0.87391897  0.73272918  1
  O  O351  1  0.74423529  0.37924533  0.24848126  1
  O  O352  1  0.74520692  0.38435642  0.74443580  1
  O  O353  1  0.74159494  0.88687514  0.24559429  1
  O  O354  1  0.75452083  0.88618189  0.74290591  1
  O  O355  1  0.25480984  0.12184937  0.25653946  1
  O  O356  1  0.26216468  0.13199712  0.75942869  1
  O  O357  1  0.25924566  0.62477342  0.25822549  1
  O  O358  1  0.26452145  0.61629598  0.76383821  1
  O  O359  1  0.73938555  0.11296596  0.25748817  1
  O  O360  1  0.75440208  0.11911138  0.75526740  1
  O  O361  1  0.75321728  0.61810108  0.25609555  1
  O  O362  1  0.75865606  0.61120910  0.75125598  1
  O  O363  1  0.36800163  0.12077768  0.36578652  1
  O  O364  1  0.37017183  0.11708873  0.86756150  1
  O  O365  1  0.36994503  0.62604906  0.36298343  1
  O  O366  1  0.37226300  0.61704501  0.87163512  1
  O  O367  1  0.86676186  0.11584240  0.37802928  1
  O  O368  1  0.86335900  0.11885889  0.86582041  1
  O  O369  1  0.86548820  0.62164125  0.36753998  1
  O  O370  1  0.87315760  0.61443922  0.86771258  1
  O  O371  1  0.12892808  0.37771036  0.13491281  1
  O  O372  1  0.13303395  0.37617009  0.62966000  1
  O  O373  1  0.12956160  0.88159621  0.13371326  1
  O  O374  1  0.14180723  0.87377086  0.61464921  1
  O  O375  1  0.64022257  0.36813332  0.13633946  1
  O  O376  1  0.63189024  0.38356543  0.63220244  1
  O  O377  1  0.63241748  0.87357398  0.13409022  1
  O  O378  1  0.63236077  0.88558406  0.61747696  1
  O  O379  1  0.12762619  0.26532504  0.26409760  1
  O  O380  1  0.11727215  0.25881438  0.74530088  1
  O  O381  1  0.12003488  0.75819584  0.25696886  1
  O  O382  1  0.12858525  0.74184930  0.74684967  1
  O  O383  1  0.61652690  0.25922557  0.25143309  1
  O  O384  1  0.61673166  0.25352827  0.75054538  1
  O  O385  1  0.61598968  0.76177805  0.25710547  1
  O  O386  1  0.62102568  0.74811424  0.77279452  1
  O  O387  1  0.38119235  0.24272191  0.25185945  1
  O  O388  1  0.38258649  0.24544173  0.74080903  1
  O  O389  1  0.38103403  0.74588478  0.24239390  1
  O  O390  1  0.37208063  0.73197587  0.75382014  1
  O  O391  1  0.87513036  0.24679878  0.23947371  1
  O  O392  1  0.88114219  0.24163398  0.74419018  1
  O  O393  1  0.88336388  0.74144134  0.25683381  1
  O  O394  1  0.87214902  0.73909077  0.74088566  1
  O  O395  1  0.38370652  0.49238340  0.50100848  1
  O  O396  1  0.37948359  0.48940139  0.99300559  1
  O  O397  1  0.38059102  0.99643884  0.49095291  1
  O  O398  1  0.38729387  1.00732586  0.99019683  1
  O  O399  1  0.87973116  0.50479922  0.48810582  1
  O  O400  1  0.87992109  0.48487156  0.99197687  1
  O  O401  1  0.86849605  0.98749569  0.48559106  1
  O  O402  1  0.88582927  0.99598326  0.99437753  1
  O  O403  1  0.11291080  0.00758862  0.00583748  1
  O  O404  1  0.12834329  0.01315951  0.49666724  1
  O  O405  1  0.12258629  0.49877319  0.01123220  1
  O  O406  1  0.11746878  0.50098725  0.51086402  1
  O  O407  1  0.60660334  0.00143712  -0.00434988  1
  O  O408  1  0.61688681  0.00590377  0.50400131  1
  O  O409  1  0.61345578  0.49105032  -0.00041463  1
  O  O410  1  0.61881922  0.51133242  0.50365554  1
  O  O411  1  0.36453451  0.37984319  0.11700495  1
  O  O412  1  0.36893259  0.36980382  0.61958406  1
  O  O413  1  0.36138617  0.86597584  0.13077161  1
  O  O414  1  0.36856895  0.87904696  0.61135992  1
  O  O415  1  0.86643389  0.36623901  0.12383568  1
  O  O416  1  0.85956414  0.37808104  0.63049351  1
  O  O417  1  0.86725161  0.88079722  0.11455076  1
  O  O418  1  0.86478880  0.87031202  0.61597852  1
  O  O419  1  0.13206565  0.13229909  0.38403606  1
  O  O420  1  0.13633805  0.12113629  0.88320153  1
  O  O421  1  0.13505311  0.63351944  0.36561908  1
  O  O422  1  0.13649267  0.62128592  0.87680825  1
  O  O423  1  0.63180159  0.12510986  0.38587660  1
  O  O424  1  0.63630478  0.12588361  0.87560837  1
  O  O425  1  0.63066782  0.63547818  0.38021352  1
  O  O426  1  0.63463826  0.63392189  0.87825921  1
