# generated using pymatgen
data_V85Zn86O256
_symmetry_space_group_name_H-M   'P 1'
_cell_length_a   16.92226117
_cell_length_b   16.93180141
_cell_length_c   16.94508818
_cell_angle_alpha   89.93519988
_cell_angle_beta   90.00424313
_cell_angle_gamma   90.00245262
_symmetry_Int_Tables_number   1
_chemical_formula_structural   V85Zn86O256
_chemical_formula_sum   'V85 Zn86 O256'
_cell_volume   4855.17751314
_cell_formula_units_Z   1
loop_
 _symmetry_equiv_pos_site_id
 _symmetry_equiv_pos_as_xyz
  1  'x, y, z'
loop_
 _atom_site_type_symbol
 _atom_site_label
 _atom_site_symmetry_multiplicity
 _atom_site_fract_x
 _atom_site_fract_y
 _atom_site_fract_z
 _atom_site_occupancy
  V  V0  1  0.76447437  0.50134029  0.75342125  1
  V  V1  1  -0.00064855  0.50015680  0.50072516  1
  V  V2  1  0.37539638  0.50205943  0.37820574  1
  V  V3  1  0.75500334  -0.00422357  0.74072182  1
  V  V4  1  0.37470220  0.12564574  0.75080225  1
  V  V5  1  0.12814326  0.63111452  0.00074158  1
  V  V6  1  0.37443246  0.63043974  0.24971045  1
  V  V7  1  -0.00824120  0.12900652  0.11775533  1
  V  V8  1  0.25094943  0.24848005  -0.00043868  1
  V  V9  1  0.12443647  0.74754580  0.37685007  1
  V  V10  1  0.62531002  0.49788207  0.63441656  1
  V  V11  1  0.87117996  0.00002933  0.36764054  1
  V  V12  1  0.62941058  0.89102779  0.24722594  1
  V  V13  1  0.24882717  -0.00014000  0.74759394  1
  V  V14  1  -0.00032845  0.38038400  0.87565507  1
  V  V15  1  0.75216058  0.75728044  0.50557701  1
  V  V16  1  0.37564898  0.37304283  0.00143162  1
  V  V17  1  0.50605195  0.86239823  0.37866534  1
  V  V18  1  0.37947564  0.87318787  0.49559505  1
  V  V19  1  -0.00463083  0.86972040  0.38099310  1
  V  V20  1  0.12056688  0.00159517  0.12303359  1
  V  V21  1  0.87307821  0.36875337  0.50192086  1
  V  V22  1  0.26113054  0.01154736  0.26096035  1
  V  V23  1  0.87388194  0.76146847  0.12137739  1
  V  V24  1  0.50045110  0.86849462  0.86461174  1
  V  V25  1  0.12308861  0.50325707  0.62697692  1
  V  V26  1  0.62538572  0.24628306  0.37835349  1
  V  V27  1  0.50520435  0.37450742  0.87145190  1
  V  V28  1  -0.00971460  0.12894737  0.62873528  1
  V  V29  1  0.24997399  0.12544802  0.87465121  1
  V  V30  1  0.23951905  0.23971673  0.48944615  1
  V  V31  1  0.12622219  0.87506895  0.25060757  1
  V  V32  1  0.74768372  0.63123322  0.37310961  1
  V  V33  1  0.24831541  0.50081492  0.25030734  1
  V  V34  1  0.01924099  0.04171759  0.46722225  1
  V  V35  1  -0.00400163  0.50361350  -0.00317651  1
  V  V36  1  0.75648170  0.50475382  0.24808060  1
  V  V37  1  0.12107012  0.12189424  -0.00268461  1
  V  V38  1  0.49880362  0.62636561  0.64078374  1
  V  V39  1  0.37440433  0.25091020  0.62460728  1
  V  V40  1  0.51374736  0.74695155  0.25046672  1
  V  V41  1  0.74958295  0.24249380  0.50397966  1
  V  V42  1  0.24893235  0.37449428  0.62478217  1
  V  V43  1  0.86725196  0.13228635  0.24474971  1
  V  V44  1  0.87518329  0.37667693  -0.00126863  1
  V  V45  1  0.62859823  -0.00005649  0.61107171  1
  V  V46  1  0.25269817  0.50763993  0.74933800  1
  V  V47  1  0.37863594  0.74636324  0.63551629  1
  V  V48  1  0.37585411  0.50511052  0.87105004  1
  V  V49  1  -0.01293560  0.62538140  0.63251860  1
  V  V50  1  0.62675576  0.24851944  0.87180824  1
  V  V51  1  0.87530588  -0.00374677  0.88585005  1
  V  V52  1  0.25289874  0.63368979  0.87758721  1
  V  V53  1  0.75203362  0.75946916  -0.00242050  1
  V  V54  1  0.50073383  -0.00722327  0.00361135  1
  V  V55  1  0.62418975  0.11798079  0.00837974  1
  V  V56  1  0.00578559  0.25075372  0.24556349  1
  V  V57  1  0.49921404  0.24565392  0.24470263  1
  V  V58  1  0.24885218  0.37491235  0.12523507  1
  V  V59  1  0.50345558  0.37895326  0.37683626  1
  V  V60  1  0.12142662  0.00766277  0.62147161  1
  V  V61  1  -0.01025835  0.74593020  0.25119423  1
  V  V62  1  0.50350224  0.25213793  0.75192627  1
  V  V63  1  0.87426139  0.50359129  0.37290390  1
  V  V64  1  0.74876106  0.37059772  0.63033330  1
  V  V65  1  0.50879208  0.12466496  0.62855787  1
  V  V66  1  -0.00605007  0.75209294  0.75275788  1
  V  V67  1  -0.00628321  0.25350433  0.75052210  1
  V  V68  1  0.75452416  0.24793206  -0.00025677  1
  V  V69  1  0.25025427  0.87005082  0.11791378  1
  V  V70  1  0.75526978  0.36483339  0.12633653  1
  V  V71  1  0.50055694  0.62510927  0.12341990  1
  V  V72  1  0.62747680  0.87150549  0.74161188  1
  V  V73  1  0.50233927  0.49944800  -0.00009145  1
  V  V74  1  0.62882487  0.62732561  -0.00472773  1
  V  V75  1  0.25060403  0.74975129  0.50171211  1
  V  V76  1  0.62776823  0.37613430  0.25099188  1
  V  V77  1  0.48415224  0.02925536  0.47878735  1
  V  V78  1  0.76623788  0.62440748  0.87195149  1
  V  V79  1  0.62437926  0.62762921  0.49979085  1
  V  V80  1  -0.00747777  0.62415489  0.12820926  1
  V  V81  1  0.62913500  0.50002640  0.12397938  1
  V  V82  1  0.00621781  0.37316307  0.37339462  1
  V  V83  1  0.74432160  0.11984217  0.37258944  1
  V  V84  1  0.00032755  0.87949382  0.88691510  1
  Zn  Zn85  1  0.37751850  -0.00101097  0.87437623  1
  Zn  Zn86  1  0.87364879  0.88735234  0.50502456  1
  Zn  Zn87  1  0.12254810  0.62720303  0.50291501  1
  Zn  Zn88  1  0.87134261  0.12684255  0.75327891  1
  Zn  Zn89  1  0.24779479  0.87602723  0.62398049  1
  Zn  Zn90  1  0.74739664  0.88898994  0.12355379  1
  Zn  Zn91  1  0.12536920  0.37485244  0.75350542  1
  Zn  Zn92  1  0.87082883  0.76266391  0.63098471  1
  Zn  Zn93  1  0.12486613  0.25196025  0.87378888  1
  Zn  Zn94  1  0.36894956  0.23805615  0.13618612  1
  Zn  Zn95  1  0.12286512  0.87502971  0.74821610  1
  Zn  Zn96  1  0.12726349  0.75415036  0.87500585  1
  Zn  Zn97  1  0.50023747  0.50251175  0.50485202  1
  Zn  Zn98  1  0.74960693  0.12085065  0.87430623  1
  Zn  Zn99  1  0.36898910  0.74627890  0.11646649  1
  Zn  Zn100  1  0.37521590  0.37776327  0.50147145  1
  Zn  Zn101  1  0.49277719  0.10858394  0.12862734  1
  Zn  Zn102  1  0.37142701  0.86809029  -0.00813231  1
  Zn  Zn103  1  0.12248595  0.49998026  0.12630468  1
  Zn  Zn104  1  0.24821530  0.62496442  0.37623837  1
  Zn  Zn105  1  0.62571301  0.74558994  0.86257357  1
  Zn  Zn106  1  0.13013526  0.36875948  0.25501848  1
  Zn  Zn107  1  0.18661460  0.18560117  0.18733857  1
  Zn  Zn108  1  0.18103042  0.18875513  0.68650488  1
  Zn  Zn109  1  0.18200797  0.68714804  0.18850245  1
  Zn  Zn110  1  0.18394258  0.68899965  0.69048332  1
  Zn  Zn111  1  0.68305480  0.06608680  0.18817225  1
  Zn  Zn112  1  0.69037386  0.18433909  0.69029249  1
  Zn  Zn113  1  0.69258982  0.68688580  0.18373328  1
  Zn  Zn114  1  0.69038812  0.68364288  0.68625541  1
  Zn  Zn115  1  0.31569883  0.31400838  0.31455542  1
  Zn  Zn116  1  0.31284055  0.31550972  0.81190061  1
  Zn  Zn117  1  0.31260508  0.81594200  0.31275774  1
  Zn  Zn118  1  0.31214795  0.81578715  0.80977449  1
  Zn  Zn119  1  0.81535319  0.31046340  0.31357721  1
  Zn  Zn120  1  0.81382760  0.31700323  0.81480059  1
  Zn  Zn121  1  0.80742866  0.81354495  0.31296320  1
  Zn  Zn122  1  0.81404638  0.81628930  0.81145945  1
  Zn  Zn123  1  0.18814383  0.43549443  0.44145802  1
  Zn  Zn124  1  0.18478349  0.44295958  0.93852590  1
  Zn  Zn125  1  0.18762604  0.93667725  0.43768854  1
  Zn  Zn126  1  0.18430273  0.94131038  0.93577482  1
  Zn  Zn127  1  0.68802232  0.44028397  0.44227566  1
  Zn  Zn128  1  0.69004218  0.43786027  0.93335204  1
  Zn  Zn129  1  0.67715819  0.93666895  0.43190134  1
  Zn  Zn130  1  0.68466462  0.93770736  0.93128430  1
  Zn  Zn131  1  0.31425958  0.05491553  0.06477694  1
  Zn  Zn132  1  0.31300103  0.06475674  0.56207926  1
  Zn  Zn133  1  0.31293644  0.56199224  0.06151432  1
  Zn  Zn134  1  0.31275109  0.56690287  0.56248485  1
  Zn  Zn135  1  0.81280042  0.06144315  0.05906793  1
  Zn  Zn136  1  0.82031639  0.05982145  0.55848766  1
  Zn  Zn137  1  0.81568160  0.56595234  0.06138686  1
  Zn  Zn138  1  0.81066198  0.56069053  0.56095336  1
  Zn  Zn139  1  0.43609406  0.43703233  0.18868112  1
  Zn  Zn140  1  0.43787545  0.43841914  0.68990682  1
  Zn  Zn141  1  0.43523215  0.93353443  0.19000039  1
  Zn  Zn142  1  0.43852479  0.93827985  0.68114383  1
  Zn  Zn143  1  0.93626780  0.43563911  0.18519042  1
  Zn  Zn144  1  0.93481546  0.43396692  0.68552728  1
  Zn  Zn145  1  0.93774908  0.94061057  0.18866714  1
  Zn  Zn146  1  0.93841937  0.93736255  0.68793044  1
  Zn  Zn147  1  0.05953599  0.06144086  0.29872296  1
  Zn  Zn148  1  0.06102388  0.06170213  0.81128577  1
  Zn  Zn149  1  0.06202278  0.56290746  0.31204466  1
  Zn  Zn150  1  0.06323262  0.56456968  0.81241131  1
  Zn  Zn151  1  0.54254935  0.06708014  0.32410735  1
  Zn  Zn152  1  0.56704749  0.05734537  0.81383919  1
  Zn  Zn153  1  0.56576662  0.56328454  0.31302448  1
  Zn  Zn154  1  0.56979891  0.55989518  0.81319602  1
  Zn  Zn155  1  0.43698666  0.19652879  0.44195821  1
  Zn  Zn156  1  0.43764143  0.18343824  0.94281396  1
  Zn  Zn157  1  0.43958645  0.68620365  0.44106564  1
  Zn  Zn158  1  0.43778404  0.69220066  0.93731503  1
  Zn  Zn159  1  0.94021644  0.18990249  0.42944682  1
  Zn  Zn160  1  0.93565700  0.18859670  0.93334299  1
  Zn  Zn161  1  0.93377545  0.68421745  0.44213483  1
  Zn  Zn162  1  0.93843751  0.69367232  0.93973206  1
  Zn  Zn163  1  0.06419422  0.31026483  0.06235807  1
  Zn  Zn164  1  0.06292419  0.31015352  0.56407057  1
  Zn  Zn165  1  0.06377461  0.81047497  0.06292979  1
  Zn  Zn166  1  0.06066796  0.81484891  0.56800556  1
  Zn  Zn167  1  0.56895626  0.31097530  0.06121109  1
  Zn  Zn168  1  0.56592972  0.31347878  0.56197172  1
  Zn  Zn169  1  0.56103682  0.81172993  0.06305314  1
  Zn  Zn170  1  0.56485156  0.80750448  0.56569129  1
  O  O171  1  0.11743443  0.11885906  0.11769199  1
  O  O172  1  0.11401350  0.11563825  0.62635290  1
  O  O173  1  0.11411760  0.62419621  0.11849246  1
  O  O174  1  0.11926458  0.61373165  0.62521921  1
  O  O175  1  0.61557295  0.12635572  0.11147811  1
  O  O176  1  0.61780166  0.11412489  0.63384134  1
  O  O177  1  0.62168957  0.61830110  0.11650522  1
  O  O178  1  0.61784185  0.61819039  0.62093538  1
  O  O179  1  0.38398614  0.38874577  0.37510272  1
  O  O180  1  0.38128401  0.38434259  0.88224318  1
  O  O181  1  0.38416950  0.86875002  0.38753389  1
  O  O182  1  0.38819531  0.87657683  0.86943621  1
  O  O183  1  0.87983135  0.38572503  0.38056387  1
  O  O184  1  0.88222467  0.37603008  0.88985780  1
  O  O185  1  0.87793400  0.88294952  0.37595366  1
  O  O186  1  0.88644306  0.88612856  0.87292876  1
  O  O187  1  0.24338646  -0.00343661  0.35994704  1
  O  O188  1  0.25174553  0.00694198  0.86488862  1
  O  O189  1  0.25751635  0.50058379  0.36931915  1
  O  O190  1  0.25778534  0.50472748  0.86782310  1
  O  O191  1  0.75642459  0.01054754  0.38553218  1
  O  O192  1  0.76264937  -0.00278070  0.86798148  1
  O  O193  1  0.75604269  0.50505514  0.36827035  1
  O  O194  1  0.74755833  0.50556665  0.86061914  1
  O  O195  1  0.25005175  0.49312427  0.13375429  1
  O  O196  1  0.24510758  0.49711580  0.63057286  1
  O  O197  1  0.23839508  0.98960866  0.13347913  1
  O  O198  1  0.24160721  1.00201530  0.62920323  1
  O  O199  1  0.74918167  0.49610340  0.13188206  1
  O  O200  1  0.74571544  0.49554212  0.63472556  1
  O  O201  1  0.74751321  1.00144118  0.12431385  1
  O  O202  1  0.74171359  1.00615614  0.62684396  1
  O  O203  1  0.00132700  0.36929866  0.25436790  1
  O  O204  1  -0.00096410  0.37211696  0.75844341  1
  O  O205  1  0.00888302  0.86683947  0.25664927  1
  O  O206  1  0.00313677  0.86779727  0.75884037  1
  O  O207  1  0.50647669  0.37615123  0.26109000  1
  O  O208  1  0.49621878  0.36965223  0.76426177  1
  O  O209  1  0.50636050  0.86521874  0.25605942  1
  O  O210  1  0.50792626  0.88264213  0.75818775  1
  O  O211  1  0.50771167  0.14244546  0.24343961  1
  O  O212  1  0.49517340  0.13034581  0.74642001  1
  O  O213  1  0.49390766  0.62815950  0.24555131  1
  O  O214  1  0.50532010  0.62154139  0.74041212  1
  O  O215  1  0.99131199  0.13406928  0.23713199  1
  O  O216  1  0.99873746  0.13432178  0.74434922  1
  O  O217  1  1.00457918  0.63402581  0.24112133  1
  O  O218  1  1.00312860  0.63366299  0.74334634  1
  O  O219  1  0.37102099  0.26336832  -0.00217735  1
  O  O220  1  0.36971211  0.25554176  0.51289340  1
  O  O221  1  0.37586522  0.75540805  0.00374189  1
  O  O222  1  0.36678755  0.75388735  0.50545055  1
  O  O223  1  0.86128520  0.25669001  -0.00511745  1
  O  O224  1  0.86586763  0.26254030  0.49077815  1
  O  O225  1  0.86535022  0.74999288  0.00930658  1
  O  O226  1  0.85983980  0.75074249  0.49945862  1
  O  O227  1  0.14056827  0.25339500  0.50355449  1
  O  O228  1  0.13354037  0.23879260  0.99943706  1
  O  O229  1  0.13169619  0.75156836  0.49419753  1
  O  O230  1  0.12099268  0.73562942  0.99625129  1
  O  O231  1  0.63440858  0.25601083  0.48728387  1
  O  O232  1  0.63323320  0.24344357  0.99170859  1
  O  O233  1  0.63659119  0.73644830  0.50502587  1
  O  O234  1  0.63151715  0.73737104  1.00094808  1
  O  O235  1  0.50196722  0.26172436  0.14136815  1
  O  O236  1  0.49603974  0.24917449  0.63286093  1
  O  O237  1  0.49689378  0.74126014  0.13363692  1
  O  O238  1  0.48718227  0.74138683  0.62342653  1
  O  O239  1  1.00041847  0.24151940  0.13066865  1
  O  O240  1  1.00341376  0.24082483  0.63584250  1
  O  O241  1  0.99356451  0.74599828  0.13172718  1
  O  O242  1  0.99920956  0.74078759  0.63331573  1
  O  O243  1  -0.00905086  0.26512216  0.36087957  1
  O  O244  1  0.00168660  0.26360553  0.87155611  1
  O  O245  1  0.00209390  0.74981817  0.36868423  1
  O  O246  1  0.00001531  0.76227349  0.87062188  1
  O  O247  1  0.50573806  0.26061344  0.37039996  1
  O  O248  1  0.50569622  0.25644001  0.87355995  1
  O  O249  1  0.49667847  0.75281169  0.36480547  1
  O  O250  1  0.50595675  0.76371203  0.87292676  1
  O  O251  1  0.25491425  0.14013433  0.50083015  1
  O  O252  1  0.24404069  0.12739440  0.99226603  1
  O  O253  1  0.24663727  0.63765094  0.49738536  1
  O  O254  1  0.24035203  0.61537347  0.99073058  1
  O  O255  1  0.75869778  0.13748532  0.49278739  1
  O  O256  1  0.74319387  0.13394797  0.99660588  1
  O  O257  1  0.74470220  0.62975960  0.49295548  1
  O  O258  1  0.74479433  0.62970867  0.99240864  1
  O  O259  1  0.25657967  0.37346662  0.00591293  1
  O  O260  1  0.25288549  0.37155838  0.51407250  1
  O  O261  1  0.24530314  0.88074849  0.01507950  1
  O  O262  1  0.25756159  0.86592948  0.50109755  1
  O  O263  1  0.75705681  0.37250975  0.00436673  1
  O  O264  1  0.75585985  0.36721078  0.50586457  1
  O  O265  1  0.73851420  0.86174328  0.00123774  1
  O  O266  1  0.74564760  0.85865861  0.48898745  1
  O  O267  1  0.13881091  0.49996364  0.24971809  1
  O  O268  1  0.13308693  0.49729619  0.74319150  1
  O  O269  1  0.12872764  0.99159230  0.24230845  1
  O  O270  1  0.13509121  1.00299250  0.74149972  1
  O  O271  1  0.63680265  0.49523578  0.24533774  1
  O  O272  1  0.63513089  0.49982205  0.73857227  1
  O  O273  1  0.61504120  0.99409131  0.25345032  1
  O  O274  1  0.63320908  0.99154508  0.74045808  1
  O  O275  1  0.36054834  -0.00392454  0.24967256  1
  O  O276  1  0.36407906  0.00694171  0.74519831  1
  O  O277  1  0.36679256  0.50931735  0.25590498  1
  O  O278  1  0.36629927  0.49655284  0.75990990  1
  O  O279  1  0.88004826  0.01231849  0.26099005  1
  O  O280  1  0.86699399  0.00056851  0.75649658  1
  O  O281  1  0.86410556  0.49493166  0.25671571  1
  O  O282  1  0.86338429  0.50108061  0.74689081  1
  O  O283  1  0.11064328  0.38315144  0.37385944  1
  O  O284  1  0.11591102  0.37457745  0.87594703  1
  O  O285  1  0.11716364  0.86442231  0.36915393  1
  O  O286  1  0.11346682  0.87663961  0.87306457  1
  O  O287  1  0.62064114  0.37367197  0.37223870  1
  O  O288  1  0.61446047  0.36547734  0.88372678  1
  O  O289  1  0.62004775  0.86648891  0.35807323  1
  O  O290  1  0.61665666  0.87237345  0.86130678  1
  O  O291  1  0.38287916  0.12960064  0.11121148  1
  O  O292  1  0.38240584  0.13459214  0.63223679  1
  O  O293  1  0.38117281  0.62325963  0.13330898  1
  O  O294  1  0.38339431  0.63662125  0.62164573  1
  O  O295  1  0.88405667  0.12107064  0.12962976  1
  O  O296  1  0.88624173  0.12150195  0.63384403  1
  O  O297  1  0.88705024  0.63629470  0.12179439  1
  O  O298  1  0.88555764  0.62559652  0.62121052  1
  O  O299  1  0.25147241  0.25799625  0.11994626  1
  O  O300  1  0.25678025  0.25793194  0.62435649  1
  O  O301  1  0.24453786  0.76634250  0.13179869  1
  O  O302  1  0.25823604  0.74988873  0.61865708  1
  O  O303  1  0.74454254  0.26437058  0.11413637  1
  O  O304  1  0.74287916  0.25715338  0.61699068  1
  O  O305  1  0.75921560  0.75062444  0.11637562  1
  O  O306  1  0.75324490  0.74361226  0.60942299  1
  O  O307  1  0.25520186  0.25723128  0.39061513  1
  O  O308  1  0.24931310  0.24475385  0.88045694  1
  O  O309  1  0.24068027  0.75042892  0.38108153  1
  O  O310  1  0.25111190  0.73678354  0.86828015  1
  O  O311  1  0.74266932  0.24321053  0.38006133  1
  O  O312  1  0.74228790  0.25100686  0.88116078  1
  O  O313  1  0.75519678  0.73521744  0.38142556  1
  O  O314  1  0.74997000  0.74318079  0.88047589  1
  O  O315  1  0.00755848  0.13315816  0.00673704  1
  O  O316  1  -0.01218765  0.13693648  0.52236135  1
  O  O317  1  0.00441018  0.61939784  0.00503566  1
  O  O318  1  0.00149900  0.61695306  0.50909639  1
  O  O319  1  0.50815031  0.11126802  -0.00338353  1
  O  O320  1  0.50460442  0.13441519  0.52221575  1
  O  O321  1  0.50929171  0.61831913  0.00182975  1
  O  O322  1  0.50972246  0.62340245  0.50832846  1
  O  O323  1  0.49967769  0.37819714  0.48854343  1
  O  O324  1  0.49427123  0.37880595  0.99386236  1
  O  O325  1  0.49383161  0.86147089  0.49177827  1
  O  O326  1  0.50627079  0.87859701  0.98556011  1
  O  O327  1  0.99245543  0.37793021  0.49414653  1
  O  O328  1  0.99524811  0.38131475  0.99670419  1
  O  O329  1  0.99736389  0.86464955  0.48404479  1
  O  O330  1  1.00334059  0.87248462  0.98616531  1
  O  O331  1  0.49430985  0.49553889  0.37689284  1
  O  O332  1  0.49617461  0.49358110  0.87917386  1
  O  O333  1  0.51791680  0.97290441  0.38917055  1
  O  O334  1  0.50018366  0.98725665  0.88054813  1
  O  O335  1  0.99183635  0.49596812  0.37817580  1
  O  O336  1  1.00364958  0.49035712  0.88210237  1
  O  O337  1  0.99389015  0.98326044  0.36832164  1
  O  O338  1  0.99056803  0.98860819  0.86969093  1
  O  O339  1  0.01222636  0.00944951  0.13084402  1
  O  O340  1  0.00600996  0.01630564  0.62614614  1
  O  O341  1  0.00035062  0.50842419  0.11978821  1
  O  O342  1  0.00585485  0.50472246  0.62345657  1
  O  O343  1  0.49729212  -0.01064952  0.10925679  1
  O  O344  1  0.50465544  0.01189858  0.61659070  1
  O  O345  1  0.50669596  0.50378647  0.11958782  1
  O  O346  1  0.50755642  0.50445686  0.62587936  1
  O  O347  1  0.25133721  0.38183212  0.24329030  1
  O  O348  1  0.24950977  0.38462097  0.73963650  1
  O  O349  1  0.23749203  0.87864776  0.24457459  1
  O  O350  1  0.24635649  0.88658347  0.74592104  1
  O  O351  1  0.74859937  0.37945369  0.24274562  1
  O  O352  1  0.75487054  0.38643629  0.74270604  1
  O  O353  1  0.73283451  0.87477225  0.25031705  1
  O  O354  1  0.74280477  0.88714659  0.75116797  1
  O  O355  1  0.24698563  0.11127247  0.24776890  1
  O  O356  1  0.25376896  0.12159590  0.75491811  1
  O  O357  1  0.25678939  0.61929439  0.25132792  1
  O  O358  1  0.24615040  0.61351858  0.75801700  1
  O  O359  1  0.75489762  0.12597085  0.25992863  1
  O  O360  1  0.75107536  0.11126158  0.75439227  1
  O  O361  1  0.74583303  0.61553113  0.25838098  1
  O  O362  1  0.74829405  0.61270970  0.75750141  1
  O  O363  1  0.44556717  0.09348606  0.39805211  1
  O  O364  1  0.36912908  0.12376835  0.86753711  1
  O  O365  1  0.37506952  0.61593034  0.36827895  1
  O  O366  1  0.37012158  0.61176140  0.88262060  1
  O  O367  1  0.86577193  0.12105313  0.36476825  1
  O  O368  1  0.87543726  0.11050626  0.87280637  1
  O  O369  1  0.86711283  0.60995171  0.38050118  1
  O  O370  1  0.86523865  0.62462576  0.88243612  1
  O  O371  1  0.13779419  0.37767753  0.12595783  1
  O  O372  1  0.13125717  0.38668103  0.62675950  1
  O  O373  1  0.12800141  0.88085174  0.13133550  1
  O  O374  1  0.12427699  0.89155086  0.62577341  1
  O  O375  1  0.63470960  0.38256977  0.12887917  1
  O  O376  1  0.63866737  0.38354549  0.61972388  1
  O  O377  1  0.62338837  0.86858548  0.14481094  1
  O  O378  1  0.61720026  0.88700990  0.62995185  1
  O  O379  1  0.11145634  0.24983233  0.24829100  1
  O  O380  1  0.11239957  0.25501199  0.75339631  1
  O  O381  1  0.11584069  0.75626933  0.25801551  1
  O  O382  1  0.11364901  0.75329287  0.75424209  1
  O  O383  1  0.61283932  0.26279842  0.26492281  1
  O  O384  1  0.62089809  0.24612771  0.76412849  1
  O  O385  1  0.61507379  0.74393385  0.24837491  1
  O  O386  1  0.63370717  0.76602176  0.74333893  1
  O  O387  1  0.39377513  0.25709633  0.25250303  1
  O  O388  1  0.38041061  0.24740793  0.74139947  1
  O  O389  1  0.37855954  0.73810871  0.24921788  1
  O  O390  1  0.37113908  0.75212608  0.73371417  1
  O  O391  1  0.88117647  0.23792829  0.25047211  1
  O  O392  1  0.88795061  0.24909084  0.75815415  1
  O  O393  1  0.88494129  0.75339761  0.24604654  1
  O  O394  1  0.88730578  0.75252543  0.74945669  1
  O  O395  1  0.37667438  0.50006085  0.49158778  1
  O  O396  1  0.38068229  0.48929518  0.99458637  1
  O  O397  1  0.38669348  0.98950426  0.50932657  1
  O  O398  1  0.38387097  0.98825763  0.99402259  1
  O  O399  1  0.87868830  0.48954845  0.49328386  1
  O  O400  1  0.88813321  0.49451481  1.00378961  1
  O  O401  1  0.89717827  1.00907383  0.48124796  1
  O  O402  1  0.87511660  0.99925569  0.98476127  1
  O  O403  1  0.12786366  0.01362256  0.00774582  1
  O  O404  1  0.11048475  -0.00308554  0.50344445  1
  O  O405  1  0.11251298  0.50920085  0.00360982  1
  O  O406  1  0.11800952  0.50157558  0.50904755  1
  O  O407  1  0.61728999  0.00831519  -0.00797543  1
  O  O408  1  0.61264308  -0.00002205  0.50811688  1
  O  O409  1  0.62377045  0.50879101  0.00298032  1
  O  O410  1  0.62797320  0.51057310  0.51359912  1
  O  O411  1  0.36524658  0.37426034  0.11811788  1
  O  O412  1  0.36852735  0.36849689  0.62561557  1
  O  O413  1  0.35686724  0.87198659  0.12817176  1
  O  O414  1  0.37617472  0.86275439  0.61444766  1
  O  O415  1  0.86779367  0.37802187  0.11168743  1
  O  O416  1  0.86173247  0.37823149  0.61442118  1
  O  O417  1  0.87232027  0.86538106  0.13149263  1
  O  O418  1  0.87962916  0.87598614  0.61618154  1
  O  O419  1  0.05294463  0.11452271  0.39793544  1
  O  O420  1  0.12923249  0.12575604  0.88218009  1
  O  O421  1  0.12478103  0.63693216  0.37721098  1
  O  O422  1  0.13526488  0.62444155  0.88309491  1
  O  O423  1  0.63237744  0.13414929  0.37168510  1
  O  O424  1  0.62640869  0.13306139  0.88349986  1
  O  O425  1  0.63579909  0.61665617  0.38633921  1
  O  O426  1  0.63392542  0.62719844  0.88162456  1
