# generated using pymatgen
data_V85Zn86O256
_symmetry_space_group_name_H-M   'P 1'
_cell_length_a   16.92007004
_cell_length_b   16.91161602
_cell_length_c   16.90855076
_cell_angle_alpha   90.02500972
_cell_angle_beta   89.95280100
_cell_angle_gamma   90.06311663
_symmetry_Int_Tables_number   1
_chemical_formula_structural   V85Zn86O256
_chemical_formula_sum   'V85 Zn86 O256'
_cell_volume   4838.30452232
_cell_formula_units_Z   1
loop_
 _symmetry_equiv_pos_site_id
 _symmetry_equiv_pos_as_xyz
  1  'x, y, z'
loop_
 _atom_site_type_symbol
 _atom_site_label
 _atom_site_symmetry_multiplicity
 _atom_site_fract_x
 _atom_site_fract_y
 _atom_site_fract_z
 _atom_site_occupancy
  V  V0  1  0.25062934  -0.00232146  0.24889421  1
  V  V1  1  0.74413876  0.23793562  -0.00676780  1
  V  V2  1  0.50833195  0.24612887  0.24704044  1
  V  V3  1  0.36948659  0.24539632  0.13651376  1
  V  V4  1  0.75226739  0.87976213  0.61658208  1
  V  V5  1  0.62569756  0.62438888  0.49812087  1
  V  V6  1  0.74922260  0.00584798  0.25717021  1
  V  V7  1  0.50545011  0.48555305  -0.00255548  1
  V  V8  1  0.62702978  0.49580884  0.13882188  1
  V  V9  1  0.50355835  0.00759054  0.50119327  1
  V  V10  1  0.62843309  0.23310665  0.38160733  1
  V  V11  1  0.37276935  0.62726293  0.75759148  1
  V  V12  1  0.00283000  0.13544928  0.63534016  1
  V  V13  1  0.38060019  0.12817704  0.74760051  1
  V  V14  1  0.00356937  0.87014306  0.37585365  1
  V  V15  1  0.50206389  0.01640689  0.00450912  1
  V  V16  1  0.62245729  0.01935841  0.12484673  1
  V  V17  1  0.87421673  0.87426113  0.00039699  1
  V  V18  1  0.37522679  0.74722748  0.12249869  1
  V  V19  1  0.74522585  0.37583649  0.13358762  1
  V  V20  1  0.25662505  0.25389549  0.49633350  1
  V  V21  1  0.24598278  0.87009344  0.12727409  1
  V  V22  1  0.62718590  0.00940597  0.62649394  1
  V  V23  1  0.62429443  0.61963106  -0.00051732  1
  V  V24  1  0.63351216  0.88194138  0.75036932  1
  V  V25  1  0.50108632  0.75125408  0.74929552  1
  V  V26  1  0.62598596  0.74971799  0.37458792  1
  V  V27  1  0.87444260  0.74606721  0.13760130  1
  V  V28  1  0.00042738  0.12974281  0.13414183  1
  V  V29  1  0.87499188  0.25076157  0.12901314  1
  V  V30  1  -0.00362843  0.36908176  0.86981569  1
  V  V31  1  -0.00069558  0.75111300  0.74947872  1
  V  V32  1  0.24991103  0.26109590  0.00446623  1
  V  V33  1  0.11525281  0.24869526  0.37073158  1
  V  V34  1  0.24024603  0.62498165  0.37724345  1
  V  V35  1  0.00062319  0.87666481  0.87574832  1
  V  V36  1  0.51146252  0.37816413  0.38501307  1
  V  V37  1  -0.00134194  0.00063325  0.00210031  1
  V  V38  1  0.37497051  0.87142916  0.49979623  1
  V  V39  1  0.13207785  0.74398771  0.87372694  1
  V  V40  1  0.25131422  0.00154763  0.75000759  1
  V  V41  1  0.02194080  0.75100281  0.25212601  1
  V  V42  1  0.75121336  0.62260596  0.87412250  1
  V  V43  1  0.62384684  0.49891341  0.62156860  1
  V  V44  1  0.12444326  0.12449571  0.49969461  1
  V  V45  1  0.87558262  0.62608593  0.74458853  1
  V  V46  1  0.12178290  0.37053082  0.74560218  1
  V  V47  1  0.49928165  0.62412673  0.61973821  1
  V  V48  1  0.75273054  0.74975312  0.00030673  1
  V  V49  1  0.12370442  -0.00537567  0.13107601  1
  V  V50  1  0.75005848  0.23735452  0.50218765  1
  V  V51  1  0.25490663  0.48926889  0.24597021  1
  V  V52  1  0.12195107  0.25030164  0.87339721  1
  V  V53  1  0.25251039  0.12611845  0.36879223  1
  V  V54  1  -0.01075557  -0.00273547  0.50116902  1
  V  V55  1  0.87308404  0.49896636  0.35921646  1
  V  V56  1  0.12316287  0.50683712  0.61526154  1
  V  V57  1  0.62538130  0.87639190  0.24509465  1
  V  V58  1  -0.00200421  0.50005962  0.00067107  1
  V  V59  1  0.75021853  0.37695003  0.62227459  1
  V  V60  1  0.24749316  0.50454806  0.75636017  1
  V  V61  1  0.49903324  0.87505840  0.37408204  1
  V  V62  1  0.11725402  0.37018219  0.24646749  1
  V  V63  1  0.12510415  0.12557842  0.00262322  1
  V  V64  1  0.61086642  0.24464743  0.87359850  1
  V  V65  1  0.86161858  0.00327778  0.86987467  1
  V  V66  1  0.38157741  0.49035392  0.87304909  1
  V  V67  1  0.37615154  0.49122815  0.39298843  1
  V  V68  1  0.49795624  0.74883954  0.24931121  1
  V  V69  1  0.87397290  0.12701989  0.26028728  1
  V  V70  1  0.12443859  0.00078126  0.62440070  1
  V  V71  1  0.24910585  0.12569667  0.87707971  1
  V  V72  1  0.12624804  0.87555425  0.75119545  1
  V  V73  1  0.23522655  0.74839962  0.49605060  1
  V  V74  1  0.87455467  0.50014947  0.87379341  1
  V  V75  1  0.13229580  0.62177459  -0.00351780  1
  V  V76  1  0.37517587  0.00232263  0.36829085  1
  V  V77  1  0.12962340  0.49371538  0.12391662  1
  V  V78  1  0.25670109  0.37700218  0.62038391  1
  V  V79  1  0.87492740  0.75443998  0.61386803  1
  V  V80  1  0.37534245  0.61881425  0.25201231  1
  V  V81  1  0.50086105  0.87710610  0.87951475  1
  V  V82  1  0.86438778  0.13357749  0.75471404  1
  V  V83  1  0.62636085  0.74934086  0.87451768  1
  V  V84  1  0.75445905  0.62158014  0.35998574  1
  Zn  Zn85  1  0.50272256  0.13229081  0.62257054  1
  Zn  Zn86  1  0.86969225  -0.00331075  0.38055376  1
  Zn  Zn87  1  0.87626415  0.37881705  0.49857448  1
  Zn  Zn88  1  -0.00457626  0.37334363  0.37383131  1
  Zn  Zn89  1  0.25389872  0.74590051  -0.00430961  1
  Zn  Zn90  1  0.87134340  0.37266589  -0.00002704  1
  Zn  Zn91  1  0.88074593  0.25607886  0.62821540  1
  Zn  Zn92  1  0.37692930  0.37397541  0.00520696  1
  Zn  Zn93  1  0.37541283  0.00068473  0.87852278  1
  Zn  Zn94  1  0.49981613  0.61821300  0.12475100  1
  Zn  Zn95  1  0.75075755  0.49768757  0.74751259  1
  Zn  Zn96  1  0.61931820  0.37970125  0.75850588  1
  Zn  Zn97  1  0.75419914  0.75315724  0.49435136  1
  Zn  Zn98  1  0.00530020  0.63163137  0.61378439  1
  Zn  Zn99  1  0.75029379  0.87785166  0.12587768  1
  Zn  Zn100  1  0.49329255  0.27049831  0.74827260  1
  Zn  Zn101  1  0.37393968  0.75083909  0.62437720  1
  Zn  Zn102  1  -0.00373438  0.50479960  0.49246153  1
  Zn  Zn103  1  0.37579187  0.87469828  0.00009258  1
  Zn  Zn104  1  -0.00427290  0.62051626  0.13314833  1
  Zn  Zn105  1  0.37991490  0.25415220  0.61940428  1
  Zn  Zn106  1  0.25142437  0.87488762  0.62351213  1
  Zn  Zn107  1  0.18967492  0.18658465  0.18865557  1
  Zn  Zn108  1  0.19148350  0.18970299  0.68613390  1
  Zn  Zn109  1  0.19030867  0.67734597  0.18365843  1
  Zn  Zn110  1  0.19150610  0.68924455  0.68499169  1
  Zn  Zn111  1  0.69065186  0.19337549  0.19367288  1
  Zn  Zn112  1  0.68577732  0.19237616  0.69267427  1
  Zn  Zn113  1  0.68561724  0.68833736  0.18381555  1
  Zn  Zn114  1  0.68971167  0.69028594  0.68566654  1
  Zn  Zn115  1  0.31417911  0.31408754  0.31179266  1
  Zn  Zn116  1  0.30978143  0.31331944  0.81129606  1
  Zn  Zn117  1  0.30800544  0.81086998  0.31159651  1
  Zn  Zn118  1  0.31425707  0.81518919  0.81300218  1
  Zn  Zn119  1  0.80818632  0.31056811  0.31325560  1
  Zn  Zn120  1  0.80629726  0.31291182  0.81150148  1
  Zn  Zn121  1  0.81367041  0.81794031  0.31728638  1
  Zn  Zn122  1  0.81269595  0.81350110  0.81027840  1
  Zn  Zn123  1  0.18842506  0.43521386  0.43305455  1
  Zn  Zn124  1  0.18712158  0.43821192  0.93245952  1
  Zn  Zn125  1  0.18370129  0.93520659  0.43587223  1
  Zn  Zn126  1  0.18882752  0.93566646  0.94186043  1
  Zn  Zn127  1  0.69170257  0.44003823  0.43985469  1
  Zn  Zn128  1  0.69077716  0.42864227  0.94112638  1
  Zn  Zn129  1  0.68488758  0.94029019  0.43848241  1
  Zn  Zn130  1  0.68456868  0.94028714  0.94264968  1
  Zn  Zn131  1  0.31627460  0.06574345  0.06431622  1
  Zn  Zn132  1  0.31424353  0.06334040  0.55945005  1
  Zn  Zn133  1  0.31414435  0.55881968  0.06107794  1
  Zn  Zn134  1  0.30829849  0.56806172  0.56733839  1
  Zn  Zn135  1  0.81251210  0.06150985  0.06916120  1
  Zn  Zn136  1  0.81295091  0.06476395  0.57323950  1
  Zn  Zn137  1  0.81159420  0.56104812  0.06621647  1
  Zn  Zn138  1  0.81323505  0.56322350  0.55426293  1
  Zn  Zn139  1  0.44315969  0.42583996  0.18899297  1
  Zn  Zn140  1  0.43969217  0.44115559  0.68410797  1
  Zn  Zn141  1  0.43725646  0.93765869  0.18420269  1
  Zn  Zn142  1  0.43933931  0.93892649  0.68771789  1
  Zn  Zn143  1  0.93587619  0.43562138  0.18786714  1
  Zn  Zn144  1  0.93809027  0.43775409  0.68569871  1
  Zn  Zn145  1  0.93690279  0.93299281  0.19305711  1
  Zn  Zn146  1  0.93556704  0.94079335  0.68841394  1
  Zn  Zn147  1  0.06158341  0.05762232  0.31424812  1
  Zn  Zn148  1  0.05987467  0.06232360  0.81373398  1
  Zn  Zn149  1  0.05906125  0.56276118  0.30815813  1
  Zn  Zn150  1  0.06008235  0.56121923  0.80870407  1
  Zn  Zn151  1  0.55926234  0.06485733  0.30970337  1
  Zn  Zn152  1  0.56787061  0.06614099  0.81685118  1
  Zn  Zn153  1  0.55846836  0.56017948  0.31741829  1
  Zn  Zn154  1  0.56056331  0.55824787  0.80846954  1
  Zn  Zn155  1  0.43839625  0.18848246  0.43228455  1
  Zn  Zn156  1  0.43126602  0.18905798  0.93849977  1
  Zn  Zn157  1  0.43543444  0.68494913  0.43620090  1
  Zn  Zn158  1  0.44056443  0.68292013  0.93696387  1
  Zn  Zn159  1  0.93559255  0.18618233  0.44456810  1
  Zn  Zn160  1  0.93352335  0.18647575  0.94192828  1
  Zn  Zn161  1  0.94335194  0.68170760  0.43263904  1
  Zn  Zn162  1  0.94135553  0.68612311  0.93850318  1
  Zn  Zn163  1  0.05935012  0.31332909  0.06135448  1
  Zn  Zn164  1  0.06472363  0.31788849  0.55451432  1
  Zn  Zn165  1  0.06114182  0.80962844  0.06310550  1
  Zn  Zn166  1  0.05957057  0.81720220  0.56227637  1
  Zn  Zn167  1  0.56712017  0.30571873  0.06368861  1
  Zn  Zn168  1  0.56243571  0.31286737  0.56123323  1
  Zn  Zn169  1  0.56224071  0.81095521  0.06300492  1
  Zn  Zn170  1  0.56378895  0.81454648  0.56234598  1
  O  O171  1  0.11815500  0.11927996  0.12246867  1
  O  O172  1  0.11980615  0.12043410  0.62247800  1
  O  O173  1  0.12043112  0.61135858  0.11648095  1
  O  O174  1  0.12586434  0.60979761  0.63244072  1
  O  O175  1  0.62320167  0.11828503  0.13516368  1
  O  O176  1  0.62331281  0.11287745  0.63396933  1
  O  O177  1  0.62594548  0.61540403  0.11556840  1
  O  O178  1  0.62047233  0.62379678  0.61706458  1
  O  O179  1  0.37626464  0.38805124  0.37686876  1
  O  O180  1  0.36885452  0.38750702  0.87919440  1
  O  O181  1  0.37918731  0.88048364  0.37948554  1
  O  O182  1  0.38587726  0.87905256  0.87741768  1
  O  O183  1  0.87197626  0.38752493  0.37063972  1
  O  O184  1  0.88114181  0.38111946  0.87381486  1
  O  O185  1  0.89188135  0.88156440  0.36972062  1
  O  O186  1  0.87892780  0.88595643  0.87795862  1
  O  O187  1  0.25565326  0.00416294  0.37016597  1
  O  O188  1  0.24905139  0.00627720  0.86854767  1
  O  O189  1  0.26183655  0.50353940  0.36908693  1
  O  O190  1  0.25606432  0.49917112  0.86225928  1
  O  O191  1  0.74977688  -0.00341821  0.36276240  1
  O  O192  1  0.76310164  -0.00187547  0.87978222  1
  O  O193  1  0.75601645  0.51274524  0.37420784  1
  O  O194  1  0.75793002  0.50440727  0.87427085  1
  O  O195  1  0.24261019  0.50274344  0.13367463  1
  O  O196  1  0.24105914  0.49636966  0.63316523  1
  O  O197  1  0.24520721  0.99363842  0.12828104  1
  O  O198  1  0.24266408  1.00031933  0.63192323  1
  O  O199  1  0.74313576  0.48586515  0.11961943  1
  O  O200  1  0.74361772  0.49444669  0.62300275  1
  O  O201  1  0.73895131  0.99800753  0.13472409  1
  O  O202  1  0.74096659  0.99226010  0.62373269  1
  O  O203  1  0.01322870  0.37659505  0.25213203  1
  O  O204  1  0.00844414  0.37874147  0.75837242  1
  O  O205  1  0.00059781  0.86073967  0.25706012  1
  O  O206  1  0.00656616  0.87194908  0.75582523  1
  O  O207  1  0.49162004  0.35708997  0.27037933  1
  O  O208  1  0.50418348  0.38445531  0.75285605  1
  O  O209  1  0.50529264  0.87052139  0.25464302  1
  O  O210  1  0.50679227  0.87129727  0.76063590  1
  O  O211  1  0.49426243  0.14711726  0.26422296  1
  O  O212  1  0.48449149  0.11917446  0.75169092  1
  O  O213  1  0.48838755  0.62766164  0.24978705  1
  O  O214  1  0.49432544  0.63227209  0.74284562  1
  O  O215  1  0.99419165  0.11866889  0.23932701  1
  O  O216  1  0.99524079  0.12139281  0.74028378  1
  O  O217  1  1.00298622  0.64453570  0.24955725  1
  O  O218  1  0.98905273  0.63119459  0.74552278  1
  O  O219  1  0.36443825  0.25340127  0.00519806  1
  O  O220  1  0.36035794  0.24387048  0.49818047  1
  O  O221  1  0.37458559  0.74656277  0.00854393  1
  O  O222  1  0.37310018  0.76232514  0.49798597  1
  O  O223  1  0.86729909  0.24896867  0.01364738  1
  O  O224  1  0.86149941  0.25413233  0.50094590  1
  O  O225  1  0.87243719  0.75685780  0.00273413  1
  O  O226  1  0.87658517  0.74811490  0.51131692  1
  O  O227  1  0.13478771  0.24350926  0.49029072  1
  O  O228  1  0.13060970  0.24444986  0.99721412  1
  O  O229  1  0.13686660  0.75558097  0.50061509  1
  O  O230  1  0.12316784  0.73906682  0.99208482  1
  O  O231  1  0.63493848  0.24975766  0.49051934  1
  O  O232  1  0.63496714  0.24849667  0.99064878  1
  O  O233  1  0.62580086  0.74655804  0.48948134  1
  O  O234  1  0.63118989  0.74089627  0.99607971  1
  O  O235  1  0.49915774  0.25305100  0.14203016  1
  O  O236  1  0.49698068  0.24843714  0.62854457  1
  O  O237  1  0.49248722  0.74485702  0.13098708  1
  O  O238  1  0.50033062  0.74223628  0.63127542  1
  O  O239  1  0.99067010  0.24073989  0.12100647  1
  O  O240  1  1.00176004  0.23887521  0.61680951  1
  O  O241  1  0.99248477  0.75060873  0.13730858  1
  O  O242  1  0.99323552  0.75264122  0.63253890  1
  O  O243  1  0.01251131  0.24755465  0.37970399  1
  O  O244  1  0.00397954  0.26233058  0.88427330  1
  O  O245  1  -0.00122981  0.75845609  0.36316906  1
  O  O246  1  0.00782731  0.75657454  0.86874991  1
  O  O247  1  0.51366687  0.25667493  0.37660263  1
  O  O248  1  0.50749106  0.24819581  0.87537384  1
  O  O249  1  0.50428174  0.75419209  0.36737185  1
  O  O250  1  0.50738759  0.75665251  0.87081358  1
  O  O251  1  0.24276437  0.12825092  0.48938060  1
  O  O252  1  0.24353319  0.13101356  0.99489447  1
  O  O253  1  0.25470478  0.63978525  0.49309838  1
  O  O254  1  0.23656914  0.62353749  1.00131336  1
  O  O255  1  0.75398659  0.13809189  0.50512200  1
  O  O256  1  0.75251981  0.13959630  1.01077994  1
  O  O257  1  0.73742677  0.63145806  0.49197956  1
  O  O258  1  0.74104226  0.62761159  0.99478858  1
  O  O259  1  0.24648834  0.36369082  -0.00191012  1
  O  O260  1  0.24398583  0.36557539  0.50682821  1
  O  O261  1  0.25463624  0.87114123  0.01247366  1
  O  O262  1  0.25642089  0.86530868  0.49678787  1
  O  O263  1  0.75412364  0.36169537  0.01164185  1
  O  O264  1  0.75057074  0.36751345  0.51022831  1
  O  O265  1  0.75593006  0.86842601  0.00250839  1
  O  O266  1  0.74605132  0.87267173  0.51158771  1
  O  O267  1  0.13207317  0.49384136  0.24141596  1
  O  O268  1  0.13144642  0.49157765  0.74537440  1
  O  O269  1  0.13080133  1.00316738  0.23694217  1
  O  O270  1  0.13485902  0.99801752  0.74661164  1
  O  O271  1  0.61854155  0.50427721  0.23769277  1
  O  O272  1  0.63104076  0.50520728  0.73510355  1
  O  O273  1  0.62717355  0.99522629  0.24481096  1
  O  O274  1  0.61725449  0.99009004  0.74298109  1
  O  O275  1  0.37100221  -0.00535099  0.26107040  1
  O  O276  1  0.36290925  0.00464221  0.75088749  1
  O  O277  1  0.37033630  0.50309927  0.24958801  1
  O  O278  1  0.36804104  0.50739409  0.75590115  1
  O  O279  1  0.86480763  0.00792791  0.24710311  1
  O  O280  1  0.87848154  0.00808416  0.76462419  1
  O  O281  1  0.87308181  0.50256110  0.25861733  1
  O  O282  1  0.87402341  0.50992060  0.75415106  1
  O  O283  1  0.12424235  0.36594377  0.36535491  1
  O  O284  1  0.11697857  0.37084217  0.86629612  1
  O  O285  1  0.10507364  0.88365051  0.37137918  1
  O  O286  1  0.11984338  0.86884665  0.87122968  1
  O  O287  1  0.61436150  0.37723286  0.37908436  1
  O  O288  1  0.63917254  0.35281515  0.87331592  1
  O  O289  1  0.61915136  0.87116915  0.36414319  1
  O  O290  1  0.62143425  0.87147349  0.86875252  1
  O  O291  1  0.37884787  0.14541794  0.11816432  1
  O  O292  1  0.37418577  0.12738069  0.63386096  1
  O  O293  1  0.37500629  0.63161891  0.13225185  1
  O  O294  1  0.38366041  0.62733653  0.63413678  1
  O  O295  1  0.88315169  0.13074713  0.13375358  1
  O  O296  1  0.88464488  0.12719819  0.64036858  1
  O  O297  1  0.87838605  0.64139291  0.11623480  1
  O  O298  1  0.87254115  0.63455762  0.63136474  1
  O  O299  1  0.25974374  0.24725129  0.11979956  1
  O  O300  1  0.24990792  0.25993635  0.61461732  1
  O  O301  1  0.25654438  0.75349016  0.12347991  1
  O  O302  1  0.25322617  0.75245658  0.61012168  1
  O  O303  1  0.75333052  0.25807707  0.11961945  1
  O  O304  1  0.74782656  0.25591696  0.61444815  1
  O  O305  1  0.75988528  0.75150166  0.11928516  1
  O  O306  1  0.75838838  0.75923913  0.62227248  1
  O  O307  1  0.24472148  0.24257040  0.37759337  1
  O  O308  1  0.24245338  0.24538112  0.88352708  1
  O  O309  1  0.25372173  0.74094532  0.38583554  1
  O  O310  1  0.23620679  0.75529691  0.87587155  1
  O  O311  1  0.73655252  0.25423240  0.38626883  1
  O  O312  1  0.75786429  0.24628734  0.89188932  1
  O  O313  1  0.74546806  0.74080796  0.37388327  1
  O  O314  1  0.74606866  0.74403979  0.88057271  1
  O  O315  1  0.00425166  0.11905545  0.01136138  1
  O  O316  1  0.00613862  0.11695328  0.50909465  1
  O  O317  1  0.00932305  0.61171984  -0.00059266  1
  O  O318  1  0.00180562  0.61907883  0.50197326  1
  O  O319  1  0.50017022  0.11443737  -0.00381802  1
  O  O320  1  0.49233182  0.11081699  0.50071284  1
  O  O321  1  0.51374044  0.61730655  0.00144705  1
  O  O322  1  0.51211302  0.63311448  0.50649315  1
  O  O323  1  0.49589665  0.37029065  0.48420313  1
  O  O324  1  0.50370085  0.38299530  1.00014316  1
  O  O325  1  0.49315202  0.88224345  0.49346612  1
  O  O326  1  0.50179418  0.87560927  0.98817703  1
  O  O327  1  0.99696459  0.38365000  0.49227834  1
  O  O328  1  0.99740640  0.38583994  0.99165260  1
  O  O329  1  1.00122736  0.88314596  0.48949448  1
  O  O330  1  0.99305522  0.87919947  0.99573260  1
  O  O331  1  0.48768363  0.48876639  0.37384969  1
  O  O332  1  0.49259204  0.50462759  0.88433860  1
  O  O333  1  0.49334099  0.99550080  0.37961418  1
  O  O334  1  0.50283939  0.99418045  0.88753983  1
  O  O335  1  0.98427502  0.50094978  0.36911799  1
  O  O336  1  0.99447499  0.49126926  0.87977219  1
  O  O337  1  0.99663177  0.99390624  0.38484477  1
  O  O338  1  0.99526913  0.99409782  0.88403728  1
  O  O339  1  0.00630925  0.00326272  0.12208178  1
  O  O340  1  0.00632666  0.00562216  0.61967693  1
  O  O341  1  0.00506023  0.50018362  0.11668230  1
  O  O342  1  0.01657194  0.49991792  0.62650158  1
  O  O343  1  0.50652733  -0.00264179  0.11315010  1
  O  O344  1  0.50755720  0.00067961  0.61681032  1
  O  O345  1  0.50877308  0.49721344  0.11717953  1
  O  O346  1  0.50735347  0.51665651  0.62491915  1
  O  O347  1  0.24129379  0.38570108  0.25423157  1
  O  O348  1  0.24221866  0.38364654  0.74252002  1
  O  O349  1  0.25364033  0.88007484  0.23618513  1
  O  O350  1  0.24509460  0.88423640  0.74869263  1
  O  O351  1  0.74948429  0.36895379  0.23311345  1
  O  O352  1  0.74524235  0.37524417  0.73558036  1
  O  O353  1  0.74038825  0.88177909  0.24838113  1
  O  O354  1  0.73783200  0.87034217  0.74282767  1
  O  O355  1  0.24700040  0.11647863  0.26189233  1
  O  O356  1  0.25555832  0.11911679  0.75587470  1
  O  O357  1  0.26045221  0.61560499  0.25616567  1
  O  O358  1  0.26062634  0.61784049  0.74458056  1
  O  O359  1  0.76053140  0.11782920  0.24711048  1
  O  O360  1  0.76605813  0.12543536  0.74618431  1
  O  O361  1  0.74323019  0.62698172  0.26191060  1
  O  O362  1  0.76140511  0.62702975  0.75566647  1
  O  O363  1  0.36479347  0.11381649  0.38017809  1
  O  O364  1  0.36472130  0.12229392  0.86816025  1
  O  O365  1  0.37156274  0.61180997  0.36847265  1
  O  O366  1  0.37958378  0.61624182  0.86329226  1
  O  O367  1  0.88281004  0.12189730  0.36330431  1
  O  O368  1  0.88230837  0.11463841  0.86543652  1
  O  O369  1  0.86053974  0.61879910  0.37354734  1
  O  O370  1  0.87249515  0.62044219  0.86761773  1
  O  O371  1  0.12169872  0.38501829  0.12916040  1
  O  O372  1  0.13252432  0.38317434  0.63062149  1
  O  O373  1  0.13279954  0.88291870  0.11855676  1
  O  O374  1  0.12660923  0.88311868  0.63360512  1
  O  O375  1  0.63648319  0.38051683  0.12209505  1
  O  O376  1  0.63039013  0.38600199  0.62264187  1
  O  O377  1  0.62374508  0.87778767  0.13673432  1
  O  O378  1  0.63165781  0.88161764  0.63283386  1
  O  O379  1  0.13173880  0.25850360  0.25732882  1
  O  O380  1  0.13103016  0.26304670  0.75474561  1
  O  O381  1  0.12025127  0.75005442  0.24312963  1
  O  O382  1  0.12055074  0.75327827  0.75537463  1
  O  O383  1  0.61726193  0.24958943  0.26520778  1
  O  O384  1  0.61834592  0.25288933  0.76139202  1
  O  O385  1  0.61870698  0.75705836  0.25303000  1
  O  O386  1  0.62027281  0.75733829  0.75570435  1
  O  O387  1  0.37909156  0.24947389  0.24212432  1
  O  O388  1  0.37370648  0.24193615  0.74779665  1
  O  O389  1  0.37753420  0.73986287  0.24429775  1
  O  O390  1  0.38069293  0.74410227  0.74957470  1
  O  O391  1  0.86877273  0.24153408  0.23963170  1
  O  O392  1  0.87503329  0.23776888  0.75157465  1
  O  O393  1  0.87282733  0.75307746  0.23770926  1
  O  O394  1  0.88096736  0.74438787  0.74434940  1
  O  O395  1  0.37022593  0.50402061  0.49081814  1
  O  O396  1  0.38550845  0.49877456  0.99271395  1
  O  O397  1  0.37768348  0.98850853  0.49011842  1
  O  O398  1  0.38958676  0.99729410  1.00176652  1
  O  O399  1  0.87303002  0.49827088  0.48310197  1
  O  O400  1  0.88288068  0.49981054  0.99367612  1
  O  O401  1  0.88607435  1.00659529  0.50314248  1
  O  O402  1  0.87828602  0.99524866  0.99372573  1
  O  O403  1  0.12076484  0.00603987  0.01055440  1
  O  O404  1  0.11891307  0.00569094  0.50706594  1
  O  O405  1  0.11996806  0.50223021  0.00364895  1
  O  O406  1  0.13058520  0.49720202  0.51377982  1
  O  O407  1  0.61278854  -0.00219057  0.01095791  1
  O  O408  1  0.61420310  -0.00507094  0.51069796  1
  O  O409  1  0.62126334  0.50398408  0.00240336  1
  O  O410  1  0.62765616  0.51105030  0.51039991  1
  O  O411  1  0.38116030  0.35548988  0.12118582  1
  O  O412  1  0.36005118  0.37865768  0.62650144  1
  O  O413  1  0.37012321  0.86063992  0.12462340  1
  O  O414  1  0.37367611  0.87443704  0.61491570  1
  O  O415  1  0.86721703  0.36720547  0.12459136  1
  O  O416  1  0.86685932  0.37358729  0.62368011  1
  O  O417  1  0.87442353  0.86415901  0.11848550  1
  O  O418  1  0.86385682  0.86813724  0.63405456  1
  O  O419  1  0.13090476  0.12983405  0.37799762  1
  O  O420  1  0.12808768  0.13148787  0.88018797  1
  O  O421  1  0.14179211  0.61445011  0.36953989  1
  O  O422  1  0.11819924  0.63280313  0.88093840  1
  O  O423  1  0.62506227  0.13450906  0.37808862  1
  O  O424  1  0.63054095  0.14372705  0.87113327  1
  O  O425  1  0.63076496  0.62790851  0.37979063  1
  O  O426  1  0.63040603  0.62849431  0.87972962  1
