# generated using pymatgen
data_V85Zn86O256
_symmetry_space_group_name_H-M   'P 1'
_cell_length_a   16.92696199
_cell_length_b   16.93002025
_cell_length_c   16.92111230
_cell_angle_alpha   89.92770228
_cell_angle_beta   89.96403214
_cell_angle_gamma   89.97286723
_symmetry_Int_Tables_number   1
_chemical_formula_structural   V85Zn86O256
_chemical_formula_sum   'V85 Zn86 O256'
_cell_volume   4849.14224963
_cell_formula_units_Z   1
loop_
 _symmetry_equiv_pos_site_id
 _symmetry_equiv_pos_as_xyz
  1  'x, y, z'
loop_
 _atom_site_type_symbol
 _atom_site_label
 _atom_site_symmetry_multiplicity
 _atom_site_fract_x
 _atom_site_fract_y
 _atom_site_fract_z
 _atom_site_occupancy
  V  V0  1  0.24923170  0.75407197  0.00917074  1
  V  V1  1  0.87705886  0.00096132  0.36687429  1
  V  V2  1  0.49994592  0.12629546  0.62412051  1
  V  V3  1  0.74183348  0.24324511  0.00343999  1
  V  V4  1  0.37439201  0.88358376  0.49331059  1
  V  V5  1  0.49393069  0.38197675  0.37312892  1
  V  V6  1  0.25072491  0.00227569  0.75143305  1
  V  V7  1  0.00429965  0.50632916  0.01053507  1
  V  V8  1  0.73881749  0.49049243  0.75228626  1
  V  V9  1  0.37864292  0.74488117  0.12536300  1
  V  V10  1  0.00164620  0.50055042  0.50167681  1
  V  V11  1  0.13365820  -0.00206932  0.11260394  1
  V  V12  1  0.75541687  0.12630243  0.36774359  1
  V  V13  1  0.87809435  0.37460407  0.49721014  1
  V  V14  1  0.74630294  0.87695376  0.12492450  1
  V  V15  1  0.48926024  0.25087477  0.24692604  1
  V  V16  1  0.62536881  0.37746700  0.25001743  1
  V  V17  1  0.87411431  0.62140545  0.74615940  1
  V  V18  1  0.24836454  0.24396616  0.01435765  1
  V  V19  1  -0.00123123  -0.00274183  0.49940831  1
  V  V20  1  0.87824557  0.73779864  0.12982991  1
  V  V21  1  0.75176924  0.51279366  0.24786820  1
  V  V22  1  0.37694702  0.61522369  0.25369888  1
  V  V23  1  0.50973744  0.62600916  0.62038534  1
  V  V24  1  0.87311729  0.50135810  0.37048511  1
  V  V25  1  0.74863779  0.86795331  0.62003832  1
  V  V26  1  0.50017874  0.87927027  0.87537557  1
  V  V27  1  0.05360707  0.42685316  0.32080186  1
  V  V28  1  0.50279532  0.74868023  0.24596492  1
  V  V29  1  0.37313320  0.88019863  0.00790282  1
  V  V30  1  0.00078154  0.74978745  0.74583798  1
  V  V31  1  0.12850786  0.24202992  0.87919217  1
  V  V32  1  0.61708559  0.50935523  0.12183167  1
  V  V33  1  0.12310630  0.24919795  0.37048940  1
  V  V34  1  0.25263564  -0.00729150  0.25643730  1
  V  V35  1  0.24754024  0.75144665  0.48666638  1
  V  V36  1  0.12591536  0.87585870  0.74939762  1
  V  V37  1  0.74356349  0.12198526  0.87878151  1
  V  V38  1  0.23816534  0.38226750  0.63324427  1
  V  V39  1  0.50589368  0.50599799  0.49590889  1
  V  V40  1  0.49984370  0.75131595  0.75118783  1
  V  V41  1  0.37239677  0.61959748  0.74718142  1
  V  V42  1  0.12040564  0.62890316  0.48913726  1
  V  V43  1  0.74864129  0.37397568  0.12664083  1
  V  V44  1  -0.00097872  0.88333929  0.87843580  1
  V  V45  1  0.75107645  0.25089752  0.49896130  1
  V  V46  1  0.00934031  0.37290176  0.87551141  1
  V  V47  1  0.87530461  0.74659678  0.62187788  1
  V  V48  1  0.25294083  0.61102603  0.37276284  1
  V  V49  1  0.74614630  0.62780179  0.87726049  1
  V  V50  1  0.12536003  0.12374750  0.49881268  1
  V  V51  1  0.37419121  0.25457322  0.62619669  1
  V  V52  1  0.50941557  0.25554052  0.75068929  1
  V  V53  1  0.87616090  0.37075024  0.00095555  1
  V  V54  1  0.50553253  0.13232452  0.11933145  1
  V  V55  1  0.62541451  0.25284516  0.37195109  1
  V  V56  1  0.62537174  0.12537276  0.49741878  1
  V  V57  1  0.87343828  0.49783098  0.87697678  1
  V  V58  1  0.62466596  -0.00048083  0.62104976  1
  V  V59  1  0.37527498  0.75096846  0.62171190  1
  V  V60  1  0.25081360  0.87490624  0.62418186  1
  V  V61  1  0.37424202  0.12816940  0.75335668  1
  V  V62  1  0.12546764  0.75244265  0.87852505  1
  V  V63  1  0.87171795  0.86579123  0.49530482  1
  V  V64  1  0.87593747  0.23919894  0.13125516  1
  V  V65  1  0.37348568  0.38383098  0.49875435  1
  V  V66  1  0.87499164  0.24705563  0.62657419  1
  V  V67  1  0.05794235  0.56753182  0.66738921  1
  V  V68  1  0.50014061  0.37768974  0.87543385  1
  V  V69  1  -0.00079153  0.23561775  0.25532033  1
  V  V70  1  0.00701358  0.86858771  0.36888868  1
  V  V71  1  0.37168606  0.37364253  0.01181902  1
  V  V72  1  0.23225250  0.38807992  0.13682469  1
  V  V73  1  0.49994124  0.88173960  0.37191490  1
  V  V74  1  0.00671301  0.25142915  0.74999567  1
  V  V75  1  0.00544351  0.11735558  0.10947568  1
  V  V76  1  0.74550849  0.00150220  0.24587085  1
  V  V77  1  0.25041581  0.62481406  0.87852344  1
  V  V78  1  0.75281502  -0.00070016  0.74882701  1
  V  V79  1  0.87859358  0.87998041  0.00392499  1
  V  V80  1  0.62863681  0.74703406  0.38631484  1
  V  V81  1  0.24983058  0.25203698  0.49971092  1
  V  V82  1  0.00526739  0.73288233  0.24857210  1
  V  V83  1  0.51528385  0.00345037  0.00695551  1
  V  V84  1  0.74790060  0.62649684  0.39096919  1
  Zn  Zn85  1  0.75038688  0.74981889  0.00102729  1
  Zn  Zn86  1  0.61274257  0.63321391  0.00384970  1
  Zn  Zn87  1  0.37603175  0.00448417  0.88025781  1
  Zn  Zn88  1  0.24771685  0.12324389  0.88404387  1
  Zn  Zn89  1  0.23139867  0.50017102  0.74969675  1
  Zn  Zn90  1  0.48905326  0.50782969  0.00180146  1
  Zn  Zn91  1  0.74114643  0.36867678  0.63067626  1
  Zn  Zn92  1  0.12463546  0.87316398  0.24295073  1
  Zn  Zn93  1  0.62417100  0.75114156  0.87900388  1
  Zn  Zn94  1  0.62590019  0.87538831  0.24774779  1
  Zn  Zn95  1  -0.00022881  0.12327022  0.62601444  1
  Zn  Zn96  1  0.26322420  0.12203707  0.37586258  1
  Zn  Zn97  1  0.49236494  0.00825441  0.49082008  1
  Zn  Zn98  1  0.62308550  0.49359659  0.62507661  1
  Zn  Zn99  1  0.12363453  0.00068366  0.62476023  1
  Zn  Zn100  1  0.12554993  0.62536156  0.01246109  1
  Zn  Zn101  1  0.36885503  0.49586816  0.87578586  1
  Zn  Zn102  1  0.87665675  0.12419162  0.75242181  1
  Zn  Zn103  1  0.37731551  0.11823381  0.25263685  1
  Zn  Zn104  1  0.87717616  0.00341509  0.87993659  1
  Zn  Zn105  1  0.62521206  0.87462421  0.74946982  1
  Zn  Zn106  1  0.62334942  0.25089208  0.87895283  1
  Zn  Zn107  1  0.18732886  0.18033131  0.19035286  1
  Zn  Zn108  1  0.18601038  0.19005907  0.68665883  1
  Zn  Zn109  1  0.19199576  0.69047955  0.19150484  1
  Zn  Zn110  1  0.19254401  0.69288148  0.68634372  1
  Zn  Zn111  1  0.68167005  0.18444340  0.18676103  1
  Zn  Zn112  1  0.68864960  0.18477463  0.68824688  1
  Zn  Zn113  1  0.69012424  0.69111949  0.19093315  1
  Zn  Zn114  1  0.68760559  0.68685623  0.69049178  1
  Zn  Zn115  1  0.30895476  0.31534457  0.31345324  1
  Zn  Zn116  1  0.31293367  0.31397366  0.81559321  1
  Zn  Zn117  1  0.31421196  0.81566118  0.30843451  1
  Zn  Zn118  1  0.31600044  0.81272115  0.81690092  1
  Zn  Zn119  1  0.81540428  0.31636787  0.31083205  1
  Zn  Zn120  1  0.81506178  0.30767123  0.81661699  1
  Zn  Zn121  1  0.81452922  0.80925499  0.30899217  1
  Zn  Zn122  1  0.81406594  0.81318905  0.81139200  1
  Zn  Zn123  1  0.18762531  0.44113738  0.44688589  1
  Zn  Zn124  1  0.18882840  0.43479140  0.94209122  1
  Zn  Zn125  1  0.18615697  0.93689423  0.43410984  1
  Zn  Zn126  1  0.18935870  0.93760208  0.93763765  1
  Zn  Zn127  1  0.68764912  0.43782906  0.43973234  1
  Zn  Zn128  1  0.68490687  0.43522820  0.93910403  1
  Zn  Zn129  1  0.68701445  0.93625131  0.43506146  1
  Zn  Zn130  1  0.68949467  0.93340564  0.93708866  1
  Zn  Zn131  1  0.31934536  0.06453653  0.07211965  1
  Zn  Zn132  1  0.31051787  0.06480253  0.56473990  1
  Zn  Zn133  1  0.30856434  0.56234589  0.06769236  1
  Zn  Zn134  1  0.31294013  0.56206808  0.56208689  1
  Zn  Zn135  1  0.81506257  0.06162743  0.06305463  1
  Zn  Zn136  1  0.81320355  0.06047908  0.55824679  1
  Zn  Zn137  1  0.81120639  0.56031815  0.06125759  1
  Zn  Zn138  1  0.81284675  0.55849139  0.56611497  1
  Zn  Zn139  1  0.43425936  0.43628854  0.18651398  1
  Zn  Zn140  1  0.43805610  0.43827194  0.68604888  1
  Zn  Zn141  1  0.43838847  0.93728105  0.18434231  1
  Zn  Zn142  1  0.43645008  0.94045713  0.68522482  1
  Zn  Zn143  1  0.93050243  0.43218126  0.18611351  1
  Zn  Zn144  1  0.92875481  0.42810065  0.69124020  1
  Zn  Zn145  1  0.93789751  0.93811208  0.18537908  1
  Zn  Zn146  1  0.93568311  0.93485770  0.68560979  1
  Zn  Zn147  1  0.06899411  0.05994610  0.30988309  1
  Zn  Zn148  1  0.06329343  0.06503463  0.81150375  1
  Zn  Zn149  1  0.06786410  0.56006628  0.18378593  1
  Zn  Zn150  1  0.06070139  0.56446554  0.83532808  1
  Zn  Zn151  1  0.56442318  0.06522596  0.30825710  1
  Zn  Zn152  1  0.56437595  0.06273648  0.81228508  1
  Zn  Zn153  1  0.56316009  0.56575062  0.31167060  1
  Zn  Zn154  1  0.55835130  0.56398482  0.81799841  1
  Zn  Zn155  1  0.43575335  0.19255035  0.43407387  1
  Zn  Zn156  1  0.43397050  0.19056240  0.93965437  1
  Zn  Zn157  1  0.43726642  0.69187086  0.43396580  1
  Zn  Zn158  1  0.43654722  0.68721547  0.93753901  1
  Zn  Zn159  1  0.93916476  0.18564070  0.43645320  1
  Zn  Zn160  1  0.93186570  0.18645734  0.93668243  1
  Zn  Zn161  1  0.93822265  0.68336306  0.43077019  1
  Zn  Zn162  1  0.93346563  0.69150852  0.93706981  1
  Zn  Zn163  1  0.06423897  0.30941424  0.06558188  1
  Zn  Zn164  1  0.06064814  0.31240831  0.55994300  1
  Zn  Zn165  1  0.06071210  0.81208921  0.06588658  1
  Zn  Zn166  1  0.06312359  0.81067828  0.56155322  1
  Zn  Zn167  1  0.56028277  0.31793756  0.06341473  1
  Zn  Zn168  1  0.56356739  0.31587659  0.56207372  1
  Zn  Zn169  1  0.56380274  0.81210364  0.06223673  1
  Zn  Zn170  1  0.56003509  0.81511299  0.55985254  1
  O  O171  1  0.11226082  0.11556579  0.12661382  1
  O  O172  1  0.12271172  0.12486525  0.61162538  1
  O  O173  1  0.13279302  0.62484977  0.12403828  1
  O  O174  1  0.12565096  0.62773568  0.61506147  1
  O  O175  1  0.60696768  0.12101990  0.12882486  1
  O  O176  1  0.62113433  0.11972263  0.61764946  1
  O  O177  1  0.63333976  0.61207430  0.12568481  1
  O  O178  1  0.61209393  0.62296399  0.62914532  1
  O  O179  1  0.38286499  0.37196541  0.38459400  1
  O  O180  1  0.38130149  0.37569435  0.88618033  1
  O  O181  1  0.38628436  0.86976672  0.38236192  1
  O  O182  1  0.38717965  0.87705449  0.88521726  1
  O  O183  1  0.86843831  0.38771988  0.38519006  1
  O  O184  1  0.88220959  0.37423110  0.88810478  1
  O  O185  1  0.88038837  0.87989198  0.38053627  1
  O  O186  1  0.88311324  0.87409079  0.88254979  1
  O  O187  1  0.24447052  0.00236509  0.36144573  1
  O  O188  1  0.25279917  0.00285874  0.86366545  1
  O  O189  1  0.25242065  0.51250497  0.38199876  1
  O  O190  1  0.24656730  0.50883868  0.87061614  1
  O  O191  1  0.75787740  0.00699142  0.37047554  1
  O  O192  1  0.75059971  0.00357186  0.86621332  1
  O  O193  1  0.75324201  0.50673708  0.36930335  1
  O  O194  1  0.75371185  0.50353065  0.86863382  1
  O  O195  1  0.24576650  0.48752592  0.12516850  1
  O  O196  1  0.25059764  0.48725095  0.62698365  1
  O  O197  1  0.23785954  1.00535980  0.13189589  1
  O  O198  1  0.24920557  0.99383597  0.63605394  1
  O  O199  1  0.74551821  0.49479059  0.13235566  1
  O  O200  1  0.74921055  0.49885870  0.64249712  1
  O  O201  1  0.75949611  0.99244573  0.13552629  1
  O  O202  1  0.74597798  0.99138455  0.62853913  1
  O  O203  1  -0.00008998  0.36712564  0.25537879  1
  O  O204  1  -0.00744047  0.36526697  0.76398163  1
  O  O205  1  -0.00030311  0.87229580  0.25758801  1
  O  O206  1  0.00379318  0.86699191  0.75545916  1
  O  O207  1  0.50369111  0.37196579  0.25529041  1
  O  O208  1  0.49006871  0.36555970  0.76000369  1
  O  O209  1  0.50182467  0.86849564  0.25554761  1
  O  O210  1  0.49734879  0.86986903  0.75694527  1
  O  O211  1  0.50272569  0.13604701  0.24308945  1
  O  O212  1  0.49243396  0.13155160  0.74528768  1
  O  O213  1  0.48591447  0.63453873  0.25856990  1
  O  O214  1  0.49200966  0.63237625  0.74406133  1
  O  O215  1  1.00033848  0.13298438  0.24586925  1
  O  O216  1  0.99641600  0.13369416  0.74632803  1
  O  O217  1  1.00306425  0.63450602  0.25279965  1
  O  O218  1  0.99716942  0.62690395  0.74557162  1
  O  O219  1  0.36041026  0.26278549  -0.00306869  1
  O  O220  1  0.37091084  0.26199113  0.50705936  1
  O  O221  1  0.37038295  0.75589847  0.00799696  1
  O  O222  1  0.36833694  0.76039929  0.50363052  1
  O  O223  1  0.86756936  0.25500315  0.00952634  1
  O  O224  1  0.87324935  0.25664170  0.50451161  1
  O  O225  1  0.87425022  0.75797570  0.01178513  1
  O  O226  1  0.88203513  0.75908995  0.50263694  1
  O  O227  1  0.12623122  0.24378633  0.49088343  1
  O  O228  1  0.13936150  0.25330778  0.99414294  1
  O  O229  1  0.13499220  0.74186774  0.50427342  1
  O  O230  1  0.13338560  0.75174750  0.99694417  1
  O  O231  1  0.63087507  0.24548325  0.49150267  1
  O  O232  1  0.63901160  0.25455179  1.00496225  1
  O  O233  1  0.62156800  0.75147725  0.48543406  1
  O  O234  1  0.63183509  0.74873255  0.99788091  1
  O  O235  1  0.50426335  0.24244592  0.13122963  1
  O  O236  1  0.49344609  0.24630732  0.63166546  1
  O  O237  1  0.49431928  0.75320570  0.13658424  1
  O  O238  1  0.49454136  0.74557073  0.62934261  1
  O  O239  1  0.99573706  0.23929408  0.13152698  1
  O  O240  1  0.99364988  0.25084594  0.63314815  1
  O  O241  1  0.98836781  0.75111839  0.13506247  1
  O  O242  1  0.99331984  0.75513866  0.63800631  1
  O  O243  1  0.00623857  0.24797007  0.36743317  1
  O  O244  1  0.00495565  0.25413138  0.87139092  1
  O  O245  1  -0.00957121  0.75548992  0.35724225  1
  O  O246  1  0.00458620  0.75472623  0.86394510  1
  O  O247  1  0.50697386  0.26363972  0.36808216  1
  O  O248  1  0.50043453  0.25501755  0.86794905  1
  O  O249  1  0.51022322  0.75792699  0.36803425  1
  O  O250  1  0.49765717  0.75989812  0.86616905  1
  O  O251  1  0.24273371  0.13231293  0.49907506  1
  O  O252  1  0.26068603  0.14031686  1.00263329  1
  O  O253  1  0.24947124  0.63157839  0.49173051  1
  O  O254  1  0.25316747  0.63478977  0.99275419  1
  O  O255  1  0.74589654  0.13034367  0.48903292  1
  O  O256  1  0.75455879  0.13167008  0.99382178  1
  O  O257  1  0.74968409  0.61810195  0.49065428  1
  O  O258  1  0.75272250  0.62407698  0.98514963  1
  O  O259  1  0.25544139  0.36772319  0.01058864  1
  O  O260  1  0.25696999  0.37239960  0.50861805  1
  O  O261  1  0.26209639  0.86567897  -0.00855525  1
  O  O262  1  0.25463670  0.86978102  0.50140714  1
  O  O263  1  0.75796234  0.36822309  0.00591162  1
  O  O264  1  0.76043694  0.36866102  0.50081950  1
  O  O265  1  0.75936046  0.87307010  0.00690167  1
  O  O266  1  0.75987152  0.87918143  0.50750204  1
  O  O267  1  0.10768625  0.48897451  0.26666067  1
  O  O268  1  0.11306993  0.51595477  0.74231825  1
  O  O269  1  0.13528950  0.99765869  0.24059365  1
  O  O270  1  0.13312807  0.99514797  0.74737878  1
  O  O271  1  0.63110458  0.49750883  0.24120883  1
  O  O272  1  0.63735479  0.50354040  0.75326672  1
  O  O273  1  0.64165779  0.99599162  0.25635177  1
  O  O274  1  0.63543861  0.99933371  0.73962158  1
  O  O275  1  0.35677811  -0.00610966  0.24098181  1
  O  O276  1  0.36866550  0.01016485  0.75094053  1
  O  O277  1  0.38006636  0.51648247  0.24728378  1
  O  O278  1  0.37368911  0.51394230  0.74962141  1
  O  O279  1  0.86828382  -0.00349181  0.26262416  1
  O  O280  1  0.86292591  -0.00019508  0.74837224  1
  O  O281  1  0.86454191  0.49288172  0.25838823  1
  O  O282  1  0.86826791  0.50522128  0.75756845  1
  O  O283  1  0.12032367  0.37081738  0.37956081  1
  O  O284  1  0.11389848  0.36574458  0.88065743  1
  O  O285  1  0.10905767  0.87404390  0.37602203  1
  O  O286  1  0.11819999  0.87088270  0.86952730  1
  O  O287  1  0.61872619  0.37252343  0.36910947  1
  O  O288  1  0.60645400  0.37136912  0.88463194  1
  O  O289  1  0.62072853  0.86366277  0.37272704  1
  O  O290  1  0.61225629  0.87441195  0.87135695  1
  O  O291  1  0.39739913  0.12036060  0.13486375  1
  O  O292  1  0.37912139  0.13249498  0.63344826  1
  O  O293  1  0.36775765  0.63601262  0.13957595  1
  O  O294  1  0.37945211  0.63217629  0.63111930  1
  O  O295  1  0.88756331  0.13200653  0.12306580  1
  O  O296  1  0.87653542  0.13644870  0.62173455  1
  O  O297  1  0.86986833  0.63909552  0.12153786  1
  O  O298  1  0.86929315  0.62975441  0.63811265  1
  O  O299  1  0.24259267  0.25430229  0.11640311  1
  O  O300  1  0.25499646  0.25983839  0.62038702  1
  O  O301  1  0.25937166  0.75216356  0.11537960  1
  O  O302  1  0.25755113  0.75711079  0.61560009  1
  O  O303  1  0.75771623  0.24962337  0.12280031  1
  O  O304  1  0.75748534  0.24729360  0.61805268  1
  O  O305  1  0.76275351  0.75782364  0.12830783  1
  O  O306  1  0.75528279  0.76088400  0.63130226  1
  O  O307  1  0.24005884  0.25115925  0.38301540  1
  O  O308  1  0.24166741  0.25071290  0.88356672  1
  O  O309  1  0.25454791  0.74645954  0.38468645  1
  O  O310  1  0.24592085  0.74474954  0.88287760  1
  O  O311  1  0.74856261  0.24372404  0.37743847  1
  O  O312  1  0.74812709  0.24263861  0.88526581  1
  O  O313  1  0.73855840  0.74256819  0.36999664  1
  O  O314  1  0.74856704  0.74111014  0.87270688  1
  O  O315  1  -0.00065376  0.12773966  0.01088189  1
  O  O316  1  0.00644966  0.11426759  0.50064803  1
  O  O317  1  -0.00233408  0.60899359  -0.00786933  1
  O  O318  1  0.00814637  0.61725700  0.49603468  1
  O  O319  1  0.49623243  0.11598453  0.00720157  1
  O  O320  1  0.50658381  0.12732225  0.50565439  1
  O  O321  1  0.49982391  0.62009283  -0.00258849  1
  O  O322  1  0.48994530  0.61814482  0.50748846  1
  O  O323  1  0.49222882  0.38143288  0.49151684  1
  O  O324  1  0.48525158  0.37676377  0.99731856  1
  O  O325  1  0.49062436  0.87844580  0.49143611  1
  O  O326  1  0.49661905  0.88667793  0.99557491  1
  O  O327  1  0.98671786  0.38253939  0.50560710  1
  O  O328  1  0.99321433  0.37976753  0.99764083  1
  O  O329  1  0.99332460  0.87940255  0.49324237  1
  O  O330  1  0.99273867  0.86653788  0.98808612  1
  O  O331  1  0.50340150  0.49050181  0.37898447  1
  O  O332  1  0.49207183  0.49145852  0.87648431  1
  O  O333  1  0.50904940  0.98639078  0.37347965  1
  O  O334  1  0.49856524  0.99649048  0.88400747  1
  O  O335  1  0.99157746  0.48977527  0.38194535  1
  O  O336  1  0.99087786  0.48911264  0.88522894  1
  O  O337  1  0.99449318  0.99393955  0.38164102  1
  O  O338  1  0.99793791  0.98712983  0.86700455  1
  O  O339  1  0.00590415  0.01321256  0.12773544  1
  O  O340  1  -0.00019732  -0.00183321  0.61160398  1
  O  O341  1  -0.00647132  0.49844751  0.11498894  1
  O  O342  1  -0.00857358  0.49942072  0.61999473  1
  O  O343  1  0.50251638  0.00453707  0.11207544  1
  O  O344  1  0.50766878  0.00797928  0.62219859  1
  O  O345  1  0.51488442  0.49604011  0.12582575  1
  O  O346  1  0.49959834  0.50986040  0.61716114  1
  O  O347  1  0.25153370  0.37123635  0.23467104  1
  O  O348  1  0.25227763  0.37863770  0.73788026  1
  O  O349  1  0.24263817  0.88569057  0.25397149  1
  O  O350  1  0.24813400  0.88152400  0.74735985  1
  O  O351  1  0.74365962  0.38332651  0.24482179  1
  O  O352  1  0.75581758  0.38760938  0.75532258  1
  O  O353  1  0.75256115  0.88325277  0.24289821  1
  O  O354  1  0.74854792  0.88175609  0.74113763  1
  O  O355  1  0.25294287  0.11200267  0.25326292  1
  O  O356  1  0.25690674  0.11864736  0.74857991  1
  O  O357  1  0.26045884  0.63086666  0.26605795  1
  O  O358  1  0.25590602  0.62515994  0.75628319  1
  O  O359  1  0.74810194  0.12023270  0.26043973  1
  O  O360  1  0.75334604  0.11606196  0.75589913  1
  O  O361  1  0.74739367  0.61475494  0.25991488  1
  O  O362  1  0.75612430  0.61603877  0.75885358  1
  O  O363  1  0.37749604  0.12654034  0.36823517  1
  O  O364  1  0.37203421  0.12614502  0.86335233  1
  O  O365  1  0.36535264  0.62956198  0.36539773  1
  O  O366  1  0.36248851  0.62673843  0.86583020  1
  O  O367  1  0.86636774  0.11424458  0.38150246  1
  O  O368  1  0.86265238  0.12178552  0.87261375  1
  O  O369  1  0.86568241  0.60980195  0.37932410  1
  O  O370  1  0.87031208  0.62031224  0.86415189  1
  O  O371  1  0.13201749  0.37690727  0.12606674  1
  O  O372  1  0.13991329  0.37103645  0.62038756  1
  O  O373  1  0.11558934  0.89435132  0.12393561  1
  O  O374  1  0.13272754  0.87588796  0.63159501  1
  O  O375  1  0.63106270  0.38465148  0.13075084  1
  O  O376  1  0.62859303  0.37891475  0.62463770  1
  O  O377  1  0.64199187  0.87109878  0.12661249  1
  O  O378  1  0.63195752  0.88062725  0.62357556  1
  O  O379  1  0.11799369  0.24410361  0.26338365  1
  O  O380  1  0.11371962  0.24838250  0.75777925  1
  O  O381  1  0.10860442  0.75468953  0.24298241  1
  O  O382  1  0.11908808  0.75526821  0.75488576  1
  O  O383  1  0.61892129  0.25899424  0.25487770  1
  O  O384  1  0.61196406  0.24618320  0.75046006  1
  O  O385  1  0.61644594  0.75193249  0.25632449  1
  O  O386  1  0.60991003  0.75224558  0.74968907  1
  O  O387  1  0.38810254  0.25387181  0.25251485  1
  O  O388  1  0.37961291  0.24367818  0.74510034  1
  O  O389  1  0.38182681  0.74625831  0.24267179  1
  O  O390  1  0.38318312  0.74327425  0.74470448  1
  O  O391  1  0.88308311  0.25496247  0.23982568  1
  O  O392  1  0.88315004  0.24848175  0.74206868  1
  O  O393  1  0.88500907  0.75081200  0.23717290  1
  O  O394  1  0.88329674  0.74073031  0.74663161  1
  O  O395  1  0.38472451  0.48923951  0.50472202  1
  O  O396  1  0.36923572  0.48673595  0.99939905  1
  O  O397  1  0.37331388  0.98791649  0.50522580  1
  O  O398  1  0.38033932  0.99272981  1.00033425  1
  O  O399  1  0.88297792  0.49459632  0.49619000  1
  O  O400  1  0.88134791  0.49026443  0.99710483  1
  O  O401  1  0.88185557  0.98979479  0.49140108  1
  O  O402  1  0.87509594  0.98506964  0.99903867  1
  O  O403  1  0.13287224  0.00292829  0.01234309  1
  O  O404  1  0.11758572  0.00630790  0.50001652  1
  O  O405  1  0.10688474  0.50080399  -0.00633591  1
  O  O406  1  0.10970233  0.50784107  0.50055171  1
  O  O407  1  0.61323850  -0.00139062  -0.00294226  1
  O  O408  1  0.62476070  0.00742535  0.50567898  1
  O  O409  1  0.62716974  0.50084890  0.01582659  1
  O  O410  1  0.60996847  0.49863227  0.50048683  1
  O  O411  1  0.36930042  0.37473319  0.11462903  1
  O  O412  1  0.36860095  0.37085015  0.61840350  1
  O  O413  1  0.38090115  0.86329718  0.11383073  1
  O  O414  1  0.37057384  0.86993784  0.61752653  1
  O  O415  1  0.86921947  0.36349710  0.11616975  1
  O  O416  1  0.86712313  0.36197904  0.61823116  1
  O  O417  1  0.87009132  0.86828333  0.11907953  1
  O  O418  1  0.86757262  0.86798371  0.61604844  1
  O  O419  1  0.12588903  0.13200078  0.38588455  1
  O  O420  1  0.12724534  0.13722729  0.87435966  1
  O  O421  1  0.14255634  0.62721703  0.38704972  1
  O  O422  1  0.13606297  0.63475746  0.88325222  1
  O  O423  1  0.63289378  0.13185959  0.37901756  1
  O  O424  1  0.63857855  0.12869030  0.87122840  1
  O  O425  1  0.63091512  0.63834488  0.37302702  1
  O  O426  1  0.63363809  0.62826551  0.87580749  1
