# generated using pymatgen
data_V85Zn86O256
_symmetry_space_group_name_H-M   'P 1'
_cell_length_a   16.94061030
_cell_length_b   16.93551382
_cell_length_c   16.93632935
_cell_angle_alpha   89.95918558
_cell_angle_beta   89.92768977
_cell_angle_gamma   89.99193994
_symmetry_Int_Tables_number   1
_chemical_formula_structural   V85Zn86O256
_chemical_formula_sum   'V85 Zn86 O256'
_cell_volume   4858.99285298
_cell_formula_units_Z   1
loop_
 _symmetry_equiv_pos_site_id
 _symmetry_equiv_pos_as_xyz
  1  'x, y, z'
loop_
 _atom_site_type_symbol
 _atom_site_label
 _atom_site_symmetry_multiplicity
 _atom_site_fract_x
 _atom_site_fract_y
 _atom_site_fract_z
 _atom_site_occupancy
  V  V0  1  0.87738235  0.24023248  0.62528266  1
  V  V1  1  0.75806856  0.86589286  0.12946726  1
  V  V2  1  0.74513636  0.74458256  0.49914164  1
  V  V3  1  0.24939043  0.47965940  0.24642259  1
  V  V4  1  0.73709906  0.63449364  0.87618163  1
  V  V5  1  -0.00298448  0.49976301  0.00480444  1
  V  V6  1  0.12523414  0.86822838  0.25310916  1
  V  V7  1  0.12337395  0.62785348  0.49280098  1
  V  V8  1  0.24521788  0.25148294  0.00534949  1
  V  V9  1  0.00546420  0.37220599  0.35619604  1
  V  V10  1  0.63043434  0.50684934  0.13103390  1
  V  V11  1  0.25022966  0.87465768  0.12235528  1
  V  V12  1  0.49967103  0.00096631  0.50199069  1
  V  V13  1  0.00255021  0.01174288  -0.00021782  1
  V  V14  1  0.88059302  0.36915935  0.49734508  1
  V  V15  1  0.24941072  0.62549320  0.36671721  1
  V  V16  1  0.74794069  0.14027274  0.87297880  1
  V  V17  1  0.50176240  0.74647724  0.75453821  1
  V  V18  1  0.50149639  0.61923503  0.61551349  1
  V  V19  1  0.74741130  0.37129795  0.12896976  1
  V  V20  1  0.24635108  0.11824225  0.88346695  1
  V  V21  1  0.50343807  0.62618004  0.11497291  1
  V  V22  1  0.62969940  0.14134933  -0.00251430  1
  V  V23  1  0.62384086  0.87121182  0.74890993  1
  V  V24  1  0.25120233  0.74424332  -0.00816707  1
  V  V25  1  0.50220805  0.26285214  0.25304631  1
  V  V26  1  0.75386556  0.12559122  0.37443531  1
  V  V27  1  0.76276595  0.00510976  0.25092060  1
  V  V28  1  0.36146266  0.49485150  0.88090631  1
  V  V29  1  0.87911525  0.86586745  0.00971756  1
  V  V30  1  -0.00374806  0.37126545  0.87420210  1
  V  V31  1  0.24808351  0.88038727  0.62521798  1
  V  V32  1  0.25326724  0.37271558  0.62751929  1
  V  V33  1  0.37438604  0.74786131  0.62473830  1
  V  V34  1  0.49789235  0.25466869  0.77010851  1
  V  V35  1  0.37774877  0.12677802  0.24813147  1
  V  V36  1  0.12448418  0.00770212  0.12196345  1
  V  V37  1  0.87399395  0.62278021  0.74906019  1
  V  V38  1  0.62719369  0.87706682  0.25218545  1
  V  V39  1  0.75288325  0.37327448  0.62574029  1
  V  V40  1  0.50002507  0.74934127  0.24817960  1
  V  V41  1  0.75059971  0.87680340  0.62116243  1
  V  V42  1  0.50070189  0.87515431  0.87363990  1
  V  V43  1  0.74584104  0.61891767  0.37308116  1
  V  V44  1  0.49496159  0.13823609  0.62502884  1
  V  V45  1  0.37628622  0.75009705  0.12268600  1
  V  V46  1  0.12123156  0.11484264  0.50295248  1
  V  V47  1  0.50283432  0.12798979  0.12666110  1
  V  V48  1  0.12475448  0.49805199  0.62601928  1
  V  V49  1  -0.00453755  0.75257998  0.24649862  1
  V  V50  1  -0.00171191  0.24061668  0.74928474  1
  V  V51  1  0.37474276  0.12418191  0.75450690  1
  V  V52  1  0.37462878  0.88107629  -0.00579255  1
  V  V53  1  0.87521356  0.24042259  0.13703143  1
  V  V54  1  0.12311668  0.25159259  0.36584008  1
  V  V55  1  0.87136059  0.50062824  0.87545113  1
  V  V56  1  0.12586198  0.37275815  0.75626822  1
  V  V57  1  0.25101430  -0.00083129  0.24916836  1
  V  V58  1  0.63003794  0.00094891  0.12343809  1
  V  V59  1  0.50994970  0.49521553  -0.00979152  1
  V  V60  1  0.24857084  0.25120552  0.50500940  1
  V  V61  1  0.86625347  0.36221855  -0.00108548  1
  V  V62  1  0.62160027  0.49901616  0.61360988  1
  V  V63  1  0.50164757  0.00122320  -0.00638221  1
  V  V64  1  0.36682126  0.62500684  0.75845581  1
  V  V65  1  0.50189907  0.87434399  0.37599491  1
  V  V66  1  0.37927125  0.49310985  0.38620731  1
  V  V67  1  -0.00071443  0.62172858  0.62416662  1
  V  V68  1  0.37749071  -0.00117503  0.37454732  1
  V  V69  1  0.87244962  0.62521856  0.24100714  1
  V  V70  1  0.62195794  0.00385653  0.62543746  1
  V  V71  1  0.24734483  0.75069468  0.49529211  1
  V  V72  1  0.62361748  0.74453422  0.37857275  1
  V  V73  1  0.89150848  -0.00482189  0.38262320  1
  V  V74  1  0.12623036  0.62461283  -0.00612446  1
  V  V75  1  0.00136935  0.74821487  0.75367021  1
  V  V76  1  0.00137100  0.49745279  0.49676755  1
  V  V77  1  0.00162018  0.11045587  0.62381164  1
  V  V78  1  0.87357472  0.74826595  0.62212266  1
  V  V79  1  0.62215837  0.37142039  0.76194486  1
  V  V80  1  0.24987733  0.00090081  0.74938096  1
  V  V81  1  0.86292795  -0.00241507  0.87472313  1
  V  V82  1  0.87271898  0.49844748  0.36721907  1
  V  V83  1  0.00072150  0.87575036  0.87782079  1
  V  V84  1  0.74638281  0.49902960  0.74848305  1
  Zn  Zn85  1  0.38107339  0.36933173  0.00058816  1
  Zn  Zn86  1  0.89188812  0.87452215  0.49867206  1
  Zn  Zn87  1  0.13006868  0.75009779  0.87211459  1
  Zn  Zn88  1  0.12321186  0.88252522  0.74993186  1
  Zn  Zn89  1  0.74070148  0.74408542  0.00376085  1
  Zn  Zn90  1  0.12555463  0.49314796  0.13584317  1
  Zn  Zn91  1  0.75077313  0.00285790  0.75108430  1
  Zn  Zn92  1  0.24292714  0.50545681  0.75835165  1
  Zn  Zn93  1  0.75451892  0.24563734  0.49922886  1
  Zn  Zn94  1  0.37481584  0.62151052  0.24768997  1
  Zn  Zn95  1  0.36947444  0.26261297  0.12889593  1
  Zn  Zn96  1  -0.00324969  0.62927879  0.12072729  1
  Zn  Zn97  1  0.24970332  0.12641135  0.37753394  1
  Zn  Zn98  1  0.50556492  0.38187990  0.39874126  1
  Zn  Zn99  1  0.37546077  0.87469990  0.50148117  1
  Zn  Zn100  1  0.41194287  0.31957350  0.55624852  1
  Zn  Zn101  1  0.62543590  0.25314383  0.37721940  1
  Zn  Zn102  1  0.05380413  0.81939384  0.41161333  1
  Zn  Zn103  1  -0.00076118  0.13024609  0.14055893  1
  Zn  Zn104  1  0.62618481  0.12756597  0.49963710  1
  Zn  Zn105  1  0.63014911  0.38078219  0.25638772  1
  Zn  Zn106  1  0.12120934  0.24129734  0.88049640  1
  Zn  Zn107  1  0.18897344  0.18549475  0.18853740  1
  Zn  Zn108  1  0.18498841  0.18613713  0.68766749  1
  Zn  Zn109  1  0.18125953  0.68542174  0.17785127  1
  Zn  Zn110  1  0.18611153  0.68851649  0.68411901  1
  Zn  Zn111  1  0.69051440  0.19087930  0.18893052  1
  Zn  Zn112  1  0.68508906  0.18885403  0.69088541  1
  Zn  Zn113  1  0.68632100  0.68557014  0.19224711  1
  Zn  Zn114  1  0.68438675  0.68505141  0.68706253  1
  Zn  Zn115  1  0.31521805  0.31103092  0.31970704  1
  Zn  Zn116  1  0.31268821  0.30986886  0.81881570  1
  Zn  Zn117  1  0.31249477  0.81157190  0.31153606  1
  Zn  Zn118  1  0.31620520  0.81572673  0.81243494  1
  Zn  Zn119  1  0.81265314  0.31384212  0.30815276  1
  Zn  Zn120  1  0.81414239  0.31153359  0.80732270  1
  Zn  Zn121  1  0.81652905  0.81246581  0.31436906  1
  Zn  Zn122  1  0.81496667  0.81493826  0.81022568  1
  Zn  Zn123  1  0.19045217  0.43580072  0.43667813  1
  Zn  Zn124  1  0.16796214  0.41717724  0.97178228  1
  Zn  Zn125  1  0.19242737  0.94018131  0.43745091  1
  Zn  Zn126  1  0.18623910  0.93944280  0.93554134  1
  Zn  Zn127  1  0.69105676  0.43363367  0.43695734  1
  Zn  Zn128  1  0.68813046  0.44022709  0.94116489  1
  Zn  Zn129  1  0.69039259  0.93863988  0.43863101  1
  Zn  Zn130  1  0.68021627  0.91008388  0.94716601  1
  Zn  Zn131  1  0.31527428  0.06386170  0.06379794  1
  Zn  Zn132  1  0.31319074  0.06696409  0.56434623  1
  Zn  Zn133  1  0.31384599  0.56073994  0.06320327  1
  Zn  Zn134  1  0.30893242  0.56249880  0.56625698  1
  Zn  Zn135  1  0.81181810  0.05984516  0.05605139  1
  Zn  Zn136  1  0.81513176  0.05965505  0.55871146  1
  Zn  Zn137  1  0.80724559  0.56216237  0.05727509  1
  Zn  Zn138  1  0.81047420  0.55924165  0.55696324  1
  Zn  Zn139  1  0.43223925  0.44216456  0.18528293  1
  Zn  Zn140  1  0.43855964  0.44045003  0.69666082  1
  Zn  Zn141  1  0.44054444  0.93785372  0.18388064  1
  Zn  Zn142  1  0.43270848  0.94022462  0.68829732  1
  Zn  Zn143  1  0.93151455  0.43558594  0.18393761  1
  Zn  Zn144  1  0.93827182  0.43318360  0.68728280  1
  Zn  Zn145  1  0.94301700  0.94047895  0.19117933  1
  Zn  Zn146  1  0.93264191  0.93473940  0.69169670  1
  Zn  Zn147  1  0.06458302  0.06573422  0.30856430  1
  Zn  Zn148  1  0.06405499  0.05987199  0.81095816  1
  Zn  Zn149  1  0.06257603  0.56340505  0.30906096  1
  Zn  Zn150  1  0.06220605  0.56176918  0.81908117  1
  Zn  Zn151  1  0.56732280  0.06593492  0.31193393  1
  Zn  Zn152  1  0.56611643  0.06491693  0.81255737  1
  Zn  Zn153  1  0.55779312  0.56425720  0.31132394  1
  Zn  Zn154  1  0.56092683  0.56119217  0.80672773  1
  Zn  Zn155  1  0.43917311  0.18641614  0.43413035  1
  Zn  Zn156  1  0.43211621  0.18265663  0.93905283  1
  Zn  Zn157  1  0.43218150  0.68435608  0.43635455  1
  Zn  Zn158  1  0.43842210  0.68569619  0.93568616  1
  Zn  Zn159  1  0.94218952  0.18096798  0.42686566  1
  Zn  Zn160  1  0.93209669  0.18417284  0.93676132  1
  Zn  Zn161  1  0.93262015  0.68591901  0.43370035  1
  Zn  Zn162  1  0.93277730  0.68727327  0.93769633  1
  Zn  Zn163  1  0.05953343  0.31081495  0.06619805  1
  Zn  Zn164  1  0.06558241  0.30748069  0.56198547  1
  Zn  Zn165  1  0.06423106  0.81288853  0.06672007  1
  Zn  Zn166  1  0.06552859  0.81134291  0.57632378  1
  Zn  Zn167  1  0.55761077  0.31821797  0.06895994  1
  Zn  Zn168  1  0.57854733  0.31402723  0.56146343  1
  Zn  Zn169  1  0.56775871  0.81236720  0.06076509  1
  Zn  Zn170  1  0.56149223  0.80999559  0.56382576  1
  O  O171  1  0.12385804  0.11097144  0.12884617  1
  O  O172  1  0.11648324  0.12736246  0.61257710  1
  O  O173  1  0.11975184  0.61472779  0.10924199  1
  O  O174  1  0.11931124  0.61908179  0.61437666  1
  O  O175  1  0.62537459  0.11972181  0.11455594  1
  O  O176  1  0.61581014  0.11833798  0.62578606  1
  O  O177  1  0.62092080  0.61624575  0.12584384  1
  O  O178  1  0.61012748  0.61587111  0.63092879  1
  O  O179  1  0.37694791  0.38888618  0.37792788  1
  O  O180  1  0.37655605  0.39157546  0.87567481  1
  O  O181  1  0.38154495  0.88586127  0.37406979  1
  O  O182  1  0.38291798  0.87429820  0.88738611  1
  O  O183  1  0.88287141  0.37874156  0.37840167  1
  O  O184  1  0.87385947  0.38173836  0.87971654  1
  O  O185  1  0.87001132  0.88985295  0.37874408  1
  O  O186  1  0.88373002  0.87948616  0.88301615  1
  O  O187  1  0.26246973  0.00266348  0.36842361  1
  O  O188  1  0.25154981  0.01011905  0.86998940  1
  O  O189  1  0.25551800  0.50576206  0.36572775  1
  O  O190  1  0.26121213  0.49806175  0.88010339  1
  O  O191  1  0.75145928  0.00764432  0.36712659  1
  O  O192  1  0.75618607  -0.00882944  0.87915714  1
  O  O193  1  0.76050718  0.50709417  0.37944233  1
  O  O194  1  0.75765959  0.50854496  0.87056336  1
  O  O195  1  0.25337456  0.50662676  0.14513164  1
  O  O196  1  0.24016825  0.49333090  0.63119379  1
  O  O197  1  0.24485762  0.99442583  0.12828230  1
  O  O198  1  0.25799965  0.99027483  0.63237597  1
  O  O199  1  0.73429014  0.49770474  0.11996769  1
  O  O200  1  0.74530602  0.49578630  0.63021427  1
  O  O201  1  0.74687430  0.99717310  0.13426401  1
  O  O202  1  0.74359041  0.99312783  0.62653387  1
  O  O203  1  0.00103332  0.37925849  0.25704726  1
  O  O204  1  0.00770767  0.36657015  0.75462722  1
  O  O205  1  0.00827087  0.86307703  0.25016087  1
  O  O206  1  0.00039990  0.86637931  0.75815266  1
  O  O207  1  0.49890700  0.36613793  0.24883525  1
  O  O208  1  0.50533179  0.36202308  0.74983352  1
  O  O209  1  0.50645866  0.87014684  0.25524292  1
  O  O210  1  0.50317936  0.86765834  0.75066369  1
  O  O211  1  0.49556627  0.13100087  0.24609896  1
  O  O212  1  0.49567914  0.13479449  0.74710086  1
  O  O213  1  0.49818322  0.63390748  0.23653043  1
  O  O214  1  0.49020604  0.63189092  0.74416883  1
  O  O215  1  0.99315108  0.12432374  0.25143924  1
  O  O216  1  1.00661246  0.13294041  0.74168780  1
  O  O217  1  0.99191500  0.63081682  0.24411013  1
  O  O218  1  0.99337375  0.62919596  0.74668577  1
  O  O219  1  0.36527779  0.24578519  0.00356779  1
  O  O220  1  0.35651725  0.24040355  0.49668401  1
  O  O221  1  0.37033791  0.75643340  0.00409749  1
  O  O222  1  0.36666591  0.75051290  0.50743433  1
  O  O223  1  0.87078545  0.26066817  -0.00181419  1
  O  O224  1  0.87779489  0.25466301  0.50412428  1
  O  O225  1  0.86717746  0.76342162  -0.00297933  1
  O  O226  1  0.86319450  0.75079058  0.50426278  1
  O  O227  1  0.13374108  0.24205566  0.49378993  1
  O  O228  1  0.13951605  0.24675655  0.99768787  1
  O  O229  1  0.13201459  0.74166878  0.49993962  1
  O  O230  1  0.13406379  0.74450792  1.00115773  1
  O  O231  1  0.63770994  0.24461541  0.49628596  1
  O  O232  1  0.62057551  0.23891368  1.00507403  1
  O  O233  1  0.63675582  0.75234131  0.49587693  1
  O  O234  1  0.64481977  0.80010295  0.98350849  1
  O  O235  1  0.49835298  0.24279625  0.13469149  1
  O  O236  1  0.49704856  0.24133136  0.62431899  1
  O  O237  1  0.49945545  0.74583607  0.12553840  1
  O  O238  1  0.49415268  0.74084955  0.63305730  1
  O  O239  1  0.98071673  0.24680485  0.11431485  1
  O  O240  1  0.99488693  0.24200732  0.63132599  1
  O  O241  1  1.00042355  0.74730677  0.13901872  1
  O  O242  1  0.99400614  0.73990539  0.63439922  1
  O  O243  1  0.01365582  0.25859472  0.37967195  1
  O  O244  1  -0.00233255  0.25044763  0.86700032  1
  O  O245  1  0.00157204  0.73738919  0.35607732  1
  O  O246  1  -0.00367506  0.75826717  0.86833971  1
  O  O247  1  0.50144324  0.25384148  0.36653685  1
  O  O248  1  0.50181714  0.24571027  0.86816374  1
  O  O249  1  0.50354546  0.75325806  0.37108833  1
  O  O250  1  0.49573665  0.75623225  0.86187295  1
  O  O251  1  0.23880097  0.13104464  0.50168736  1
  O  O252  1  0.25556886  0.12665868  0.98762980  1
  O  O253  1  0.24197627  0.63151674  0.49339237  1
  O  O254  1  0.24134669  0.63317204  1.00386678  1
  O  O255  1  0.74969732  0.12222334  0.48673139  1
  O  O256  1  0.73557872  0.12128671  0.99073442  1
  O  O257  1  0.75442290  0.63272051  0.48660250  1
  O  O258  1  0.75137035  0.62912157  0.98236044  1
  O  O259  1  0.26033121  0.35238111  -0.01425805  1
  O  O260  1  0.24400530  0.36649409  0.51396143  1
  O  O261  1  0.25784757  0.87198776  0.00328593  1
  O  O262  1  0.25190067  0.86791714  0.50634790  1
  O  O263  1  0.75743855  0.38355027  0.01239914  1
  O  O264  1  0.76704088  0.37280705  0.50525914  1
  O  O265  1  0.76884187  0.88963754  0.01882961  1
  O  O266  1  0.74841648  0.86774427  0.51229127  1
  O  O267  1  0.14293803  0.50225269  0.25253936  1
  O  O268  1  0.12321225  0.49187613  0.74792930  1
  O  O269  1  0.13422229  0.99227739  0.24524041  1
  O  O270  1  0.14272458  0.99961775  0.75233760  1
  O  O271  1  0.61732579  0.49990883  0.23404945  1
  O  O272  1  0.62933717  0.49215480  0.74224596  1
  O  O273  1  0.63259989  0.99705748  0.24015094  1
  O  O274  1  0.62432037  0.99435612  0.73698894  1
  O  O275  1  0.37305952  0.00417032  0.25472517  1
  O  O276  1  0.36481062  0.01016106  0.75035536  1
  O  O277  1  0.36273174  0.50310585  0.25995272  1
  O  O278  1  0.37247023  0.50776457  0.76519573  1
  O  O279  1  0.86595105  -0.00566474  0.26024972  1
  O  O280  1  0.87031612  -0.00642692  0.76925324  1
  O  O281  1  0.87987984  0.50682522  0.26090056  1
  O  O282  1  0.86798494  0.50076313  0.75562186  1
  O  O283  1  0.11755182  0.36222417  0.38041950  1
  O  O284  1  0.11456876  0.37026429  0.87065753  1
  O  O285  1  0.13737355  0.87550764  0.35915570  1
  O  O286  1  0.11239416  0.87177848  0.87302947  1
  O  O287  1  0.62177078  0.37412000  0.37244142  1
  O  O288  1  0.63356536  0.38010137  0.86095577  1
  O  O289  1  0.62154199  0.86826208  0.37134348  1
  O  O290  1  0.61649358  0.88615177  0.85290767  1
  O  O291  1  0.38310785  0.12306414  0.13805397  1
  O  O292  1  0.38440313  0.12150908  0.63916939  1
  O  O293  1  0.38454534  0.63321033  0.12534459  1
  O  O294  1  0.38331881  0.62689442  0.63295000  1
  O  O295  1  0.86901845  0.13845822  0.11784926  1
  O  O296  1  0.88251429  0.13400823  0.61823737  1
  O  O297  1  0.86863370  0.61836158  0.13793237  1
  O  O298  1  0.87900160  0.62762797  0.62868851  1
  O  O299  1  0.25222089  0.23834773  0.10932091  1
  O  O300  1  0.24301275  0.25948491  0.61899461  1
  O  O301  1  0.25565616  0.75592771  0.11431186  1
  O  O302  1  0.25576218  0.75297324  0.61436137  1
  O  O303  1  0.76042435  0.25831328  0.12531512  1
  O  O304  1  0.76109984  0.25255151  0.62725413  1
  O  O305  1  0.74436276  0.76286763  0.12599373  1
  O  O306  1  0.75246280  0.75304538  0.61823166  1
  O  O307  1  0.23945157  0.24936688  0.38376810  1
  O  O308  1  0.24879481  0.23432948  0.88162171  1
  O  O309  1  0.25763436  0.74285339  0.38797083  1
  O  O310  1  0.25067341  0.75693335  0.88793953  1
  O  O311  1  0.75739213  0.23447770  0.37188618  1
  O  O312  1  0.75233903  0.23878697  0.87226006  1
  O  O313  1  0.74494724  0.74427462  0.38219986  1
  O  O314  1  0.75452017  0.73550401  0.86700269  1
  O  O315  1  -0.00282393  0.11336933  0.00169624  1
  O  O316  1  0.01307040  0.12865779  0.50734106  1
  O  O317  1  0.00032691  0.61884351  0.00107709  1
  O  O318  1  0.00577533  0.62032881  0.50244522  1
  O  O319  1  0.51127670  0.11854856  0.00367797  1
  O  O320  1  0.50046271  0.11924800  0.50883218  1
  O  O321  1  0.50008163  0.61989972  0.00928372  1
  O  O322  1  0.49623608  0.63046118  0.51716443  1
  O  O323  1  0.49769407  0.37300705  0.51222894  1
  O  O324  1  0.50238108  0.39175813  0.99822573  1
  O  O325  1  0.49779358  0.88044994  0.49414697  1
  O  O326  1  0.49269487  0.88316435  0.99615204  1
  O  O327  1  0.99203336  0.37790535  0.49732637  1
  O  O328  1  0.98524837  0.38194329  0.99039361  1
  O  O329  1  1.00473824  0.86261302  0.50000144  1
  O  O330  1  0.99522935  0.87896972  0.99500289  1
  O  O331  1  0.48395603  0.50188278  0.37274312  1
  O  O332  1  0.49818976  0.50850189  0.88858406  1
  O  O333  1  0.49674839  0.99577001  0.37960141  1
  O  O334  1  0.50615760  0.99646501  0.88727922  1
  O  O335  1  0.99554270  0.49157487  0.37851575  1
  O  O336  1  0.98398429  0.49400007  0.87698585  1
  O  O337  1  0.98982094  0.99819125  0.37327951  1
  O  O338  1  0.99497446  0.99365445  0.88110633  1
  O  O339  1  0.00729431  0.00098226  0.11674429  1
  O  O340  1  -0.00719373  0.01131825  0.63287089  1
  O  O341  1  -0.00481649  0.50151289  0.11214189  1
  O  O342  1  0.00386000  0.50374173  0.61883313  1
  O  O343  1  0.51138893  0.00711086  0.11942674  1
  O  O344  1  0.50518894  0.00680387  0.62161787  1
  O  O345  1  0.50819586  0.50927806  0.11541148  1
  O  O346  1  0.50527665  0.51169165  0.63186606  1
  O  O347  1  0.25170765  0.38107603  0.25083632  1
  O  O348  1  0.23666254  0.37256140  0.74961458  1
  O  O349  1  0.24645407  0.87777529  0.24134257  1
  O  O350  1  0.25280810  0.88322573  0.74453600  1
  O  O351  1  0.75061732  0.37805400  0.23552581  1
  O  O352  1  0.74568304  0.37989070  0.74365076  1
  O  O353  1  0.74716277  0.88235469  0.24595939  1
  O  O354  1  0.74194627  0.87324570  0.73731258  1
  O  O355  1  0.26097664  0.11803578  0.25316261  1
  O  O356  1  0.25691609  0.12119690  0.75510337  1
  O  O357  1  0.24788780  0.63621945  0.26266120  1
  O  O358  1  0.26210793  0.62530718  0.74410580  1
  O  O359  1  0.74717288  0.11538275  0.25991157  1
  O  O360  1  0.73939197  0.12042898  0.76894729  1
  O  O361  1  0.75853493  0.63148258  0.26379225  1
  O  O362  1  0.75533286  0.61841499  0.75445216  1
  O  O363  1  0.37773343  0.11349404  0.36423978  1
  O  O364  1  0.36418258  0.12446288  0.86331886  1
  O  O365  1  0.36497172  0.61721212  0.37099409  1
  O  O366  1  0.37817019  0.61510108  0.86711168  1
  O  O367  1  0.86522322  0.10907848  0.37906666  1
  O  O368  1  0.85431043  0.11390497  0.88481047  1
  O  O369  1  0.86806579  0.61495125  0.36687452  1
  O  O370  1  0.86939454  0.61663971  0.86670684  1
  O  O371  1  0.12798419  0.39512813  0.08143082  1
  O  O372  1  0.12868805  0.37931671  0.63588862  1
  O  O373  1  0.13068319  0.88369300  0.13484922  1
  O  O374  1  0.14356471  0.86860474  0.63373389  1
  O  O375  1  0.63116350  0.38697630  0.12703316  1
  O  O376  1  0.63586370  0.38237221  0.63556612  1
  O  O377  1  0.63368993  0.88527067  0.13489166  1
  O  O378  1  0.62867022  0.88196433  0.63103369  1
  O  O379  1  0.13167929  0.24591337  0.26665698  1
  O  O380  1  0.11512272  0.25646020  0.75311054  1
  O  O381  1  0.11538897  0.75745159  0.24353479  1
  O  O382  1  0.11165559  0.74806429  0.75070748  1
  O  O383  1  0.61594524  0.25346036  0.25242186  1
  O  O384  1  0.60822301  0.25712581  0.74548453  1
  O  O385  1  0.61857694  0.75705506  0.25724957  1
  O  O386  1  0.61372431  0.75877208  0.74122539  1
  O  O387  1  0.38104680  0.24129139  0.25130409  1
  O  O388  1  0.38953438  0.24407298  0.75565402  1
  O  O389  1  0.38366612  0.75169576  0.24063199  1
  O  O390  1  0.38029680  0.74311395  0.74467922  1
  O  O391  1  0.87608214  0.25057418  0.23553166  1
  O  O392  1  0.88772592  0.25403937  0.73888526  1
  O  O393  1  0.88522325  0.74156642  0.25283023  1
  O  O394  1  0.88462301  0.74538421  0.74315780  1
  O  O395  1  0.36523266  0.50537201  0.48460284  1
  O  O396  1  0.38536472  0.50378012  0.98946008  1
  O  O397  1  0.38018637  1.00037222  0.49036259  1
  O  O398  1  0.38857836  0.99252824  1.00794543  1
  O  O399  1  0.88244709  0.49226326  0.48924600  1
  O  O400  1  0.87876294  0.49536157  0.99132513  1
  O  O401  1  0.87563726  0.99361993  0.48719847  1
  O  O402  1  0.88530809  0.99127769  0.99218679  1
  O  O403  1  0.11475292  -0.00837021  0.00965988  1
  O  O404  1  0.12952309  0.01592357  0.49475233  1
  O  O405  1  0.10489988  0.51239562  -0.02101161  1
  O  O406  1  0.12008224  0.50573152  0.50457986  1
  O  O407  1  0.61955964  -0.00153121  0.01220132  1
  O  O408  1  0.61994274  0.00014632  0.51213805  1
  O  O409  1  0.61433625  0.50188693  0.00828123  1
  O  O410  1  0.63241575  0.49678534  0.51473631  1
  O  O411  1  0.37981725  0.37486945  0.11546747  1
  O  O412  1  0.35782222  0.38007516  0.63823714  1
  O  O413  1  0.37267316  0.86989147  0.11408481  1
  O  O414  1  0.36649471  0.86549195  0.62473979  1
  O  O415  1  0.86707986  0.36762929  0.11656622  1
  O  O416  1  0.87395568  0.36489439  0.61645995  1
  O  O417  1  0.87093019  0.87810749  0.12237068  1
  O  O418  1  0.86588005  0.86727445  0.62344003  1
  O  O419  1  0.12631472  0.13481338  0.38599475  1
  O  O420  1  0.14186310  0.12335749  0.87089143  1
  O  O421  1  0.13249060  0.61839418  0.38659409  1
  O  O422  1  0.11910957  0.63433552  0.88667288  1
  O  O423  1  0.64015440  0.12524727  0.37770420  1
  O  O424  1  0.63465700  0.12150566  0.88883662  1
  O  O425  1  0.63251949  0.63206688  0.36904155  1
  O  O426  1  0.63900814  0.62339730  0.86548910  1
