# generated using pymatgen
data_V85Zn86O256
_symmetry_space_group_name_H-M   'P 1'
_cell_length_a   16.92761924
_cell_length_b   16.91825200
_cell_length_c   16.92146934
_cell_angle_alpha   90.06044962
_cell_angle_beta   89.96199973
_cell_angle_gamma   89.97112249
_symmetry_Int_Tables_number   1
_chemical_formula_structural   V85Zn86O256
_chemical_formula_sum   'V85 Zn86 O256'
_cell_volume   4846.06293827
_cell_formula_units_Z   1
loop_
 _symmetry_equiv_pos_site_id
 _symmetry_equiv_pos_as_xyz
  1  'x, y, z'
loop_
 _atom_site_type_symbol
 _atom_site_label
 _atom_site_symmetry_multiplicity
 _atom_site_fract_x
 _atom_site_fract_y
 _atom_site_fract_z
 _atom_site_occupancy
  V  V0  1  0.50068869  0.75152569  0.74998234  1
  V  V1  1  0.86791408  0.25350148  0.12692129  1
  V  V2  1  0.12470700  0.62363050  0.50663731  1
  V  V3  1  0.00224417  -0.00130206  0.50195784  1
  V  V4  1  0.00074545  0.25149380  0.25447663  1
  V  V5  1  0.75567222  0.62996165  0.87169980  1
  V  V6  1  0.42945293  0.82499796  0.44018659  1
  V  V7  1  -0.00164962  0.74920302  0.24924356  1
  V  V8  1  0.11948369  0.87655871  0.75791830  1
  V  V9  1  0.87722283  0.50549793  0.87136706  1
  V  V10  1  0.00124471  0.12808223  0.12379235  1
  V  V11  1  0.37497446  0.75715876  0.62550765  1
  V  V12  1  0.49912003  0.49872104  0.00059611  1
  V  V13  1  -0.01014085  0.24828643  0.74381315  1
  V  V14  1  0.62450423  0.86376838  0.25604169  1
  V  V15  1  0.62490102  0.12393093  -0.00374403  1
  V  V16  1  0.13003608  0.38436254  0.25205964  1
  V  V17  1  0.62614166  0.62401496  -0.00020017  1
  V  V18  1  0.88356857  0.01551419  0.87376541  1
  V  V19  1  0.74760140  0.25161772  0.50400018  1
  V  V20  1  0.62644633  0.75030053  0.87558281  1
  V  V21  1  0.13038832  0.13416361  0.00242849  1
  V  V22  1  0.37097287  0.61321465  0.24685464  1
  V  V23  1  0.87293156  0.37529122  0.50402922  1
  V  V24  1  0.63298416  -0.00559441  0.62162387  1
  V  V25  1  0.86942169  0.87400177  0.50729856  1
  V  V26  1  0.86564425  0.75022156  0.63340465  1
  V  V27  1  0.38107514  0.00307388  0.37030886  1
  V  V28  1  0.49675482  0.12929477  0.62264837  1
  V  V29  1  0.75241413  0.00598739  0.76308684  1
  V  V30  1  0.74952796  0.75991900  0.00699890  1
  V  V31  1  -0.00420769  0.62719511  0.63248529  1
  V  V32  1  0.24592381  0.75644026  0.49780126  1
  V  V33  1  0.00179302  0.50480268  0.00472208  1
  V  V34  1  0.12627947  0.38234024  0.74562891  1
  V  V35  1  -0.00091785  0.37510695  0.37684051  1
  V  V36  1  0.62428970  0.37468292  0.74729676  1
  V  V37  1  0.86803276  0.50524347  0.37588545  1
  V  V38  1  0.24661037  0.37018710  0.61675702  1
  V  V39  1  0.37160091  0.49617811  0.38627274  1
  V  V40  1  0.49915416  0.62159262  0.62465557  1
  V  V41  1  0.86710107  0.37800768  0.00501658  1
  V  V42  1  0.37800534  0.35373597  0.50490511  1
  V  V43  1  0.49929081  0.12502879  0.13864162  1
  V  V44  1  0.25096734  0.87175795  0.11944657  1
  V  V45  1  0.12800920  0.00383545  0.12511315  1
  V  V46  1  0.00204414  0.50208611  0.50649659  1
  V  V47  1  0.49911680  0.37317417  0.87126111  1
  V  V48  1  0.37043507  0.36130127  -0.00237568  1
  V  V49  1  0.63313799  0.24577926  0.87140134  1
  V  V50  1  0.75227631  0.50385314  0.75066608  1
  V  V51  1  0.37338182  0.87030519  -0.00146876  1
  V  V52  1  0.50008647  0.37769179  0.37152514  1
  V  V53  1  0.74840220  0.74586359  0.48717317  1
  V  V54  1  0.49435795  -0.00156737  0.49962563  1
  V  V55  1  0.37327238  0.13384715  0.74465983  1
  V  V56  1  0.12317048  0.87632068  0.25005076  1
  V  V57  1  0.62060544  0.24805452  0.37095649  1
  V  V58  1  0.75121684  0.37472443  0.62573831  1
  V  V59  1  0.00127642  0.37633095  0.87640857  1
  V  V60  1  0.74674401  0.49690299  0.25072512  1
  V  V61  1  0.24406140  0.61780563  0.37007927  1
  V  V62  1  0.13867665  0.75021105  0.87750898  1
  V  V63  1  0.25190951  0.00040945  0.75024307  1
  V  V64  1  0.25677934  0.00711306  0.24860452  1
  V  V65  1  0.87376633  -0.00179515  0.37542770  1
  V  V66  1  0.86837373  0.62537816  0.24699517  1
  V  V67  1  0.63163242  0.49383623  0.12274032  1
  V  V68  1  0.74928097  0.12225314  0.37487000  1
  V  V69  1  -0.00494765  0.75202957  0.75998017  1
  V  V70  1  0.62221896  0.50153711  0.62088485  1
  V  V71  1  0.12624765  0.24909840  0.38294934  1
  V  V72  1  0.88245432  0.87800734  -0.00242081  1
  V  V73  1  0.25390776  0.12935849  0.87986070  1
  V  V74  1  0.25330973  0.12792007  0.38098274  1
  V  V75  1  0.12988444  0.25414582  0.87522527  1
  V  V76  1  0.37496651  0.74591868  0.12436192  1
  V  V77  1  0.50179663  0.87712535  0.87598478  1
  V  V78  1  0.12377897  0.00175809  0.62647386  1
  V  V79  1  0.36664251  0.50576020  0.87195805  1
  V  V80  1  0.25045952  0.37621794  0.12501246  1
  V  V81  1  0.13861712  0.62995682  -0.00192953  1
  V  V82  1  0.62828938  0.62336589  0.48910153  1
  V  V83  1  0.62431487  0.36289277  0.24204162  1
  V  V84  1  0.37555771  0.24565081  0.14375143  1
  Zn  Zn85  1  0.49963839  0.00064396  0.00293712  1
  Zn  Zn86  1  0.63609976  0.87310812  0.74703144  1
  Zn  Zn87  1  0.49968904  0.74878153  0.26187935  1
  Zn  Zn88  1  0.00630811  -0.00159623  -0.00522867  1
  Zn  Zn89  1  0.12205067  0.74968905  0.37518147  1
  Zn  Zn90  1  0.00045533  0.62911122  0.12387124  1
  Zn  Zn91  1  -0.01612499  0.12036144  0.63648965  1
  Zn  Zn92  1  0.49810181  0.25145525  0.74248069  1
  Zn  Zn93  1  0.63384258  -0.01249130  0.12239953  1
  Zn  Zn94  1  0.25233556  0.87778311  0.62175429  1
  Zn  Zn95  1  0.24130019  0.50655094  0.74219887  1
  Zn  Zn96  1  0.13190702  0.50686009  0.13032198  1
  Zn  Zn97  1  0.50192826  0.62366383  0.12979569  1
  Zn  Zn98  1  0.87867632  0.12113735  0.25129870  1
  Zn  Zn99  1  0.12991423  0.13075409  0.50779032  1
  Zn  Zn100  1  0.62216064  0.12332155  0.49802372  1
  Zn  Zn101  1  0.36413172  0.62965319  0.75446718  1
  Zn  Zn102  1  0.75345882  -0.01756467  0.24122648  1
  Zn  Zn103  1  -0.00087174  0.87360507  0.37582417  1
  Zn  Zn104  1  0.86743506  0.76737169  0.13281973  1
  Zn  Zn105  1  0.74893615  0.25011204  -0.00030908  1
  Zn  Zn106  1  0.37681797  0.00126100  0.87550578  1
  Zn  Zn107  1  0.19133644  0.19400104  0.19227889  1
  Zn  Zn108  1  0.18549486  0.19158339  0.68853835  1
  Zn  Zn109  1  0.18802589  0.68810660  0.18548664  1
  Zn  Zn110  1  0.18611422  0.68837389  0.68814484  1
  Zn  Zn111  1  0.70336494  0.15329149  0.17301633  1
  Zn  Zn112  1  0.68661647  0.18250987  0.68527523  1
  Zn  Zn113  1  0.68528732  0.68701302  0.18925898  1
  Zn  Zn114  1  0.68747176  0.68630931  0.68779632  1
  Zn  Zn115  1  0.30892907  0.31340176  0.31477064  1
  Zn  Zn116  1  0.31000254  0.31554257  0.80787268  1
  Zn  Zn117  1  0.30520828  0.80530479  0.30227679  1
  Zn  Zn118  1  0.31288787  0.81495947  0.80999125  1
  Zn  Zn119  1  0.80980462  0.31393370  0.31371187  1
  Zn  Zn120  1  0.81306064  0.31733672  0.81499418  1
  Zn  Zn121  1  0.80819449  0.81399328  0.31478362  1
  Zn  Zn122  1  0.81390238  0.82377469  0.81574295  1
  Zn  Zn123  1  0.18771495  0.43768049  0.44270784  1
  Zn  Zn124  1  0.18874384  0.43828023  0.94221164  1
  Zn  Zn125  1  0.18944923  0.93902922  0.43454440  1
  Zn  Zn126  1  0.18742623  0.94087139  0.93699655  1
  Zn  Zn127  1  0.68508441  0.43913249  0.43491566  1
  Zn  Zn128  1  0.68811277  0.43583695  0.93499220  1
  Zn  Zn129  1  0.68577939  0.93157851  0.43581414  1
  Zn  Zn130  1  0.68799676  0.93969286  0.93759695  1
  Zn  Zn131  1  0.31848572  0.06249283  0.06139763  1
  Zn  Zn132  1  0.31472010  0.06116209  0.56049889  1
  Zn  Zn133  1  0.31295413  0.55531466  0.06119299  1
  Zn  Zn134  1  0.30866119  0.56334269  0.56820585  1
  Zn  Zn135  1  0.81212089  0.06394813  0.05765752  1
  Zn  Zn136  1  0.81042549  0.06457694  0.56684583  1
  Zn  Zn137  1  0.81107916  0.56596538  0.06309843  1
  Zn  Zn138  1  0.81281522  0.56557599  0.56539087  1
  Zn  Zn139  1  0.43901549  0.43497424  0.18779902  1
  Zn  Zn140  1  0.43353454  0.43686003  0.68388087  1
  Zn  Zn141  1  0.44620962  0.93380009  0.19021879  1
  Zn  Zn142  1  0.43888909  0.93962797  0.68734064  1
  Zn  Zn143  1  0.93914826  0.43833793  0.18761409  1
  Zn  Zn144  1  0.93842648  0.43657342  0.68796504  1
  Zn  Zn145  1  0.93715034  0.93946120  0.18355862  1
  Zn  Zn146  1  0.93446858  0.93519535  0.69176530  1
  Zn  Zn147  1  0.06257682  0.06348467  0.31586045  1
  Zn  Zn148  1  0.06333153  0.06794987  0.81299569  1
  Zn  Zn149  1  0.05709870  0.56385068  0.31661202  1
  Zn  Zn150  1  0.06366187  0.56775641  0.81649907  1
  Zn  Zn151  1  0.56760378  0.05299931  0.30934062  1
  Zn  Zn152  1  0.56318120  0.06200130  0.80802532  1
  Zn  Zn153  1  0.55683471  0.55719795  0.30882125  1
  Zn  Zn154  1  0.56107829  0.56273384  0.81070366  1
  Zn  Zn155  1  0.44144204  0.18299051  0.42811038  1
  Zn  Zn156  1  0.44382591  0.18591160  0.93546994  1
  Zn  Zn157  1  0.43511487  0.65934209  0.44294840  1
  Zn  Zn158  1  0.43617201  0.68829115  0.94051918  1
  Zn  Zn159  1  0.91950196  0.17011620  0.47578112  1
  Zn  Zn160  1  0.94182054  0.19181795  0.93921152  1
  Zn  Zn161  1  0.93500919  0.68783099  0.43613237  1
  Zn  Zn162  1  0.93923639  0.69047047  0.93990490  1
  Zn  Zn163  1  0.06178536  0.31525446  0.06376903  1
  Zn  Zn164  1  0.06274441  0.31517444  0.56557141  1
  Zn  Zn165  1  0.06024656  0.81085685  0.06300154  1
  Zn  Zn166  1  0.06066078  0.81399686  0.56871912  1
  Zn  Zn167  1  0.55844123  0.30718924  0.06149696  1
  Zn  Zn168  1  0.56097816  0.31378057  0.55787271  1
  Zn  Zn169  1  0.56139385  0.81317392  0.06824138  1
  Zn  Zn170  1  0.57139669  0.80832707  0.56486964  1
  O  O171  1  0.12397659  0.12768521  0.11920561  1
  O  O172  1  0.12369788  0.11274747  0.62713905  1
  O  O173  1  0.12278061  0.62568574  0.11366929  1
  O  O174  1  0.11285440  0.63268463  0.61301601  1
  O  O175  1  0.60597011  0.13644893  0.11472357  1
  O  O176  1  0.61602467  0.11047167  0.62102840  1
  O  O177  1  0.62250012  0.61371398  0.11707686  1
  O  O178  1  0.61908290  0.61811288  0.62172078  1
  O  O179  1  0.37741985  0.37742135  0.38403947  1
  O  O180  1  0.38108731  0.37977626  0.87951814  1
  O  O181  1  0.36913019  0.87770312  0.37515648  1
  O  O182  1  0.38194506  0.87436437  0.88170619  1
  O  O183  1  0.87979860  0.38754256  0.37945629  1
  O  O184  1  0.88155454  0.38467204  0.88495440  1
  O  O185  1  0.87363869  0.88350201  0.38631776  1
  O  O186  1  0.87195193  0.89102623  0.89062963  1
  O  O187  1  0.25990764  0.00445171  0.36810322  1
  O  O188  1  0.25011545  0.01027769  0.86485161  1
  O  O189  1  0.25390038  0.50948210  0.37897327  1
  O  O190  1  0.26534830  0.49372607  0.87392191  1
  O  O191  1  0.75625497  0.00723327  0.37652083  1
  O  O192  1  0.75586409  0.00740844  0.86759391  1
  O  O193  1  0.75773930  0.49793716  0.36661366  1
  O  O194  1  0.75751724  0.50791724  0.87174109  1
  O  O195  1  0.24985752  0.48315172  0.12459605  1
  O  O196  1  0.26016655  0.48029531  0.62736855  1
  O  O197  1  0.24784231  0.99652003  0.13167042  1
  O  O198  1  0.24364183  0.99959941  0.63387740  1
  O  O199  1  0.73779554  0.49999147  0.12841534  1
  O  O200  1  0.74427987  0.49784567  0.63309755  1
  O  O201  1  0.73981622  1.04015541  0.14081547  1
  O  O202  1  0.73472970  0.99668502  0.61626475  1
  O  O203  1  0.00670497  0.36989349  0.25603065  1
  O  O204  1  0.00640649  0.36941781  0.75608419  1
  O  O205  1  0.00697967  0.87001271  0.24927211  1
  O  O206  1  0.00885692  0.86656155  0.74801134  1
  O  O207  1  0.51054892  0.37658264  0.25834350  1
  O  O208  1  0.50433384  0.37316863  0.75449774  1
  O  O209  1  0.51121378  0.86495780  0.25054842  1
  O  O210  1  0.49963722  0.86429499  0.75694096  1
  O  O211  1  0.50575288  0.12538387  0.23737469  1
  O  O212  1  0.49039472  0.12391455  0.74063219  1
  O  O213  1  0.48814118  0.62792476  0.24972799  1
  O  O214  1  0.49833998  0.63657715  0.74271478  1
  O  O215  1  0.99986101  0.13457420  0.24505147  1
  O  O216  1  1.00237066  0.14247051  0.75080457  1
  O  O217  1  0.99267345  0.63268401  0.24809620  1
  O  O218  1  1.00608398  0.63361389  0.74048717  1
  O  O219  1  0.37851996  0.26017101  -0.00115326  1
  O  O220  1  0.37577948  0.25584360  0.49438088  1
  O  O221  1  0.37358210  0.76094345  0.00528119  1
  O  O222  1  0.37183236  0.75447923  0.50091707  1
  O  O223  1  0.87620144  0.26022473  0.00792916  1
  O  O224  1  0.86262435  0.27024100  0.48489872  1
  O  O225  1  0.86991862  0.76452561  -0.00094745  1
  O  O226  1  0.86658954  0.75352914  0.50680106  1
  O  O227  1  0.11884921  0.25089696  0.48738409  1
  O  O228  1  0.12240747  0.24202702  0.99286999  1
  O  O229  1  0.12964563  0.74465409  0.49870955  1
  O  O230  1  0.12100668  0.73971774  0.99340102  1
  O  O231  1  0.63095368  0.24970092  0.48953407  1
  O  O232  1  0.62434064  0.24666304  0.98868188  1
  O  O233  1  0.64028753  0.74126287  0.50387811  1
  O  O234  1  0.63188314  0.74607690  0.99460479  1
  O  O235  1  0.48347512  0.24190768  0.12171118  1
  O  O236  1  0.50786529  0.23380993  0.62261652  1
  O  O237  1  0.48368337  0.74255866  0.11990621  1
  O  O238  1  0.49620112  0.74611238  0.63243339  1
  O  O239  1  0.99786401  0.24321971  0.13344046  1
  O  O240  1  1.00460974  0.25164586  0.64094016  1
  O  O241  1  0.99220464  0.75171207  0.13769353  1
  O  O242  1  0.99104321  0.74460839  0.63491199  1
  O  O243  1  0.00580312  0.25720999  0.36784762  1
  O  O244  1  0.01151121  0.25604798  0.86910799  1
  O  O245  1  -0.00023495  0.75325179  0.36334420  1
  O  O246  1  0.00705091  0.74500098  0.86305063  1
  O  O247  1  0.51316722  0.25744028  0.37611412  1
  O  O248  1  0.50733508  0.26310624  0.87166060  1
  O  O249  1  0.48029252  0.75525143  0.38661102  1
  O  O250  1  0.50374628  0.75656780  0.86906879  1
  O  O251  1  0.24623879  0.11689553  0.48638620  1
  O  O252  1  0.24700795  0.12227191  0.98790368  1
  O  O253  1  0.24140911  0.63272825  0.49649611  1
  O  O254  1  0.23726109  0.62103854  1.00241618  1
  O  O255  1  0.74462735  0.13463465  0.49006778  1
  O  O256  1  0.73070556  0.13169311  1.00284431  1
  O  O257  1  0.74294033  0.63556312  0.50559469  1
  O  O258  1  0.74506534  0.63050552  0.98879232  1
  O  O259  1  0.25920604  0.37514334  0.00865194  1
  O  O260  1  0.26173921  0.37419463  0.50702617  1
  O  O261  1  0.25471833  0.88111663  0.01231290  1
  O  O262  1  0.24477019  0.86123928  0.50009958  1
  O  O263  1  0.76341440  0.37447040  -0.00239199  1
  O  O264  1  0.75396531  0.37216263  0.50451755  1
  O  O265  1  0.75759916  0.86712499  -0.00463045  1
  O  O266  1  0.75599933  0.85906281  0.49866155  1
  O  O267  1  0.11590445  0.48852279  0.24997395  1
  O  O268  1  0.12049350  0.48622706  0.75813866  1
  O  O269  1  0.13122295  0.99392850  0.24465776  1
  O  O270  1  0.13019361  0.99609704  0.74748410  1
  O  O271  1  0.62978677  0.49261332  0.24161380  1
  O  O272  1  0.63028107  0.49579294  0.74136157  1
  O  O273  1  0.62957724  0.98520924  0.24513095  1
  O  O274  1  0.63575641  0.99953292  0.74054839  1
  O  O275  1  0.36715975  -0.00824956  0.25746816  1
  O  O276  1  0.36584437  0.00791913  0.75165065  1
  O  O277  1  0.37748367  0.50801845  0.25785427  1
  O  O278  1  0.37908859  0.50013050  0.76564462  1
  O  O279  1  0.87286848  0.00005342  0.26087281  1
  O  O280  1  0.86893874  -0.00091487  0.76515229  1
  O  O281  1  0.86787202  0.50338050  0.25531516  1
  O  O282  1  0.87259336  0.49569924  0.76489389  1
  O  O283  1  0.12156264  0.37008892  0.37077730  1
  O  O284  1  0.12222866  0.36979788  0.87187101  1
  O  O285  1  0.12608734  0.87396200  0.36011382  1
  O  O286  1  0.12800825  0.87028846  0.86630688  1
  O  O287  1  0.61630673  0.37034202  0.36889973  1
  O  O288  1  0.61757596  0.37120691  0.86717663  1
  O  O289  1  0.62675981  0.87488853  0.35820400  1
  O  O290  1  0.61801462  0.86873185  0.87254709  1
  O  O291  1  0.38246428  0.13752160  0.12319331  1
  O  O292  1  0.38252617  0.11962003  0.63251626  1
  O  O293  1  0.37196540  0.62730580  0.13036773  1
  O  O294  1  0.38425371  0.63759138  0.62139568  1
  O  O295  1  0.88756465  0.13472344  0.12494449  1
  O  O296  1  0.88628249  0.14111387  0.58478022  1
  O  O297  1  0.87787386  0.62325815  0.13842872  1
  O  O298  1  0.88610884  0.63516803  0.62308727  1
  O  O299  1  0.26598920  0.25693547  0.12924684  1
  O  O300  1  0.24891196  0.26879380  0.63182806  1
  O  O301  1  0.26103675  0.76030547  0.12999645  1
  O  O302  1  0.25866945  0.75126851  0.61492066  1
  O  O303  1  0.76563817  0.24446418  0.12655666  1
  O  O304  1  0.74074796  0.25585440  0.61090717  1
  O  O305  1  0.75377172  0.73868879  0.10946488  1
  O  O306  1  0.76265070  0.74531049  0.62309828  1
  O  O307  1  0.24027167  0.23908993  0.36839174  1
  O  O308  1  0.23843424  0.24446144  0.86898342  1
  O  O309  1  0.24775283  0.73781085  0.38125717  1
  O  O310  1  0.23815317  0.75226493  0.87039380  1
  O  O311  1  0.73957231  0.24922273  0.38429236  1
  O  O312  1  0.73678645  0.25641334  0.87518219  1
  O  O313  1  0.75768714  0.74083139  0.38914736  1
  O  O314  1  0.74771316  0.74547458  0.88095439  1
  O  O315  1  0.01160276  0.12622541  0.00878114  1
  O  O316  1  0.01373531  0.10521197  0.49450047  1
  O  O317  1  0.00539326  0.61891557  0.00326052  1
  O  O318  1  0.00458178  0.62074226  0.50577986  1
  O  O319  1  0.50785556  0.12223315  0.00489643  1
  O  O320  1  0.50015856  0.11468287  0.50427482  1
  O  O321  1  0.50609738  0.61129173  -0.00214979  1
  O  O322  1  0.51321706  0.62929595  0.51662587  1
  O  O323  1  0.48506069  0.37159989  0.49200735  1
  O  O324  1  0.49377922  0.38275452  0.99183854  1
  O  O325  1  0.49841428  0.87600466  0.49871868  1
  O  O326  1  0.49262957  0.87416890  0.99148466  1
  O  O327  1  0.99160462  0.38301057  0.49955545  1
  O  O328  1  0.99562433  0.38410211  0.99412909  1
  O  O329  1  0.99339281  0.88181554  0.49924638  1
  O  O330  1  0.98870703  0.87929461  1.00194205  1
  O  O331  1  0.48929545  0.48565987  0.37313201  1
  O  O332  1  0.49623930  0.48946673  0.88001874  1
  O  O333  1  0.48914870  1.00357355  0.38094641  1
  O  O334  1  0.49958154  0.98609714  0.87189710  1
  O  O335  1  0.99194047  0.49519854  0.38780855  1
  O  O336  1  0.99344408  0.49903656  0.88518912  1
  O  O337  1  0.99283617  0.99487538  0.38182021  1
  O  O338  1  0.98850248  1.00634800  0.87565736  1
  O  O339  1  0.00886399  0.01515893  0.12637192  1
  O  O340  1  0.00524479  0.00123906  0.62162940  1
  O  O341  1  0.00442198  0.50040470  0.11330615  1
  O  O342  1  -0.00849721  0.50976663  0.61448702  1
  O  O343  1  0.49584470  0.01637528  0.12402750  1
  O  O344  1  0.50476164  0.00651290  0.61744139  1
  O  O345  1  0.50705999  0.49946816  0.11533128  1
  O  O346  1  0.50822832  0.50995773  0.63227764  1
  O  O347  1  0.23942833  0.37080074  0.24348738  1
  O  O348  1  0.24227221  0.38068081  0.74127701  1
  O  O349  1  0.24284642  0.88298029  0.23913730  1
  O  O350  1  0.24359413  0.88605388  0.74774347  1
  O  O351  1  0.74096774  0.38730597  0.25296124  1
  O  O352  1  0.74449599  0.38209877  0.74479899  1
  O  O353  1  0.73803706  0.86774348  0.24647294  1
  O  O354  1  0.75152345  0.89653173  0.74955838  1
  O  O355  1  0.24417036  0.11184307  0.25771237  1
  O  O356  1  0.25414565  0.12082246  0.75738122  1
  O  O357  1  0.25432812  0.62675892  0.25961775  1
  O  O358  1  0.25172287  0.61871093  0.74277583  1
  O  O359  1  0.76150369  0.13732933  0.27088949  1
  O  O360  1  0.75514353  0.10331239  0.73205712  1
  O  O361  1  0.75565276  0.61107554  0.24635842  1
  O  O362  1  0.74657187  0.62098845  0.76405056  1
  O  O363  1  0.36739028  0.11525513  0.37316034  1
  O  O364  1  0.36863799  0.12415203  0.86886582  1
  O  O365  1  0.36447322  0.61410513  0.36821870  1
  O  O366  1  0.38107490  0.60919027  0.87619964  1
  O  O367  1  0.86983323  0.11126245  0.38320348  1
  O  O368  1  0.87532183  0.11456251  0.88448955  1
  O  O369  1  0.88098394  0.61259693  0.36393921  1
  O  O370  1  0.86745082  0.61752166  0.88219928  1
  O  O371  1  0.13377822  0.37331793  0.13364353  1
  O  O372  1  0.13554542  0.37707393  0.63001311  1
  O  O373  1  0.13156605  0.87961681  0.13110897  1
  O  O374  1  0.12700346  0.88530068  0.63771208  1
  O  O375  1  0.61812244  0.37969453  0.13084011  1
  O  O376  1  0.62842420  0.38274499  0.62757956  1
  O  O377  1  0.62286493  0.87420349  0.13752814  1
  O  O378  1  0.61598167  0.89048799  0.63004325  1
  O  O379  1  0.11580641  0.25879328  0.25849699  1
  O  O380  1  0.11823831  0.26250682  0.75807587  1
  O  O381  1  0.11672322  0.75773014  0.24949150  1
  O  O382  1  0.11856146  0.75899001  0.75648780  1
  O  O383  1  0.63484893  0.26081906  0.25523127  1
  O  O384  1  0.62325466  0.25445444  0.75398445  1
  O  O385  1  0.61868396  0.75432560  0.24991458  1
  O  O386  1  0.61848189  0.75277630  0.75538065  1
  O  O387  1  0.37773007  0.25268112  0.24207537  1
  O  O388  1  0.37721048  0.23800960  0.75363948  1
  O  O389  1  0.37600245  0.73677546  0.24181859  1
  O  O390  1  0.38209332  0.74843148  0.74272404  1
  O  O391  1  0.88691019  0.25422204  0.24554059  1
  O  O392  1  0.89128960  0.25861262  0.75675933  1
  O  O393  1  0.87797105  0.74256524  0.25059677  1
  O  O394  1  0.88165906  0.75957000  0.74541888  1
  O  O395  1  0.37358191  0.50107711  0.48832885  1
  O  O396  1  0.38245695  0.49110811  0.98983659  1
  O  O397  1  0.38614821  0.99517078  0.49227690  1
  O  O398  1  0.37739535  0.98590440  0.99677217  1
  O  O399  1  0.87692731  0.49543228  0.49325395  1
  O  O400  1  0.88117964  0.49625579  0.99552823  1
  O  O401  1  0.88048796  0.98952574  0.49697177  1
  O  O402  1  0.87712053  0.99693830  0.99065964  1
  O  O403  1  0.12583957  0.01338585  0.00641427  1
  O  O404  1  0.11931918  -0.00689933  0.51092471  1
  O  O405  1  0.11860218  0.51217132  -0.00029457  1
  O  O406  1  0.11368176  0.50905209  0.49816597  1
  O  O407  1  0.62154320  0.00736904  0.00349467  1
  O  O408  1  0.61375308  -0.00346460  0.50619923  1
  O  O409  1  0.61910333  0.49974218  0.00485709  1
  O  O410  1  0.63248187  0.50608076  0.51399248  1
  O  O411  1  0.37203670  0.36451012  0.11927083  1
  O  O412  1  0.37226575  0.37112991  0.61024415  1
  O  O413  1  0.36988500  0.86757300  0.11964763  1
  O  O414  1  0.37460349  0.86248801  0.62744747  1
  O  O415  1  0.88371093  0.36682260  0.11626440  1
  O  O416  1  0.86626453  0.38163156  0.61470919  1
  O  O417  1  0.87124873  0.88369810  0.10701646  1
  O  O418  1  0.87914274  0.86652591  0.61438673  1
  O  O419  1  0.13327223  0.13347597  0.37560094  1
  O  O420  1  0.13290360  0.13362350  0.88210006  1
  O  O421  1  0.12898451  0.62609401  0.38527005  1
  O  O422  1  0.12357519  0.63395028  0.88926771  1
  O  O423  1  0.63041441  0.13118871  0.37435849  1
  O  O424  1  0.61511721  0.13576053  0.88005470  1
  O  O425  1  0.61628442  0.61254977  0.39049432  1
  O  O426  1  0.63107260  0.62999528  0.88014553  1
