# generated using pymatgen
data_V85Zn86O256
_symmetry_space_group_name_H-M   'P 1'
_cell_length_a   16.92404619
_cell_length_b   16.94451155
_cell_length_c   16.93810252
_cell_angle_alpha   89.95240941
_cell_angle_beta   89.97694179
_cell_angle_gamma   90.00660399
_symmetry_Int_Tables_number   1
_chemical_formula_structural   V85Zn86O256
_chemical_formula_sum   'V85 Zn86 O256'
_cell_volume   4857.33240996
_cell_formula_units_Z   1
loop_
 _symmetry_equiv_pos_site_id
 _symmetry_equiv_pos_as_xyz
  1  'x, y, z'
loop_
 _atom_site_type_symbol
 _atom_site_label
 _atom_site_symmetry_multiplicity
 _atom_site_fract_x
 _atom_site_fract_y
 _atom_site_fract_z
 _atom_site_occupancy
  V  V0  1  0.24418088  0.75152912  0.49260417  1
  V  V1  1  0.25314085  0.37536253  0.62236926  1
  V  V2  1  -0.00192716  0.62115976  0.62096997  1
  V  V3  1  0.62037685  0.62604086  -0.01015521  1
  V  V4  1  0.48648180  0.49199676  -0.00586461  1
  V  V5  1  0.49957920  0.50166196  0.49897502  1
  V  V6  1  0.12799904  0.13067203  -0.00172365  1
  V  V7  1  0.87331395  0.62065693  0.24590930  1
  V  V8  1  0.79478587  0.43793842  0.18744601  1
  V  V9  1  0.12715214  0.12498023  0.49864499  1
  V  V10  1  -0.00108645  0.12197791  0.11845608  1
  V  V11  1  0.12259857  0.62318178  -0.00202300  1
  V  V12  1  0.49955288  0.37622452  0.37417804  1
  V  V13  1  0.74438822  0.75275618  -0.00633485  1
  V  V14  1  0.37637345  0.75290663  0.62087442  1
  V  V15  1  -0.00062456  0.48852524  -0.00612612  1
  V  V16  1  0.26072818  0.12557651  0.37088120  1
  V  V17  1  0.74369397  -0.00027728  0.74708291  1
  V  V18  1  0.25732983  0.87895340  0.62189550  1
  V  V19  1  0.62573021  0.12577691  0.00557484  1
  V  V20  1  0.87602422  0.12416373  0.75047456  1
  V  V21  1  0.49324536  0.23860512  0.25265459  1
  V  V22  1  0.25706305  0.75149347  0.00300826  1
  V  V23  1  0.73851230  0.87677696  0.62397971  1
  V  V24  1  0.25500054  0.00026178  0.24866457  1
  V  V25  1  0.62100925  0.49944016  0.12690885  1
  V  V26  1  0.88009663  0.37621543  0.50274659  1
  V  V27  1  0.50491246  0.12049902  0.62550646  1
  V  V28  1  0.75158028  -0.00993416  0.25256007  1
  V  V29  1  0.74671736  0.87332075  0.12722135  1
  V  V30  1  0.61853248  0.87334796  0.76630078  1
  V  V31  1  0.62376283  -0.00306558  0.13125281  1
  V  V32  1  0.74850299  0.62236720  0.36689826  1
  V  V33  1  0.50542596  0.87086414  0.38352077  1
  V  V34  1  0.62296991  0.50052907  0.62673090  1
  V  V35  1  0.37023937  0.24487619  0.11977383  1
  V  V36  1  0.74726522  0.62711315  0.87443614  1
  V  V37  1  0.11263460  0.87435948  0.25908651  1
  V  V38  1  0.00048242  0.75120637  0.75040340  1
  V  V39  1  0.13143388  0.87802148  0.74947723  1
  V  V40  1  0.00108696  0.25495494  0.75974962  1
  V  V41  1  0.86972134  0.75385995  0.62854630  1
  V  V42  1  0.62570986  0.62865165  0.49656933  1
  V  V43  1  0.61940370  0.37550323  0.75081420  1
  V  V44  1  0.00195405  0.12550159  0.62584632  1
  V  V45  1  0.86903306  0.49400549  0.37721254  1
  V  V46  1  0.87982551  0.00107410  0.88025609  1
  V  V47  1  0.12264576  0.37970608  0.75857711  1
  V  V48  1  0.87763526  0.48661060  0.87692476  1
  V  V49  1  0.12792697  0.25053528  0.36981312  1
  V  V50  1  0.00237153  -0.00805351  0.49794969  1
  V  V51  1  0.74797383  0.37446470  0.62438367  1
  V  V52  1  0.00152860  0.24958192  0.24698592  1
  V  V53  1  0.25577914  0.11907597  0.87740752  1
  V  V54  1  0.87647314  0.24997402  0.62506644  1
  V  V55  1  0.62395752  0.37310159  0.24535216  1
  V  V56  1  0.37711966  -0.00811192  0.38206260  1
  V  V57  1  0.49656616  -0.00394939  -0.01069477  1
  V  V58  1  0.12530541  -0.00231437  0.11335099  1
  V  V59  1  0.00144637  0.63151880  0.12606281  1
  V  V60  1  0.37294045  0.63400959  0.25083909  1
  V  V61  1  0.12287379  0.50140616  0.61709517  1
  V  V62  1  0.62031488  0.25421945  0.87676370  1
  V  V63  1  0.37157633  0.50477714  0.37252842  1
  V  V64  1  0.36706001  0.11022362  0.74424153  1
  V  V65  1  0.50642829  0.75909288  0.24482210  1
  V  V66  1  0.49348071  0.62779896  0.62793136  1
  V  V67  1  0.00556895  0.88107301  0.88363170  1
  V  V68  1  0.87283796  0.62430795  0.75234934  1
  V  V69  1  0.25749208  0.86966801  0.12633496  1
  V  V70  1  0.48720838  0.24972555  0.74658939  1
  V  V71  1  0.49735457  0.74866290  0.76457568  1
  V  V72  1  0.13079463  0.00135209  0.62890884  1
  V  V73  1  0.74582641  0.49960792  0.75256960  1
  V  V74  1  0.74929358  0.12624457  0.87576561  1
  V  V75  1  0.12873828  0.49456288  0.12678511  1
  V  V76  1  0.49581326  0.62984218  0.12516386  1
  V  V77  1  0.12684379  0.74814027  0.87463092  1
  V  V78  1  0.74860803  0.12313671  0.37578236  1
  V  V79  1  0.25704360  0.25075991  0.50198790  1
  V  V80  1  0.00536048  0.37500634  0.37725006  1
  V  V81  1  0.75364089  0.26404794  0.00801322  1
  V  V82  1  0.26049518  0.50893354  0.75224960  1
  V  V83  1  0.88143884  -0.00298902  0.37459517  1
  V  V84  1  0.87685046  0.75081286  0.12380693  1
  Zn  Zn85  1  0.25932810  0.62637985  0.87124455  1
  Zn  Zn86  1  0.11726855  0.62662664  0.49061340  1
  Zn  Zn87  1  0.62846876  0.12035352  0.50641076  1
  Zn  Zn88  1  0.25663074  0.37254839  0.12587826  1
  Zn  Zn89  1  0.37746596  0.37337411  0.50087124  1
  Zn  Zn90  1  0.49543972  0.11828700  0.13159496  1
  Zn  Zn91  1  0.28963637  0.28847352  -0.03549993  1
  Zn  Zn92  1  0.24349570  0.49726462  0.25287287  1
  Zn  Zn93  1  0.87585827  0.87451689  0.50112828  1
  Zn  Zn94  1  0.87818346  0.87844167  0.00103972  1
  Zn  Zn95  1  0.47478634  0.37076130  0.87847198  1
  Zn  Zn96  1  0.74794147  0.24715064  0.50042774  1
  Zn  Zn97  1  0.74986697  0.75242824  0.49693614  1
  Zn  Zn98  1  0.62560068  0.24832195  0.37789807  1
  Zn  Zn99  1  0.05764676  0.72509111  0.32908928  1
  Zn  Zn100  1  0.50165415  -0.00908448  0.51095727  1
  Zn  Zn101  1  0.38506702  0.87489205  -0.00860204  1
  Zn  Zn102  1  0.12613499  0.25660023  0.88097053  1
  Zn  Zn103  1  0.64134709  0.76120295  0.36253128  1
  Zn  Zn104  1  0.87481699  0.12472019  0.24584822  1
  Zn  Zn105  1  0.87514202  0.26037311  0.12299674  1
  Zn  Zn106  1  0.23629822  0.62935171  0.37002440  1
  Zn  Zn107  1  0.18788947  0.18459667  0.18878021  1
  Zn  Zn108  1  0.18858787  0.19107767  0.68883198  1
  Zn  Zn109  1  0.18739875  0.68912166  0.18805535  1
  Zn  Zn110  1  0.18686542  0.68894484  0.68258994  1
  Zn  Zn111  1  0.68772293  0.18582469  0.19159473  1
  Zn  Zn112  1  0.68504960  0.19020475  0.68914143  1
  Zn  Zn113  1  0.68625403  0.68505692  0.18392551  1
  Zn  Zn114  1  0.68044908  0.68960507  0.69062797  1
  Zn  Zn115  1  0.31202604  0.31793290  0.30572847  1
  Zn  Zn116  1  0.30568432  0.30909157  0.80041216  1
  Zn  Zn117  1  0.31593128  0.81593962  0.31053690  1
  Zn  Zn118  1  0.31809130  0.81497936  0.81223822  1
  Zn  Zn119  1  0.81743311  0.30339366  0.31509080  1
  Zn  Zn120  1  0.80841449  0.31010417  0.81300830  1
  Zn  Zn121  1  0.85945554  0.79355655  0.32872786  1
  Zn  Zn122  1  0.81178448  0.81634919  0.81378594  1
  Zn  Zn123  1  0.18787283  0.43917799  0.43702647  1
  Zn  Zn124  1  0.29963788  0.44501655  0.94070848  1
  Zn  Zn125  1  0.18883024  0.93562844  0.43821827  1
  Zn  Zn126  1  0.22444540  0.92640772  0.92064003  1
  Zn  Zn127  1  0.68785225  0.43652102  0.43756285  1
  Zn  Zn128  1  0.67992023  0.44092732  0.93698388  1
  Zn  Zn129  1  0.68322863  0.94200229  0.44181094  1
  Zn  Zn130  1  0.68769527  0.94030276  0.93982426  1
  Zn  Zn131  1  0.31511712  0.06807291  0.06610170  1
  Zn  Zn132  1  0.31734628  0.06369470  0.56223384  1
  Zn  Zn133  1  0.31085364  0.57346506  0.06577164  1
  Zn  Zn134  1  0.31007780  0.56630031  0.55870554  1
  Zn  Zn135  1  0.81186179  0.06494550  0.06278982  1
  Zn  Zn136  1  0.81310741  0.06041637  0.56296927  1
  Zn  Zn137  1  0.81520616  0.56515935  0.05293822  1
  Zn  Zn138  1  0.81136298  0.56130254  0.56041785  1
  Zn  Zn139  1  0.43400484  0.43529988  0.18752798  1
  Zn  Zn140  1  0.43672399  0.43234205  0.68285549  1
  Zn  Zn141  1  0.43521710  0.93799209  0.18796440  1
  Zn  Zn142  1  0.43843867  0.93596767  0.69193376  1
  Zn  Zn143  1  0.96185086  0.43700037  0.18909238  1
  Zn  Zn144  1  0.93742548  0.43873490  0.68990615  1
  Zn  Zn145  1  0.93757524  0.93998943  0.18443770  1
  Zn  Zn146  1  0.93863059  0.93779724  0.69031674  1
  Zn  Zn147  1  0.06760077  0.06191504  0.30896923  1
  Zn  Zn148  1  0.06736075  0.06420442  0.81488519  1
  Zn  Zn149  1  0.05632526  0.55521421  0.31161726  1
  Zn  Zn150  1  0.06385201  0.56051900  0.80979403  1
  Zn  Zn151  1  0.56787654  0.05447530  0.31832927  1
  Zn  Zn152  1  0.56325462  0.06461313  0.80984715  1
  Zn  Zn153  1  0.56188144  0.56419157  0.30893812  1
  Zn  Zn154  1  0.43923723  0.56508682  0.81192263  1
  Zn  Zn155  1  0.43770975  0.18633485  0.43749981  1
  Zn  Zn156  1  0.44062330  0.17678802  0.93443770  1
  Zn  Zn157  1  0.43540912  0.69266638  0.43726127  1
  Zn  Zn158  1  0.43516072  0.68754129  0.94232783  1
  Zn  Zn159  1  0.93672887  0.18381184  0.43849280  1
  Zn  Zn160  1  0.93687538  0.18961325  0.94129766  1
  Zn  Zn161  1  0.92815557  0.68072973  0.44497286  1
  Zn  Zn162  1  0.93625037  0.68653200  0.93810555  1
  Zn  Zn163  1  0.06708285  0.31274830  0.06043936  1
  Zn  Zn164  1  0.06618153  0.31256682  0.56328922  1
  Zn  Zn165  1  0.06936436  0.81376786  0.06419271  1
  Zn  Zn166  1  0.06380230  0.81143233  0.56395417  1
  Zn  Zn167  1  0.55755004  0.31127364  0.06731362  1
  Zn  Zn168  1  0.56195739  0.30562982  0.56160627  1
  Zn  Zn169  1  0.56359121  0.81349937  0.06087505  1
  Zn  Zn170  1  0.56611700  0.81020049  0.56301766  1
  O  O171  1  0.12111770  0.11893343  0.11846746  1
  O  O172  1  0.12408983  0.11783753  0.62096933  1
  O  O173  1  0.11668765  0.62500163  0.11722082  1
  O  O174  1  0.11402323  0.61878543  0.62585024  1
  O  O175  1  0.62528983  0.11626830  0.11939548  1
  O  O176  1  0.60887372  0.12525875  0.63232019  1
  O  O177  1  0.61539092  0.61623135  0.11806517  1
  O  O178  1  0.61512350  0.62170704  0.61772364  1
  O  O179  1  0.38647690  0.38450600  0.37441198  1
  O  O180  1  0.36058981  0.36319395  0.88420638  1
  O  O181  1  0.38777512  0.88113751  0.37307758  1
  O  O182  1  0.33194743  0.88818462  0.89296916  1
  O  O183  1  0.88073142  0.37543364  0.38341032  1
  O  O184  1  0.87099361  0.38754091  0.86847811  1
  O  O185  1  0.86863237  0.89390284  0.38217012  1
  O  O186  1  0.88680435  0.88307209  0.87421860  1
  O  O187  1  0.25726719  0.00483080  0.37134991  1
  O  O188  1  0.23094643  0.02364882  0.86188089  1
  O  O189  1  0.25739397  0.50639412  0.37398676  1
  O  O190  1  0.24719257  0.50468473  0.85545263  1
  O  O191  1  0.75557480  0.00403658  0.36788192  1
  O  O192  1  0.75522384  0.00551189  0.86532554  1
  O  O193  1  0.76047966  0.50316834  0.37538693  1
  O  O194  1  0.75456285  0.50601088  0.87196558  1
  O  O195  1  0.23416872  0.50843524  0.12317145  1
  O  O196  1  0.24374574  0.49689133  0.63034316  1
  O  O197  1  0.24495299  0.99582138  0.13213497  1
  O  O198  1  0.24272579  0.99164425  0.61689119  1
  O  O199  1  0.74199618  0.50141301  0.12054641  1
  O  O200  1  0.74390846  0.49463982  0.63068942  1
  O  O201  1  0.74689518  0.99267982  0.12988928  1
  O  O202  1  0.75582353  0.99253328  0.63980590  1
  O  O203  1  0.00145667  0.35897016  0.26209277  1
  O  O204  1  0.00929200  0.36630049  0.74224573  1
  O  O205  1  0.01296365  0.88121270  0.24829855  1
  O  O206  1  0.01139777  0.86967061  0.75637900  1
  O  O207  1  0.50625330  0.36715682  0.25705787  1
  O  O208  1  0.50104121  0.36675625  0.75363827  1
  O  O209  1  0.49442795  0.86272707  0.25436903  1
  O  O210  1  0.51108637  0.86720807  0.74955771  1
  O  O211  1  0.50818611  0.13723155  0.25633046  1
  O  O212  1  0.48992734  0.12898058  0.74484111  1
  O  O213  1  0.49457346  0.63322839  0.24254498  1
  O  O214  1  0.50186245  0.63927313  0.74214231  1
  O  O215  1  1.00360657  0.13436572  0.24009455  1
  O  O216  1  0.99687225  0.13304937  0.74456264  1
  O  O217  1  0.98947345  0.62249961  0.23842911  1
  O  O218  1  0.99315460  0.63233165  0.74311865  1
  O  O219  1  0.38145936  0.23814887  0.01422722  1
  O  O220  1  0.36072113  0.25289414  0.49301140  1
  O  O221  1  0.36085793  0.75467018  -0.00010085  1
  O  O222  1  0.36453965  0.74728240  0.51333261  1
  O  O223  1  0.85867643  0.25077952  0.00113298  1
  O  O224  1  0.87381748  0.25627793  0.50869718  1
  O  O225  1  0.86557625  0.75084575  0.00858640  1
  O  O226  1  0.86902294  0.75138454  0.51889199  1
  O  O227  1  0.13296346  0.24504210  0.48895605  1
  O  O228  1  0.12726009  0.23725063  1.00126513  1
  O  O229  1  0.13847231  0.74750591  0.50536068  1
  O  O230  1  0.12697564  0.74055026  0.99193202  1
  O  O231  1  0.62905479  0.24099754  0.49644017  1
  O  O232  1  0.62828182  0.24444049  0.99670661  1
  O  O233  1  0.62872404  0.73771554  0.49510130  1
  O  O234  1  0.63301657  0.73992955  1.00459548  1
  O  O235  1  0.49588389  0.24327936  0.13892358  1
  O  O236  1  0.50214265  0.23960456  0.63784773  1
  O  O237  1  0.50468311  0.74173770  0.13090424  1
  O  O238  1  0.49365121  0.74496843  0.62764033  1
  O  O239  1  1.00018999  0.24588819  0.13188538  1
  O  O240  1  0.99494110  0.24447133  0.63110472  1
  O  O241  1  0.99211722  0.74083759  0.11606184  1
  O  O242  1  0.99125253  0.74588741  0.63209998  1
  O  O243  1  0.00732168  0.25235528  0.37032930  1
  O  O244  1  0.00049221  0.24782524  0.86293417  1
  O  O245  1  -0.03783992  0.75650084  0.37154181  1
  O  O246  1  0.00939520  0.75663847  0.87070887  1
  O  O247  1  0.50061520  0.25746108  0.36765469  1
  O  O248  1  0.50532732  0.25005635  0.86861606  1
  O  O249  1  0.50197111  0.76056389  0.36808486  1
  O  O250  1  0.49582552  0.74989824  0.86319656  1
  O  O251  1  0.24656106  0.13185159  0.49354750  1
  O  O252  1  0.24685112  0.12195358  0.98673192  1
  O  O253  1  0.24387154  0.63836230  0.49613530  1
  O  O254  1  0.23989758  0.63486265  0.99846821  1
  O  O255  1  0.75136226  0.12402957  0.49123779  1
  O  O256  1  0.73878573  0.12963914  0.99473725  1
  O  O257  1  0.74199016  0.62336834  0.48929051  1
  O  O258  1  0.74151707  0.63343947  0.99549964  1
  O  O259  1  0.24321656  0.37763674  0.01264506  1
  O  O260  1  0.24999883  0.36816637  0.50451260  1
  O  O261  1  0.22901933  0.86161866  0.01529485  1
  O  O262  1  0.24529460  0.86370006  0.50981290  1
  O  O263  1  0.74132605  0.36177201  -0.00188529  1
  O  O264  1  0.75963469  0.37286432  0.50647050  1
  O  O265  1  0.75227469  0.86800413  0.00580934  1
  O  O266  1  0.75109240  0.87476993  0.51099706  1
  O  O267  1  0.12197652  0.50784903  0.23082013  1
  O  O268  1  0.13251058  0.49513825  0.73970455  1
  O  O269  1  0.13548194  0.99189010  0.24279153  1
  O  O270  1  0.11955911  0.99320060  0.73641539  1
  O  O271  1  0.61980226  0.49367384  0.23546674  1
  O  O272  1  0.63016933  0.48928343  0.74242195  1
  O  O273  1  0.63462972  1.00116481  0.23839414  1
  O  O274  1  0.63079063  0.98714307  0.75451235  1
  O  O275  1  0.36153064  -0.00551135  0.25933932  1
  O  O276  1  0.37402604  0.01189283  0.75114049  1
  O  O277  1  0.37958634  0.51124533  0.26067047  1
  O  O278  1  0.36520840  0.49903850  0.74550653  1
  O  O279  1  0.87073681  0.00315002  0.25706459  1
  O  O280  1  0.86808101  0.00515770  0.75928085  1
  O  O281  1  0.86800288  0.49777385  0.24912927  1
  O  O282  1  0.86661442  0.50581238  0.75583723  1
  O  O283  1  0.11336311  0.36719001  0.38348630  1
  O  O284  1  0.12739459  0.37475910  0.85752979  1
  O  O285  1  0.12625904  0.88115576  0.35916891  1
  O  O286  1  0.12386395  0.87085790  0.86694305  1
  O  O287  1  0.61504722  0.37811178  0.36504468  1
  O  O288  1  0.62176906  0.36405378  0.87044554  1
  O  O289  1  0.61134398  0.87453685  0.37338479  1
  O  O290  1  0.63010379  0.87310888  0.86446665  1
  O  O291  1  0.37953658  0.13670855  0.13318382  1
  O  O292  1  0.38057436  0.12443025  0.63855370  1
  O  O293  1  0.38765848  0.62322648  0.13447125  1
  O  O294  1  0.38712145  0.63178829  0.62104255  1
  O  O295  1  0.88670354  0.12611416  0.12371599  1
  O  O296  1  0.88033095  0.12944311  0.63241996  1
  O  O297  1  0.88108673  0.63019777  0.12474084  1
  O  O298  1  0.87747761  0.63026665  0.63249132  1
  O  O299  1  0.26587382  0.24562639  0.13172211  1
  O  O300  1  0.24075742  0.26154757  0.61328879  1
  O  O301  1  0.24638522  0.75812406  0.11755869  1
  O  O302  1  0.25770545  0.75635852  0.61892621  1
  O  O303  1  0.75012581  0.24674623  0.11173509  1
  O  O304  1  0.75844439  0.25664456  0.62743848  1
  O  O305  1  0.75366911  0.75651536  0.11597619  1
  O  O306  1  0.75415737  0.75806831  0.62825097  1
  O  O307  1  0.24578364  0.24422965  0.37672125  1
  O  O308  1  0.24421992  0.23579429  0.87056138  1
  O  O309  1  0.25690275  0.75258073  0.39007417  1
  O  O310  1  0.23680219  0.74754684  0.87976328  1
  O  O311  1  0.74933372  0.23751874  0.37672197  1
  O  O312  1  0.74150850  0.24471535  0.88415277  1
  O  O313  1  0.75793291  0.73823024  0.37640881  1
  O  O314  1  0.75521367  0.74524554  0.88609315  1
  O  O315  1  0.00929815  0.12907957  0.00981737  1
  O  O316  1  0.00815988  0.11902965  0.50759112  1
  O  O317  1  0.00535404  0.62140276  0.00598654  1
  O  O318  1  -0.00180685  0.62670243  0.51640649  1
  O  O319  1  0.51381677  0.11674806  0.00346091  1
  O  O320  1  0.49485471  0.13049485  0.51974392  1
  O  O321  1  0.50400834  0.61751459  0.00730414  1
  O  O322  1  0.50732420  0.62266816  0.50481744  1
  O  O323  1  0.50000533  0.38037973  0.49170570  1
  O  O324  1  0.50272625  0.38960774  1.00022086  1
  O  O325  1  0.50087898  0.87032964  0.48760874  1
  O  O326  1  0.50153032  0.88962979  1.00204309  1
  O  O327  1  0.98837785  0.36820853  0.49365792  1
  O  O328  1  1.00344826  0.38914178  1.00132676  1
  O  O329  1  0.99897765  0.88856380  0.50814766  1
  O  O330  1  1.00194039  0.87216657  0.98663439  1
  O  O331  1  0.49528093  0.49497450  0.37906184  1
  O  O332  1  0.49578018  0.49498585  0.89008499  1
  O  O333  1  0.49285453  0.98504871  0.36902301  1
  O  O334  1  0.50792707  1.00403062  0.89086853  1
  O  O335  1  0.98468849  0.48433802  0.36679343  1
  O  O336  1  0.99051505  0.50633543  0.88145876  1
  O  O337  1  0.99470568  1.01066898  0.38542936  1
  O  O338  1  0.99289412  0.99232039  0.86765817  1
  O  O339  1  0.01093795  0.01049798  0.12810732  1
  O  O340  1  0.00740125  0.00627568  0.61954318  1
  O  O341  1  0.00772483  0.51203134  0.11557686  1
  O  O342  1  0.00856840  0.51013472  0.63326349  1
  O  O343  1  0.51005680  0.00002395  0.12402942  1
  O  O344  1  0.49360541  0.01522851  0.62805613  1
  O  O345  1  0.50368107  0.50603009  0.11735779  1
  O  O346  1  0.50291631  0.50776843  0.62020895  1
  O  O347  1  0.25388426  0.38484199  0.24002309  1
  O  O348  1  0.24206061  0.38538511  0.73905992  1
  O  O349  1  0.24424946  0.87970957  0.24228994  1
  O  O350  1  0.23728788  0.86869183  0.73790343  1
  O  O351  1  0.74241738  0.37232184  0.25327291  1
  O  O352  1  0.74126585  0.37828241  0.74423727  1
  O  O353  1  0.75749560  0.88655785  0.24119220  1
  O  O354  1  0.73885193  0.88061138  0.74777453  1
  O  O355  1  0.24307184  0.11309598  0.26109431  1
  O  O356  1  0.26251817  0.13069012  0.75328012  1
  O  O357  1  0.25873298  0.62369591  0.25198726  1
  O  O358  1  0.24677749  0.61101796  0.74478410  1
  O  O359  1  0.75345392  0.11375588  0.25645053  1
  O  O360  1  0.75282796  0.11818809  0.75511189  1
  O  O361  1  0.75336062  0.62344675  0.25936696  1
  O  O362  1  0.75039220  0.62061181  0.75553173  1
  O  O363  1  0.36544889  0.11780677  0.37591883  1
  O  O364  1  0.36318078  0.12476984  0.86475818  1
  O  O365  1  0.37555523  0.61951823  0.36798095  1
  O  O366  1  0.37172109  0.62664471  0.87507685  1
  O  O367  1  0.86617272  0.11542847  0.37399373  1
  O  O368  1  0.87098151  0.12018221  0.86997593  1
  O  O369  1  0.86795285  0.60990761  0.36928413  1
  O  O370  1  0.86632836  0.62067459  0.86874210  1
  O  O371  1  0.11875003  0.39354200  0.12474014  1
  O  O372  1  0.13252844  0.38466685  0.62762757  1
  O  O373  1  0.12939516  0.88414643  0.13418586  1
  O  O374  1  0.13158107  0.88243489  0.63092298  1
  O  O375  1  0.62042641  0.38116301  0.13698390  1
  O  O376  1  0.62710403  0.37921734  0.62966060  1
  O  O377  1  0.63923403  0.88139251  0.12135045  1
  O  O378  1  0.63517377  0.87093460  0.63511003  1
  O  O379  1  0.12053523  0.24503778  0.26345256  1
  O  O380  1  0.11596268  0.26061310  0.74725814  1
  O  O381  1  0.12444408  0.76670217  0.24748339  1
  O  O382  1  0.12147151  0.75634470  0.75572383  1
  O  O383  1  0.61616710  0.25822304  0.25238229  1
  O  O384  1  0.61687461  0.25569429  0.75981647  1
  O  O385  1  0.61342421  0.74226340  0.25131422  1
  O  O386  1  0.61009823  0.76119211  0.74888025  1
  O  O387  1  0.39038456  0.24905703  0.24989397  1
  O  O388  1  0.38482570  0.24052153  0.75086554  1
  O  O389  1  0.38458395  0.73919532  0.25463393  1
  O  O390  1  0.38939892  0.75904903  0.73986002  1
  O  O391  1  0.88608893  0.24441658  0.24471459  1
  O  O392  1  0.88122181  0.24549345  0.74528556  1
  O  O393  1  0.86605627  0.73804814  0.22925495  1
  O  O394  1  0.87749666  0.74607224  0.74406130  1
  O  O395  1  0.38107122  0.50158048  0.48825635  1
  O  O396  1  0.38297915  0.50347483  1.00536471  1
  O  O397  1  0.38178464  1.00318183  0.48664110  1
  O  O398  1  0.39519072  1.00741654  1.00585093  1
  O  O399  1  0.87239019  0.48902224  0.49071538  1
  O  O400  1  0.88585486  0.50414261  0.98843131  1
  O  O401  1  0.88672409  1.00109663  0.49504054  1
  O  O402  1  0.86753272  0.99922779  0.98403139  1
  O  O403  1  0.13299646  0.01026832  0.01210331  1
  O  O404  1  0.12057854  0.00418436  0.50822122  1
  O  O405  1  0.11604814  0.51567085  0.00850980  1
  O  O406  1  0.12810259  0.50519992  0.51277361  1
  O  O407  1  0.62180019  0.00676301  0.01064915  1
  O  O408  1  0.61266412  0.00803747  0.49623744  1
  O  O409  1  0.61413799  0.50599671  0.00889981  1
  O  O410  1  0.62001116  0.50938635  0.50503987  1
  O  O411  1  0.38166108  0.35172997  0.12930096  1
  O  O412  1  0.35907954  0.37819953  0.61929542  1
  O  O413  1  0.35988499  0.88207407  0.11660630  1
  O  O414  1  0.36549230  0.87033613  0.62811561  1
  O  O415  1  0.86900504  0.38244746  0.13776690  1
  O  O416  1  0.87108495  0.37203310  0.61896151  1
  O  O417  1  0.86769975  0.86891676  0.12130095  1
  O  O418  1  0.86460597  0.86794018  0.63020117  1
  O  O419  1  0.13528261  0.13098588  0.38093063  1
  O  O420  1  0.12912477  0.13219101  0.88325518  1
  O  O421  1  0.11536066  0.63190228  0.37190368  1
  O  O422  1  0.12480088  0.63309504  0.88049313  1
  O  O423  1  0.63951240  0.12495741  0.37314702  1
  O  O424  1  0.62854244  0.13654275  0.88090763  1
  O  O425  1  0.63313671  0.62330540  0.38036735  1
  O  O426  1  0.63211519  0.61884942  0.88922860  1
