# generated using pymatgen
data_V85Zn86O256
_symmetry_space_group_name_H-M   'P 1'
_cell_length_a   16.93430915
_cell_length_b   16.92834436
_cell_length_c   16.94344812
_cell_angle_alpha   89.95013798
_cell_angle_beta   90.03923790
_cell_angle_gamma   90.00348996
_symmetry_Int_Tables_number   1
_chemical_formula_structural   V85Zn86O256
_chemical_formula_sum   'V85 Zn86 O256'
_cell_volume   4857.17218152
_cell_formula_units_Z   1
loop_
 _symmetry_equiv_pos_site_id
 _symmetry_equiv_pos_as_xyz
  1  'x, y, z'
loop_
 _atom_site_type_symbol
 _atom_site_label
 _atom_site_symmetry_multiplicity
 _atom_site_fract_x
 _atom_site_fract_y
 _atom_site_fract_z
 _atom_site_occupancy
  V  V0  1  0.50045643  0.62935979  0.62240348  1
  V  V1  1  0.24317548  0.88150409  0.12875768  1
  V  V2  1  0.49238245  0.24862565  0.25305997  1
  V  V3  1  0.37669262  0.37312146  0.49878556  1
  V  V4  1  0.62272346  0.25508111  0.37518917  1
  V  V5  1  0.37628657  0.50082698  0.87387011  1
  V  V6  1  -0.00329585  0.62376290  0.13752273  1
  V  V7  1  0.25725985  0.61613702  0.37960790  1
  V  V8  1  0.87503563  0.37496860  -0.00024243  1
  V  V9  1  0.49483254  0.74357801  0.23989680  1
  V  V10  1  0.24078803  -0.00371864  0.26056786  1
  V  V11  1  0.62096859  0.63004345  -0.00002630  1
  V  V12  1  0.62749652  0.62919089  0.49747724  1
  V  V13  1  0.00649161  0.50775752  0.49804824  1
  V  V14  1  0.62170864  0.87708393  0.24828419  1
  V  V15  1  0.75193775  0.50515452  0.74820843  1
  V  V16  1  0.50245854  0.37555028  0.87428545  1
  V  V17  1  0.13287763  0.49045340  0.12569007  1
  V  V18  1  0.25049069  0.49809545  0.74991232  1
  V  V19  1  0.00428557  -0.01297870  0.49710551  1
  V  V20  1  -0.01056118  0.62131729  0.63052009  1
  V  V21  1  0.74873976  0.87438576  0.61540034  1
  V  V22  1  0.49173503  0.88074301  0.87272658  1
  V  V23  1  0.10824763  0.86253291  0.25479636  1
  V  V24  1  0.49831679  0.49801916  0.49776599  1
  V  V25  1  0.36834945  0.75076307  0.61400860  1
  V  V26  1  0.62652869  0.50129280  0.62355816  1
  V  V27  1  0.43927363  0.43235176  0.33000679  1
  V  V28  1  0.37562726  0.62644466  0.74745448  1
  V  V29  1  0.37696025  0.11890004  0.74952424  1
  V  V30  1  0.48943339  0.00129251  -0.00242752  1
  V  V31  1  -0.00666295  0.87024015  0.89073201  1
  V  V32  1  0.12405785  0.62485585  0.00173773  1
  V  V33  1  0.62426087  0.75905848  0.87149635  1
  V  V34  1  0.37652903  0.37028070  0.00126157  1
  V  V35  1  0.50195057  0.75834025  0.74629346  1
  V  V36  1  0.62207627  0.75355490  0.37468551  1
  V  V37  1  0.12565489  0.74879109  0.87055149  1
  V  V38  1  0.36867432  0.88384030  0.49561999  1
  V  V39  1  0.62535390  0.12558550  0.00143112  1
  V  V40  1  0.00082883  0.49523266  0.00027630  1
  V  V41  1  -0.01436218  0.74426701  0.75345432  1
  V  V42  1  0.75984996  0.75424703  -0.00161069  1
  V  V43  1  0.24696449  0.75050920  0.00383322  1
  V  V44  1  0.12269193  0.25125221  0.86814408  1
  V  V45  1  0.87965148  0.50899916  0.37143971  1
  V  V46  1  0.49236613  0.88414522  0.37293764  1
  V  V47  1  0.75643265  0.50690034  0.25026659  1
  V  V48  1  0.87899472  0.24832055  0.12912877  1
  V  V49  1  0.23957869  0.87369845  0.61993501  1
  V  V50  1  0.88855373  0.24392334  0.63315002  1
  V  V51  1  0.37105352  0.11586556  0.25568470  1
  V  V52  1  0.74908532  0.37527716  0.12861581  1
  V  V53  1  0.12485605  0.73993956  0.39253116  1
  V  V54  1  0.87803148  0.12487368  0.25715543  1
  V  V55  1  0.87767843  0.50396111  0.86863979  1
  V  V56  1  0.49074769  0.12850518  0.12653333  1
  V  V57  1  0.25447409  0.24792439  0.00620484  1
  V  V58  1  0.62690122  0.37515236  0.74909701  1
  V  V59  1  0.13297368  0.37352922  0.25783213  1
  V  V60  1  0.37410131  0.24674314  0.61982046  1
  V  V61  1  0.74591909  -0.00493092  0.75133471  1
  V  V62  1  0.75112133  0.00118143  0.25148739  1
  V  V63  1  0.87497855  -0.00420046  0.88553718  1
  V  V64  1  0.75051157  0.24834964  0.00162297  1
  V  V65  1  0.87806639  0.37585697  0.49848710  1
  V  V66  1  0.62409775  0.00176897  0.12457558  1
  V  V67  1  0.75378091  0.62905513  0.86868717  1
  V  V68  1  0.75098245  0.37458712  0.62472030  1
  V  V69  1  0.12861698  0.50841941  0.62082280  1
  V  V70  1  0.25062500  0.37190027  0.62145082  1
  V  V71  1  0.25598039  0.12327602  0.87578970  1
  V  V72  1  0.87717316  -0.01682933  0.38209364  1
  V  V73  1  0.50203660  0.50468664  -0.00292473  1
  V  V74  1  0.11531627  0.13181306  0.49265961  1
  V  V75  1  0.62871881  0.24914900  0.87460678  1
  V  V76  1  0.75677639  0.87602131  0.12050946  1
  V  V77  1  0.06420342  0.05745146  0.67920641  1
  V  V78  1  0.00444075  0.25137434  0.26200256  1
  V  V79  1  0.24984240  0.13212608  0.38518369  1
  V  V80  1  0.87974973  0.74230671  0.14025608  1
  V  V81  1  0.25351413  -0.00308191  0.74809636  1
  V  V82  1  0.62642227  0.50613118  0.12381487  1
  V  V83  1  0.75072542  0.24650043  0.50157161  1
  V  V84  1  0.50150744  0.24897863  0.74806695  1
  Zn  Zn85  1  0.62279703  0.00001893  0.62484630  1
  Zn  Zn86  1  -0.00332824  0.36656766  0.87027337  1
  Zn  Zn87  1  0.75539918  0.63151532  0.36974792  1
  Zn  Zn88  1  0.88510847  0.12160804  0.75133805  1
  Zn  Zn89  1  0.12807256  0.11918513  0.01251081  1
  Zn  Zn90  1  0.75859464  0.12578211  0.87300374  1
  Zn  Zn91  1  0.37345074  0.74231975  0.12325240  1
  Zn  Zn92  1  0.50021958  0.00356399  0.50079664  1
  Zn  Zn93  1  0.24977864  0.62473851  0.87523279  1
  Zn  Zn94  1  0.11424563  0.37121854  0.74410138  1
  Zn  Zn95  1  0.01324934  0.10725718  0.12849431  1
  Zn  Zn96  1  0.76182195  0.75824050  0.49075883  1
  Zn  Zn97  1  0.11850498  0.87554872  0.74797825  1
  Zn  Zn98  1  0.50324243  0.12105728  0.62191321  1
  Zn  Zn99  1  0.36575923  0.61100497  0.24615533  1
  Zn  Zn100  1  0.62096277  0.12411232  0.50192343  1
  Zn  Zn101  1  0.00782953  0.37433935  0.37992863  1
  Zn  Zn102  1  0.25311906  0.36967272  0.12703054  1
  Zn  Zn103  1  0.37132588  0.87500447  0.00056970  1
  Zn  Zn104  1  0.87487604  0.75258735  0.61784448  1
  Zn  Zn105  1  0.75006016  0.12459972  0.37741613  1
  Zn  Zn106  1  0.62074126  0.37786801  0.25451951  1
  Zn  Zn107  1  0.18424138  0.18442184  0.18872685  1
  Zn  Zn108  1  0.19182536  0.18892106  0.68601948  1
  Zn  Zn109  1  0.19014046  0.68301691  0.19137280  1
  Zn  Zn110  1  0.18616263  0.68646338  0.68550038  1
  Zn  Zn111  1  0.68497107  0.18782423  0.19167089  1
  Zn  Zn112  1  0.69379245  0.18102595  0.68753754  1
  Zn  Zn113  1  0.68676416  0.68984793  0.18647580  1
  Zn  Zn114  1  0.68718160  0.69419052  0.68650415  1
  Zn  Zn115  1  0.30567572  0.29959936  0.30980208  1
  Zn  Zn116  1  0.31296594  0.31036758  0.81141856  1
  Zn  Zn117  1  0.30709386  0.80504561  0.31517569  1
  Zn  Zn118  1  0.31270060  0.81224797  0.80954903  1
  Zn  Zn119  1  0.81180659  0.31641267  0.31566088  1
  Zn  Zn120  1  0.81542001  0.31345287  0.81123263  1
  Zn  Zn121  1  0.81031028  0.81292499  0.30890915  1
  Zn  Zn122  1  0.81286034  0.81788156  0.80849395  1
  Zn  Zn123  1  0.19301747  0.44036135  0.43723565  1
  Zn  Zn124  1  0.18853663  0.43314154  0.93674176  1
  Zn  Zn125  1  0.18089084  0.93245023  0.43346724  1
  Zn  Zn126  1  0.19259358  0.93275808  0.93172342  1
  Zn  Zn127  1  0.68916224  0.43684523  0.43539243  1
  Zn  Zn128  1  0.69072289  0.43874696  0.93737999  1
  Zn  Zn129  1  0.68530469  0.94081164  0.43763242  1
  Zn  Zn130  1  0.68477202  0.93905167  0.93713906  1
  Zn  Zn131  1  0.30836004  0.06258367  0.06793825  1
  Zn  Zn132  1  0.30760513  0.05883076  0.56352792  1
  Zn  Zn133  1  0.31397061  0.56481678  0.06530611  1
  Zn  Zn134  1  0.31262350  0.56244330  0.55528572  1
  Zn  Zn135  1  0.81981464  0.06390700  0.06706218  1
  Zn  Zn136  1  0.81614167  0.06141530  0.56555581  1
  Zn  Zn137  1  0.81165960  0.56596398  0.05779937  1
  Zn  Zn138  1  0.81462180  0.56650765  0.55633392  1
  Zn  Zn139  1  0.43993371  0.43998352  0.16793626  1
  Zn  Zn140  1  0.43896593  0.43751055  0.68479606  1
  Zn  Zn141  1  0.43016016  0.93402255  0.18431630  1
  Zn  Zn142  1  0.43513085  0.93646359  0.68212231  1
  Zn  Zn143  1  0.94323408  0.43491124  0.18970231  1
  Zn  Zn144  1  0.93844494  0.43541765  0.68679785  1
  Zn  Zn145  1  0.93470215  0.93466943  0.18886833  1
  Zn  Zn146  1  0.92919435  0.92980758  0.69589672  1
  Zn  Zn147  1  0.06207973  0.05727994  0.31296963  1
  Zn  Zn148  1  0.08034138  0.04171054  0.86184922  1
  Zn  Zn149  1  0.07406780  0.56267000  0.31456276  1
  Zn  Zn150  1  0.06424593  0.55901316  0.81101276  1
  Zn  Zn151  1  0.56520993  0.06668154  0.31628643  1
  Zn  Zn152  1  0.56468904  0.06307988  0.81213208  1
  Zn  Zn153  1  0.56928187  0.56857115  0.30739712  1
  Zn  Zn154  1  0.56482943  0.56863425  0.81097754  1
  Zn  Zn155  1  0.43572193  0.18583692  0.43545787  1
  Zn  Zn156  1  0.43794637  0.18689110  0.93441170  1
  Zn  Zn157  1  0.43437215  0.68948523  0.43086147  1
  Zn  Zn158  1  0.43548268  0.68985603  0.93562555  1
  Zn  Zn159  1  0.93768274  0.18413292  0.44218018  1
  Zn  Zn160  1  0.94399144  0.17816857  0.94338555  1
  Zn  Zn161  1  0.94508621  0.69327551  0.43525796  1
  Zn  Zn162  1  0.93929924  0.68576155  0.94409399  1
  Zn  Zn163  1  0.05790844  0.29081587  0.05613949  1
  Zn  Zn164  1  0.06476335  0.31611516  0.56196084  1
  Zn  Zn165  1  0.06501275  0.94781987  0.06033093  1
  Zn  Zn166  1  0.05839989  0.80674433  0.56502043  1
  Zn  Zn167  1  0.56175581  0.31231438  0.06599402  1
  Zn  Zn168  1  0.56116926  0.31035090  0.56098609  1
  Zn  Zn169  1  0.56535559  0.81656841  0.05989602  1
  Zn  Zn170  1  0.56493881  0.82168737  0.56078632  1
  O  O171  1  0.12939419  0.11086613  0.12725289  1
  O  O172  1  0.12465579  0.11892602  0.62000264  1
  O  O173  1  0.11799895  0.61496164  0.11784627  1
  O  O174  1  0.11900998  0.61228785  0.62736135  1
  O  O175  1  0.61481938  0.12086778  0.12170142  1
  O  O176  1  0.62293928  0.12404062  0.62212948  1
  O  O177  1  0.63280357  0.61779534  0.11283345  1
  O  O178  1  0.61959616  0.62274678  0.61704032  1
  O  O179  1  0.37134079  0.36864569  0.38061393  1
  O  O180  1  0.38308874  0.38103827  0.87945793  1
  O  O181  1  0.38072264  0.86605582  0.38390251  1
  O  O182  1  0.38770082  0.86944099  0.87946205  1
  O  O183  1  0.87596063  0.38251327  0.38850918  1
  O  O184  1  0.87246910  0.38448559  0.88363539  1
  O  O185  1  0.87223893  0.88469434  0.37429926  1
  O  O186  1  0.88539218  0.87532226  0.87787992  1
  O  O187  1  0.24684231  0.00528459  0.36519295  1
  O  O188  1  0.24770928  0.00770392  0.85969950  1
  O  O189  1  0.25167259  0.51417224  0.37689744  1
  O  O190  1  0.25634907  0.49951112  0.86561682  1
  O  O191  1  0.76221980  0.00138626  0.37133001  1
  O  O192  1  0.75480474  -0.00161107  0.86720568  1
  O  O193  1  0.75858103  0.50063486  0.36599326  1
  O  O194  1  0.75627795  0.51009857  0.87078058  1
  O  O195  1  0.23528279  0.49273292  0.11470764  1
  O  O196  1  0.24686355  0.49491435  0.62854799  1
  O  O197  1  0.25518641  0.98703793  0.13575088  1
  O  O198  1  0.25022472  0.98951949  0.63791205  1
  O  O199  1  0.74518631  0.49469673  0.12751307  1
  O  O200  1  0.74587049  0.49618242  0.62762992  1
  O  O201  1  0.74877597  0.99236986  0.12984320  1
  O  O202  1  0.75249359  0.99269815  0.63428515  1
  O  O203  1  0.01038557  0.36864649  0.25771307  1
  O  O204  1  0.00244381  0.38330248  0.75908036  1
  O  O205  1  0.00976894  0.87357871  0.24943429  1
  O  O206  1  0.00084005  0.85894686  0.75669749  1
  O  O207  1  0.49328241  0.37098432  0.25509578  1
  O  O208  1  0.50729167  0.37050196  0.75404262  1
  O  O209  1  0.50405067  0.87046209  0.25373721  1
  O  O210  1  0.49350552  0.86541062  0.75631247  1
  O  O211  1  0.49189668  0.12867720  0.24628759  1
  O  O212  1  0.49128053  0.13094567  0.75102998  1
  O  O213  1  0.50034126  0.64191754  0.25249372  1
  O  O214  1  0.49561135  0.63538964  0.74251722  1
  O  O215  1  0.99468452  0.13216765  0.24967598  1
  O  O216  1  1.00897535  0.11135854  0.74162735  1
  O  O217  1  1.00372432  0.61029607  0.23567131  1
  O  O218  1  1.00469165  0.63063876  0.74318266  1
  O  O219  1  0.36918234  0.25929895  -0.00884778  1
  O  O220  1  0.37999539  0.25748189  0.51211785  1
  O  O221  1  0.35828491  0.74748000  -0.00160311  1
  O  O222  1  0.38279981  0.75766513  0.51120832  1
  O  O223  1  0.86842021  0.25395667  0.01074632  1
  O  O224  1  0.87071135  0.25744759  0.50745920  1
  O  O225  1  0.86180514  0.74528589  0.00714677  1
  O  O226  1  0.87117159  0.73530797  0.50461508  1
  O  O227  1  0.11774667  0.23077048  0.50546738  1
  O  O228  1  0.14345573  0.25390245  0.98485125  1
  O  O229  1  0.12419668  0.75017288  0.49179667  1
  O  O230  1  0.13495222  0.73905841  0.98777861  1
  O  O231  1  0.63400030  0.25153355  0.49372845  1
  O  O232  1  0.63050939  0.24672390  0.99606365  1
  O  O233  1  0.62352955  0.74436402  0.49032663  1
  O  O234  1  0.63149108  0.74504352  0.99282925  1
  O  O235  1  0.50582795  0.24161290  0.13976756  1
  O  O236  1  0.49134715  0.25017986  0.63308792  1
  O  O237  1  0.50225505  0.75700154  0.13708746  1
  O  O238  1  0.49537265  0.74976954  0.63075982  1
  O  O239  1  0.98177252  0.26597898  0.14356456  1
  O  O240  1  0.98621331  0.25780657  0.62391723  1
  O  O241  1  0.98113043  0.73870718  0.12470340  1
  O  O242  1  0.99788381  0.73863846  0.63595860  1
  O  O243  1  -0.00675707  0.25255158  0.36559509  1
  O  O244  1  0.01975672  0.24621183  0.87677181  1
  O  O245  1  0.02398379  0.73477111  0.36869701  1
  O  O246  1  0.00322123  0.75307481  0.87238571  1
  O  O247  1  0.50676626  0.24617180  0.36242029  1
  O  O248  1  0.50796619  0.25619125  0.86855521  1
  O  O249  1  0.50857853  0.75895934  0.36502741  1
  O  O250  1  0.50605901  0.75646596  0.86737074  1
  O  O251  1  0.23599343  0.11369794  0.49049286  1
  O  O252  1  0.25518333  0.13045894  0.99155951  1
  O  O253  1  0.26134709  0.62921573  0.48267725  1
  O  O254  1  0.23801886  0.62874736  0.99930961  1
  O  O255  1  0.75434002  0.13895056  0.50058477  1
  O  O256  1  0.74502222  0.13371413  1.00221984  1
  O  O257  1  0.73480002  0.62342955  0.49609006  1
  O  O258  1  0.74034617  0.63260062  0.98796868  1
  O  O259  1  0.26120475  0.36589091  -0.00253595  1
  O  O260  1  0.26619190  0.38246911  0.50850595  1
  O  O261  1  0.24735171  0.86867866  0.00941008  1
  O  O262  1  0.25434302  0.87978810  0.50811646  1
  O  O263  1  0.75385163  0.36895773  0.00852638  1
  O  O264  1  0.75769503  0.36815102  0.50501273  1
  O  O265  1  0.74161840  0.86603579  0.00917089  1
  O  O266  1  0.74979267  0.87633809  0.51080428  1
  O  O267  1  0.12004058  0.48204537  0.23939967  1
  O  O268  1  0.13687404  0.49675803  0.74224411  1
  O  O269  1  0.13133539  0.98324817  0.25856472  1
  O  O270  1  0.12550891  1.00251536  0.74895966  1
  O  O271  1  0.63106327  0.49748392  0.23960887  1
  O  O272  1  0.63102706  0.49681402  0.74376908  1
  O  O273  1  0.63094538  0.99829481  0.24402537  1
  O  O274  1  0.64210931  1.00541334  0.75121046  1
  O  O275  1  0.36719613  0.01069727  0.24736271  1
  O  O276  1  0.36848890  0.01083743  0.74598696  1
  O  O277  1  0.38987715  0.48980823  0.25929574  1
  O  O278  1  0.37188199  0.50577269  0.75277873  1
  O  O279  1  0.87267016  0.00581725  0.26342010  1
  O  O280  1  0.86466330  0.00001580  0.76211230  1
  O  O281  1  0.86857258  0.49115356  0.25914619  1
  O  O282  1  0.86813319  0.49837062  0.76264596  1
  O  O283  1  0.12885765  0.37703738  0.36194003  1
  O  O284  1  0.12778726  0.36140726  0.87055112  1
  O  O285  1  0.12856064  0.85720547  0.36239943  1
  O  O286  1  0.11390755  0.86415807  0.87050374  1
  O  O287  1  0.62792396  0.36216788  0.37310905  1
  O  O288  1  0.62274909  0.36956376  0.87026922  1
  O  O289  1  0.61771627  0.86990566  0.36798066  1
  O  O290  1  0.61412640  0.86398232  0.87965044  1
  O  O291  1  0.38597384  0.12297901  0.13306867  1
  O  O292  1  0.37111137  0.13306202  0.63114196  1
  O  O293  1  0.37432675  0.62714764  0.13302896  1
  O  O294  1  0.38153621  0.63232271  0.62642551  1
  O  O295  1  0.87558017  0.13529369  0.13947541  1
  O  O296  1  0.87714683  0.14023202  0.62675817  1
  O  O297  1  0.88004927  0.63250307  0.12086095  1
  O  O298  1  0.88667120  0.61810264  0.62927295  1
  O  O299  1  0.24895812  0.24758079  0.10968319  1
  O  O300  1  0.25888996  0.26324922  0.62833910  1
  O  O301  1  0.24508756  0.75976073  0.11689707  1
  O  O302  1  0.25987800  0.75750598  0.63205974  1
  O  O303  1  0.75679047  0.25787938  0.12499008  1
  O  O304  1  0.75749854  0.25850314  0.61866671  1
  O  O305  1  0.75440165  0.75470590  0.11691911  1
  O  O306  1  0.74986414  0.76207510  0.62245470  1
  O  O307  1  0.24492732  0.23106633  0.37933685  1
  O  O308  1  0.24872617  0.24220383  0.87988204  1
  O  O309  1  0.23417611  0.73921452  0.36870565  1
  O  O310  1  0.24152730  0.74917506  0.87901406  1
  O  O311  1  0.74490904  0.25109799  0.38481311  1
  O  O312  1  0.74628105  0.24954556  0.88245638  1
  O  O313  1  0.73630135  0.75077078  0.37294310  1
  O  O314  1  0.74438769  0.74831753  0.87870960  1
  O  O315  1  0.01758468  0.16817358  0.02596169  1
  O  O316  1  0.01054479  0.11428606  0.49904071  1
  O  O317  1  0.00977104  0.61683304  0.00744792  1
  O  O318  1  -0.00011918  0.61158901  0.51090290  1
  O  O319  1  0.50281458  0.12170125  0.00752362  1
  O  O320  1  0.49989724  0.12307376  0.50180652  1
  O  O321  1  0.51358252  0.62250161  -0.00920627  1
  O  O322  1  0.50850466  0.61948668  0.50080631  1
  O  O323  1  0.48926571  0.38282394  0.50220882  1
  O  O324  1  0.49636224  0.38014439  0.99393558  1
  O  O325  1  0.49039052  0.87596735  0.48892019  1
  O  O326  1  0.49768742  0.88423805  0.99302272  1
  O  O327  1  0.99383013  0.38447805  0.49945183  1
  O  O328  1  0.99410128  0.37920876  0.99535532  1
  O  O329  1  1.00053957  0.88825783  0.50730468  1
  O  O330  1  1.00538297  0.86659918  0.98769774  1
  O  O331  1  0.50755675  0.49662307  0.37938252  1
  O  O332  1  0.49905059  0.49562325  0.87808934  1
  O  O333  1  0.50169565  0.98686152  0.37087698  1
  O  O334  1  0.50645038  0.99187682  0.88339819  1
  O  O335  1  0.99702270  0.49922059  0.38229857  1
  O  O336  1  0.99260348  0.50346244  0.88675452  1
  O  O337  1  0.98808421  0.99861072  0.38528455  1
  O  O338  1  0.98813335  0.97832077  0.86974117  1
  O  O339  1  -0.01959030  -0.00061070  0.11225946  1
  O  O340  1  -0.00007476  -0.00233776  0.62338212  1
  O  O341  1  0.00389182  0.50157005  0.11260336  1
  O  O342  1  0.00859710  0.50431262  0.61994742  1
  O  O343  1  0.50361957  0.00674046  0.11850595  1
  O  O344  1  0.50350384  0.00123923  0.62354257  1
  O  O345  1  0.51848520  0.49829278  0.11262722  1
  O  O346  1  0.50753932  0.50712518  0.61711096  1
  O  O347  1  0.23781303  0.36591873  0.24496789  1
  O  O348  1  0.25686391  0.38685592  0.73992771  1
  O  O349  1  0.24862400  0.88031809  0.24256259  1
  O  O350  1  0.24580555  0.88246401  0.74549450  1
  O  O351  1  0.74821277  0.38504698  0.24205082  1
  O  O352  1  0.74520720  0.38349309  0.74467528  1
  O  O353  1  0.74178251  0.88166949  0.24164143  1
  O  O354  1  0.74894233  0.88820623  0.74457185  1
  O  O355  1  0.25271396  0.11801501  0.26187449  1
  O  O356  1  0.25819665  0.11830356  0.75385829  1
  O  O357  1  0.25074005  0.62214947  0.26178836  1
  O  O358  1  0.25665271  0.61309851  0.74867069  1
  O  O359  1  0.75845465  0.11769658  0.25044717  1
  O  O360  1  0.75954320  0.11220286  0.75344377  1
  O  O361  1  0.74427341  0.61084992  0.24966991  1
  O  O362  1  0.74351828  0.62268712  0.76162796  1
  O  O363  1  0.35870889  0.12395421  0.37201865  1
  O  O364  1  0.36567427  0.12994725  0.86364113  1
  O  O365  1  0.36541684  0.63114341  0.36374782  1
  O  O366  1  0.37312902  0.61837782  0.86677236  1
  O  O367  1  0.87299931  0.12259368  0.36558841  1
  O  O368  1  0.88090449  0.11461727  0.87406510  1
  O  O369  1  0.87370304  0.61162829  0.37784997  1
  O  O370  1  0.86516534  0.61684996  0.88303514  1
  O  O371  1  0.12305790  0.37785987  0.12955216  1
  O  O372  1  0.13642875  0.38217557  0.62546162  1
  O  O373  1  0.13672884  0.88156381  0.13355062  1
  O  O374  1  0.13606730  0.86562215  0.62959248  1
  O  O375  1  0.63667083  0.38255193  0.12497233  1
  O  O376  1  0.63072149  0.38070138  0.62895191  1
  O  O377  1  0.63389632  0.88239176  0.12924483  1
  O  O378  1  0.64100789  0.87811099  0.62617583  1
  O  O379  1  0.11595851  0.26190988  0.24522033  1
  O  O380  1  0.13687913  0.25336849  0.76333555  1
  O  O381  1  0.12412422  0.76353601  0.24066486  1
  O  O382  1  0.11886432  0.74460021  0.76240185  1
  O  O383  1  0.61653123  0.25503621  0.25697418  1
  O  O384  1  0.62366969  0.25532829  0.75585450  1
  O  O385  1  0.61650892  0.75619366  0.25422136  1
  O  O386  1  0.61345551  0.74611190  0.75928521  1
  O  O387  1  0.38161922  0.23392676  0.25346193  1
  O  O388  1  0.38002475  0.24305096  0.74014966  1
  O  O389  1  0.39073644  0.75617059  0.24751489  1
  O  O390  1  0.38231674  0.74453580  0.74094298  1
  O  O391  1  0.87735472  0.24384395  0.24854913  1
  O  O392  1  0.87331291  0.24817649  0.73728259  1
  O  O393  1  0.86617692  0.74158828  0.23908176  1
  O  O394  1  0.88318461  0.74554882  0.75071673  1
  O  O395  1  0.39107045  0.49301984  0.50241262  1
  O  O396  1  0.38197028  0.49465155  0.99228171  1
  O  O397  1  0.37611200  0.98665176  0.50325477  1
  O  O398  1  0.38666629  1.00132938  1.00320492  1
  O  O399  1  0.88273220  0.49343866  0.49357013  1
  O  O400  1  0.88062176  0.49539673  0.99284190  1
  O  O401  1  0.88494252  1.00631250  0.48824258  1
  O  O402  1  0.86304936  0.99944413  0.98508893  1
  O  O403  1  0.11742959  0.00678121  -0.02513758  1
  O  O404  1  0.10940223  0.00442876  0.49530451  1
  O  O405  1  0.11760006  0.50275656  0.00209362  1
  O  O406  1  0.11760649  0.49188889  0.50911649  1
  O  O407  1  0.61646075  0.00745010  0.00622423  1
  O  O408  1  0.62109700  0.00519798  0.50174061  1
  O  O409  1  0.62470636  0.50972565  0.00330379  1
  O  O410  1  0.61689588  0.50503992  0.50268408  1
  O  O411  1  0.37242724  0.37481312  0.10714763  1
  O  O412  1  0.37092436  0.36891271  0.61844178  1
  O  O413  1  0.36014395  0.86733346  0.12016318  1
  O  O414  1  0.36407068  0.86734795  0.61720837  1
  O  O415  1  0.86407618  0.37229292  0.12131071  1
  O  O416  1  0.86951585  0.37141612  0.61470474  1
  O  O417  1  0.86190072  0.85955040  0.13200597  1
  O  O418  1  0.85612596  0.87071885  0.63170634  1
  O  O419  1  0.13080359  0.12162185  0.38598096  1
  O  O420  1  0.14179924  0.13710633  0.87603042  1
  O  O421  1  0.13834419  0.63042183  0.37686303  1
  O  O422  1  0.12576969  0.62842152  0.88387856  1
  O  O423  1  0.63117259  0.13939539  0.37650293  1
  O  O424  1  0.62698050  0.13503933  0.88321181  1
  O  O425  1  0.62640807  0.63548492  0.38127869  1
  O  O426  1  0.63203276  0.63691462  0.88016838  1
