# generated using pymatgen
data_V85Zn86O256
_symmetry_space_group_name_H-M   'P 1'
_cell_length_a   16.91721998
_cell_length_b   16.92221550
_cell_length_c   16.91534855
_cell_angle_alpha   90.09251222
_cell_angle_beta   89.98689595
_cell_angle_gamma   90.07465749
_symmetry_Int_Tables_number   1
_chemical_formula_structural   V85Zn86O256
_chemical_formula_sum   'V85 Zn86 O256'
_cell_volume   4842.46202263
_cell_formula_units_Z   1
loop_
 _symmetry_equiv_pos_site_id
 _symmetry_equiv_pos_as_xyz
  1  'x, y, z'
loop_
 _atom_site_type_symbol
 _atom_site_label
 _atom_site_symmetry_multiplicity
 _atom_site_fract_x
 _atom_site_fract_y
 _atom_site_fract_z
 _atom_site_occupancy
  V  V0  1  0.37298353  0.49989159  0.87708296  1
  V  V1  1  0.12581780  0.49997782  0.12197903  1
  V  V2  1  0.74627911  0.14057341  0.38315620  1
  V  V3  1  0.25141212  0.50123950  0.24935408  1
  V  V4  1  0.25236513  0.37549445  0.12312771  1
  V  V5  1  0.24558838  0.24945746  -0.00176999  1
  V  V6  1  0.25615496  0.75193950  -0.00546261  1
  V  V7  1  0.37980975  0.25069740  0.12267761  1
  V  V8  1  -0.00110779  0.74732886  0.25024967  1
  V  V9  1  0.87223997  0.62324148  0.75904161  1
  V  V10  1  0.37260145  0.62515571  0.75264869  1
  V  V11  1  0.35678698  0.75537359  0.62072995  1
  V  V12  1  0.37345352  0.36207855  0.50594979  1
  V  V13  1  0.87553647  0.25605053  0.12031711  1
  V  V14  1  -0.00060803  -0.00127480  0.49878270  1
  V  V15  1  0.37527509  -0.00328680  0.88324113  1
  V  V16  1  0.86190591  -0.00200594  0.37335650  1
  V  V17  1  0.24601756  0.36018729  0.62289334  1
  V  V18  1  0.75154987  0.26004071  -0.00188018  1
  V  V19  1  0.62911175  -0.00000219  0.12862453  1
  V  V20  1  0.86563656  0.36953312  0.49862126  1
  V  V21  1  0.74387949  0.62248673  0.36387351  1
  V  V22  1  0.49496799  0.24850209  0.73606443  1
  V  V23  1  0.63119703  0.50143412  0.12817174  1
  V  V24  1  0.00145781  0.37456838  0.37822229  1
  V  V25  1  0.00052785  0.62428061  0.12314005  1
  V  V26  1  0.74756572  -0.01173628  0.74320200  1
  V  V27  1  0.61694439  0.25099690  0.87434248  1
  V  V28  1  0.38874878  -0.00483266  0.37299867  1
  V  V29  1  0.75133265  0.87683495  0.13107299  1
  V  V30  1  0.62326683  0.13659627  0.51036139  1
  V  V31  1  0.62265732  0.12263590  0.00053478  1
  V  V32  1  0.62893520  0.75571589  0.87661074  1
  V  V33  1  0.12612852  0.61573884  0.50538657  1
  V  V34  1  0.87578336  0.74972229  0.12445808  1
  V  V35  1  0.50063256  0.62015055  0.11967494  1
  V  V36  1  0.87586891  0.87628765  -0.00064964  1
  V  V37  1  0.49937280  0.75769746  0.74739064  1
  V  V38  1  0.49742998  0.75474531  0.25382214  1
  V  V39  1  -0.00264228  0.48920234  -0.00318739  1
  V  V40  1  0.74788061  0.12249824  0.87282228  1
  V  V41  1  0.12685929  0.00852144  0.12067139  1
  V  V42  1  0.50817648  0.25250261  0.25052458  1
  V  V43  1  0.12847942  0.74688630  0.87230369  1
  V  V44  1  0.62742915  0.61869718  -0.00961617  1
  V  V45  1  0.61967826  -0.01411594  0.62624573  1
  V  V46  1  0.49751490  0.50785365  0.50124286  1
  V  V47  1  0.87007506  0.49989189  0.37032799  1
  V  V48  1  0.87716084  0.12971394  0.75109190  1
  V  V49  1  0.25608528  0.87576550  0.12207774  1
  V  V50  1  0.68530414  0.68570583  0.54766453  1
  V  V51  1  0.37555497  0.75262031  0.12477097  1
  V  V52  1  0.49750832  0.87269476  0.88596839  1
  V  V53  1  0.24225998  0.50392282  0.74121149  1
  V  V54  1  0.12406238  0.87643098  0.25022927  1
  V  V55  1  -0.00132386  0.61604490  0.62595152  1
  V  V56  1  -0.00336902  0.87562403  0.37655401  1
  V  V57  1  0.37958322  0.12485630  0.73897885  1
  V  V58  1  0.74618562  0.49902277  0.75402929  1
  V  V59  1  0.62568053  0.74812537  0.37553294  1
  V  V60  1  0.12332073  0.75023578  0.38658795  1
  V  V61  1  0.86780942  0.12195762  0.24962981  1
  V  V62  1  0.12824204  0.13257986  0.49906879  1
  V  V63  1  0.50386608  0.37326372  0.37696433  1
  V  V64  1  0.00070303  0.24828818  0.24929642  1
  V  V65  1  0.00295949  0.00545213  -0.00144648  1
  V  V66  1  0.00129956  0.12967359  0.62888981  1
  V  V67  1  0.86916479  0.48919608  0.87913876  1
  V  V68  1  0.12824530  0.62413021  -0.00582375  1
  V  V69  1  0.12015129  0.24928690  0.86563475  1
  V  V70  1  0.86791896  0.24796756  0.62224973  1
  V  V71  1  0.63421980  0.37965203  0.25385789  1
  V  V72  1  0.25248503  0.00379683  0.25135757  1
  V  V73  1  -0.00300570  0.75087000  0.74755774  1
  V  V74  1  0.12700691  0.87488681  0.74322378  1
  V  V75  1  0.25486546  0.13121895  0.37859209  1
  V  V76  1  0.24957905  0.62613446  0.38049385  1
  V  V77  1  0.24904966  0.12325207  0.87918675  1
  V  V78  1  0.12698689  0.37450728  0.25081345  1
  V  V79  1  0.12735650  -0.00246863  0.62320269  1
  V  V80  1  0.62685321  0.87893849  0.25713202  1
  V  V81  1  0.62597700  0.49806130  0.61974010  1
  V  V82  1  0.25407136  -0.00484918  0.74480327  1
  V  V83  1  0.37533461  0.62699259  0.25093677  1
  V  V84  1  0.86182457  0.86936945  0.50720017  1
  Zn  Zn85  1  0.49797420  0.63057022  0.62208609  1
  Zn  Zn86  1  0.87160353  0.61764844  0.24598785  1
  Zn  Zn87  1  0.50016936  0.00125412  0.50330127  1
  Zn  Zn88  1  0.37383849  0.49971390  0.37862596  1
  Zn  Zn89  1  0.50223366  0.12374511  0.12679827  1
  Zn  Zn90  1  0.13168740  0.25272748  0.37748101  1
  Zn  Zn91  1  0.49721057  -0.00543899  0.00539472  1
  Zn  Zn92  1  0.11665567  0.37581204  0.74023663  1
  Zn  Zn93  1  0.86421225  0.74895239  0.62338838  1
  Zn  Zn94  1  0.62113870  0.37531850  0.74874935  1
  Zn  Zn95  1  0.00067043  0.12581265  0.12438264  1
  Zn  Zn96  1  0.00008795  0.87674353  0.87358702  1
  Zn  Zn97  1  0.87585574  -0.00098378  0.87296444  1
  Zn  Zn98  1  0.00095908  0.49469311  0.50511499  1
  Zn  Zn99  1  0.38164184  0.37811069  -0.00134193  1
  Zn  Zn100  1  0.74603865  0.36939194  0.62267647  1
  Zn  Zn101  1  0.75256952  0.74646026  -0.00409357  1
  Zn  Zn102  1  -0.00509250  0.36642441  0.86885942  1
  Zn  Zn103  1  0.75528648  0.38214148  0.12570526  1
  Zn  Zn104  1  0.50064281  0.38146119  0.87801596  1
  Zn  Zn105  1  0.38095029  0.12935004  0.25173348  1
  Zn  Zn106  1  0.37093979  0.87461702  0.50427089  1
  Zn  Zn107  1  0.18990243  0.18857377  0.18875238  1
  Zn  Zn108  1  0.19178769  0.18243261  0.68980497  1
  Zn  Zn109  1  0.18658310  0.68868535  0.18866046  1
  Zn  Zn110  1  0.18536722  0.68324101  0.68702222  1
  Zn  Zn111  1  0.69046950  0.19003413  0.18855140  1
  Zn  Zn112  1  0.68461590  0.18480029  0.68883709  1
  Zn  Zn113  1  0.68668513  0.69002872  0.18525322  1
  Zn  Zn114  1  0.68613389  0.68569322  0.71006098  1
  Zn  Zn115  1  0.31896260  0.31359753  0.31360098  1
  Zn  Zn116  1  0.31231945  0.31463329  0.80806009  1
  Zn  Zn117  1  0.29472654  0.82878744  0.34530394  1
  Zn  Zn118  1  0.31432006  0.81433625  0.81175697  1
  Zn  Zn119  1  0.81479048  0.31141594  0.31071559  1
  Zn  Zn120  1  0.80935506  0.31179722  0.80922206  1
  Zn  Zn121  1  0.80961607  0.80880277  0.31552971  1
  Zn  Zn122  1  0.81381799  0.81222082  0.81486553  1
  Zn  Zn123  1  0.19066538  0.43765151  0.44151016  1
  Zn  Zn124  1  0.19325087  0.43564644  0.93085883  1
  Zn  Zn125  1  0.19265366  0.94069917  0.44154386  1
  Zn  Zn126  1  0.18707896  0.93367441  0.93542431  1
  Zn  Zn127  1  0.68645445  0.44026545  0.43754364  1
  Zn  Zn128  1  0.68227324  0.43866520  0.93622320  1
  Zn  Zn129  1  0.68314568  0.93927673  0.44067640  1
  Zn  Zn130  1  0.68823129  0.93626864  0.93792534  1
  Zn  Zn131  1  0.31366174  0.06696932  0.06267151  1
  Zn  Zn132  1  0.31191064  0.06178986  0.55935367  1
  Zn  Zn133  1  0.31097406  0.56737887  0.06080930  1
  Zn  Zn134  1  0.31375998  0.56202330  0.56548419  1
  Zn  Zn135  1  0.81119886  0.06378061  0.06219813  1
  Zn  Zn136  1  0.80940141  0.06000848  0.56157691  1
  Zn  Zn137  1  0.81048727  0.56388832  0.05857156  1
  Zn  Zn138  1  0.81932884  0.55538285  0.56492939  1
  Zn  Zn139  1  0.44089625  0.43886016  0.18751582  1
  Zn  Zn140  1  0.43640276  0.43613901  0.68711366  1
  Zn  Zn141  1  0.43993979  0.93837599  0.19111962  1
  Zn  Zn142  1  0.43792509  0.93337125  0.68918222  1
  Zn  Zn143  1  0.93949166  0.43621016  0.18856969  1
  Zn  Zn144  1  0.93583779  0.43243811  0.69139704  1
  Zn  Zn145  1  0.93793581  0.94005127  0.18856379  1
  Zn  Zn146  1  0.93542081  0.94009676  0.68549290  1
  Zn  Zn147  1  0.06085400  0.06346178  0.31346616  1
  Zn  Zn148  1  0.06424210  0.06373224  0.81417866  1
  Zn  Zn149  1  0.06167372  0.56049855  0.31398606  1
  Zn  Zn150  1  0.06003489  0.55937681  0.81292657  1
  Zn  Zn151  1  0.57123242  0.06895282  0.31113330  1
  Zn  Zn152  1  0.56073311  0.05955935  0.80849785  1
  Zn  Zn153  1  0.56116869  0.56237597  0.31273327  1
  Zn  Zn154  1  0.55647461  0.56569105  0.80894482  1
  Zn  Zn155  1  0.44499624  0.18584257  0.43666368  1
  Zn  Zn156  1  0.43533868  0.18540034  0.93625180  1
  Zn  Zn157  1  0.43795863  0.69150114  0.43824840  1
  Zn  Zn158  1  0.43811401  0.68298561  0.93573571  1
  Zn  Zn159  1  0.93809682  0.18713117  0.43836702  1
  Zn  Zn160  1  0.93662266  0.18418451  0.93887607  1
  Zn  Zn161  1  0.93421494  0.68497677  0.43915673  1
  Zn  Zn162  1  0.94063194  0.68593814  0.93613653  1
  Zn  Zn163  1  0.06541144  0.30942807  0.05996823  1
  Zn  Zn164  1  0.05867292  0.31066879  0.56498471  1
  Zn  Zn165  1  0.06548326  0.81674310  0.06212321  1
  Zn  Zn166  1  0.05697614  0.81020547  0.56469315  1
  Zn  Zn167  1  0.56220841  0.31877620  0.06026394  1
  Zn  Zn168  1  0.56096922  0.31541422  0.56148453  1
  Zn  Zn169  1  0.56365331  0.80944500  0.06332944  1
  Zn  Zn170  1  0.54786527  0.82335514  0.56153987  1
  O  O171  1  0.12588549  0.11188748  0.12791176  1
  O  O172  1  0.11931292  0.12069638  0.61958475  1
  O  O173  1  0.12000092  0.61945202  0.11748619  1
  O  O174  1  0.11421996  0.63018137  0.61531258  1
  O  O175  1  0.62945266  0.11726395  0.11831013  1
  O  O176  1  0.63217688  0.11690683  0.61299178  1
  O  O177  1  0.61903166  0.62111290  0.11794872  1
  O  O178  1  0.62922268  0.62561471  0.61492905  1
  O  O179  1  0.38027828  0.37882322  0.38756488  1
  O  O180  1  0.37342025  0.38837183  0.87378395  1
  O  O181  1  0.38770358  0.89560751  0.35454442  1
  O  O182  1  0.38144465  0.88526759  0.87384764  1
  O  O183  1  0.88093739  0.37854899  0.37977677  1
  O  O184  1  0.87405855  0.38474599  0.87402289  1
  O  O185  1  0.87748496  0.88062268  0.38064921  1
  O  O186  1  0.87804878  0.87741361  0.88573956  1
  O  O187  1  0.25863145  0.01122462  0.36502580  1
  O  O188  1  0.25518130  0.00472427  0.87067530  1
  O  O189  1  0.24921786  0.51065191  0.36842815  1
  O  O190  1  0.26128144  0.49477750  0.85624566  1
  O  O191  1  0.75991468  0.00650115  0.37825022  1
  O  O192  1  0.74916692  0.00677822  0.86521031  1
  O  O193  1  0.75710120  0.50992642  0.37842934  1
  O  O194  1  0.75565080  0.49788070  0.86843116  1
  O  O195  1  0.24538328  0.49630064  0.12856276  1
  O  O196  1  0.25319596  0.49132384  0.63699891  1
  O  O197  1  0.24681270  0.99571742  0.12939072  1
  O  O198  1  0.24202123  1.00251588  0.63366935  1
  O  O199  1  0.73743504  0.50047151  0.12191867  1
  O  O200  1  0.74191597  0.49837356  0.63087214  1
  O  O201  1  0.73941244  0.99177524  0.12190326  1
  O  O202  1  0.74333441  1.00250437  0.63767568  1
  O  O203  1  0.00733470  0.36859977  0.25697218  1
  O  O204  1  0.00491670  0.37650385  0.75585025  1
  O  O205  1  0.00347984  0.86812819  0.25586881  1
  O  O206  1  0.00487956  0.86782883  0.74916895  1
  O  O207  1  0.50750807  0.37274885  0.25857456  1
  O  O208  1  0.49836446  0.36056371  0.75370971  1
  O  O209  1  0.51178933  0.86156765  0.24238276  1
  O  O210  1  0.49379852  0.86251690  0.76365468  1
  O  O211  1  0.50417952  0.13845789  0.24752091  1
  O  O212  1  0.49250312  0.13666875  0.75473965  1
  O  O213  1  0.49579604  0.63480484  0.24375352  1
  O  O214  1  0.48976220  0.63770331  0.74663529  1
  O  O215  1  0.98942980  0.13174020  0.25018126  1
  O  O216  1  0.99035494  0.11599094  0.74082171  1
  O  O217  1  0.99988092  0.63146674  0.24295072  1
  O  O218  1  0.99439182  0.63028387  0.74473967  1
  O  O219  1  0.36509528  0.24928076  0.00601336  1
  O  O220  1  0.38218635  0.26345969  0.49819762  1
  O  O221  1  0.36245251  0.74060633  0.00587913  1
  O  O222  1  0.37773593  0.74633552  0.51863320  1
  O  O223  1  0.86508509  0.24255270  0.00808208  1
  O  O224  1  0.87892836  0.25667907  0.50909239  1
  O  O225  1  0.87609651  0.75677677  0.00448657  1
  O  O226  1  0.87829200  0.76449066  0.50150527  1
  O  O227  1  0.11890311  0.23588441  0.49765519  1
  O  O228  1  0.14013626  0.25078649  0.99309293  1
  O  O229  1  0.11762489  0.74234127  0.48966432  1
  O  O230  1  0.12975098  0.74562895  0.99151119  1
  O  O231  1  0.62482894  0.23655688  0.50780481  1
  O  O232  1  0.63243307  0.24186487  0.99415534  1
  O  O233  1  0.62175487  0.75018186  0.49599296  1
  O  O234  1  0.62608896  0.73998428  0.99368229  1
  O  O235  1  0.49434743  0.25081528  0.13053678  1
  O  O236  1  0.50083353  0.25023005  0.63762960  1
  O  O237  1  0.49525447  0.74165655  0.13165244  1
  O  O238  1  0.49784263  0.74940518  0.63580235  1
  O  O239  1  0.99423503  0.24700096  0.12788974  1
  O  O240  1  0.99056005  0.23520689  0.62287772  1
  O  O241  1  0.99729374  0.74676607  0.13125187  1
  O  O242  1  0.99695810  0.74094684  0.63754254  1
  O  O243  1  0.00041522  0.26034039  0.36878498  1
  O  O244  1  0.01705951  0.24643374  0.88499605  1
  O  O245  1  0.00510792  0.75194762  0.36801433  1
  O  O246  1  0.00699183  0.75126899  0.86277311  1
  O  O247  1  0.49728240  0.26433458  0.36624896  1
  O  O248  1  0.51088333  0.24653562  0.87182982  1
  O  O249  1  0.51276522  0.74361665  0.36651958  1
  O  O250  1  0.50356273  0.75645441  0.87206006  1
  O  O251  1  0.24103006  0.12136737  0.49063911  1
  O  O252  1  0.25380874  0.13134979  0.98714718  1
  O  O253  1  0.24168844  0.62081011  0.49158810  1
  O  O254  1  0.23495359  0.63579147  1.00511304  1
  O  O255  1  0.74245669  0.12261896  0.49042975  1
  O  O256  1  0.74189233  0.12893222  0.98904245  1
  O  O257  1  0.74971774  0.62637451  0.49446754  1
  O  O258  1  0.73221235  0.62889249  1.00238323  1
  O  O259  1  0.25594998  0.36838180  0.00651153  1
  O  O260  1  0.26184236  0.37703751  0.50988945  1
  O  O261  1  0.24475444  0.86428088  0.01024528  1
  O  O262  1  0.26750988  0.86158763  0.45590744  1
  O  O263  1  0.74438117  0.36275136  0.00117326  1
  O  O264  1  0.76179572  0.37748940  0.50049624  1
  O  O265  1  0.76110683  0.87405410  0.00972620  1
  O  O266  1  0.76362895  0.87658450  0.49674047  1
  O  O267  1  0.13050064  0.49439419  0.24341688  1
  O  O268  1  0.13896110  0.49837431  0.75484346  1
  O  O269  1  0.13164019  0.99623850  0.24386228  1
  O  O270  1  0.13176139  0.99245908  0.74557759  1
  O  O271  1  0.62118817  0.49260783  0.24106430  1
  O  O272  1  0.62934297  0.50450148  0.73960210  1
  O  O273  1  0.62337571  0.98984168  0.24340248  1
  O  O274  1  0.63764358  1.00548945  0.73932812  1
  O  O275  1  0.36915160  0.00818347  0.25410171  1
  O  O276  1  0.36914459  0.00342727  0.75757143  1
  O  O277  1  0.36973015  0.50797347  0.25232729  1
  O  O278  1  0.36668332  0.50772556  0.75115850  1
  O  O279  1  0.87909629  0.00984232  0.25979322  1
  O  O280  1  0.86364443  0.00969425  0.74871341  1
  O  O281  1  0.87957141  0.49871600  0.26424768  1
  O  O282  1  0.86661655  0.50488614  0.75831945  1
  O  O283  1  0.11936246  0.37381415  0.37240324  1
  O  O284  1  0.12917491  0.35743145  0.87333637  1
  O  O285  1  0.11700044  0.86722502  0.36972476  1
  O  O286  1  0.12210644  0.86450344  0.86322316  1
  O  O287  1  0.61650456  0.38101261  0.36768215  1
  O  O288  1  0.62310689  0.36519130  0.86932713  1
  O  O289  1  0.63244113  0.86817333  0.36420206  1
  O  O290  1  0.61437473  0.86659173  0.88192618  1
  O  O291  1  0.37809409  0.13868494  0.12763880  1
  O  O292  1  0.37064617  0.11839844  0.63936908  1
  O  O293  1  0.38239653  0.62944799  0.12986021  1
  O  O294  1  0.37401666  0.63546575  0.63553793  1
  O  O295  1  0.87286162  0.13233485  0.13481193  1
  O  O296  1  0.88060051  0.12817247  0.62934243  1
  O  O297  1  0.88141653  0.63088630  0.12531612  1
  O  O298  1  0.88063383  0.62815826  0.63545402  1
  O  O299  1  0.25704250  0.25397628  0.11835741  1
  O  O300  1  0.25231763  0.26099030  0.62974764  1
  O  O301  1  0.25390004  0.75781654  0.12036594  1
  O  O302  1  0.25797797  0.75010019  0.62753864  1
  O  O303  1  0.75734466  0.25151775  0.11500214  1
  O  O304  1  0.76329907  0.24877139  0.63123865  1
  O  O305  1  0.75802504  0.75821941  0.12205204  1
  O  O306  1  0.74073040  0.73784233  0.61650944  1
  O  O307  1  0.25042078  0.23603452  0.36558484  1
  O  O308  1  0.24669435  0.24280865  0.87928983  1
  O  O309  1  0.23325566  0.73238576  0.35902244  1
  O  O310  1  0.24223701  0.75519087  0.88296783  1
  O  O311  1  0.75573709  0.23896580  0.37932455  1
  O  O312  1  0.74004297  0.24266822  0.87837970  1
  O  O313  1  0.73643295  0.74063747  0.37463503  1
  O  O314  1  0.73488153  0.75484953  0.87529949  1
  O  O315  1  -0.00414796  0.10962179  0.00504461  1
  O  O316  1  0.00630653  0.11661859  0.50524563  1
  O  O317  1  0.01148141  0.61945789  0.00445509  1
  O  O318  1  0.00510185  0.62325602  0.50897707  1
  O  O319  1  0.51354320  0.12424920  0.00182226  1
  O  O320  1  0.51901854  0.11916387  0.49399108  1
  O  O321  1  0.51128151  0.62993451  0.00958147  1
  O  O322  1  0.49542464  0.61195977  0.50070899  1
  O  O323  1  0.49143367  0.38224700  0.49585386  1
  O  O324  1  0.49488977  0.37362060  0.99240096  1
  O  O325  1  0.48555098  0.88803362  0.49881091  1
  O  O326  1  0.49865884  0.87346220  0.99150339  1
  O  O327  1  0.99183878  0.37417795  0.49294209  1
  O  O328  1  1.00580180  0.38671955  0.99576758  1
  O  O329  1  0.99441106  0.88077480  0.49403656  1
  O  O330  1  0.98996887  0.88272137  1.00199651  1
  O  O331  1  0.49835687  0.49138398  0.38317759  1
  O  O332  1  0.47916040  0.49998004  0.86274254  1
  O  O333  1  0.48950860  1.01098248  0.36946468  1
  O  O334  1  0.49345882  0.99088139  0.87599387  1
  O  O335  1  0.99473002  0.48678414  0.37559939  1
  O  O336  1  0.99052228  0.49925043  0.88308912  1
  O  O337  1  0.99047920  0.99558987  0.38054591  1
  O  O338  1  0.99941951  0.99714077  0.88341825  1
  O  O339  1  0.01079757  -0.00054229  0.11977809  1
  O  O340  1  0.00584050  0.00880695  0.61864216  1
  O  O341  1  0.00535494  0.50347161  0.11693580  1
  O  O342  1  -0.00770666  0.51205412  0.62558104  1
  O  O343  1  0.51302073  0.00128157  0.12439312  1
  O  O344  1  0.51563532  -0.00158008  0.63253905  1
  O  O345  1  0.50919520  0.51385991  0.12988009  1
  O  O346  1  0.50753025  0.50515869  0.62062944  1
  O  O347  1  0.24701235  0.38136055  0.24532859  1
  O  O348  1  0.24910101  0.38175197  0.73538957  1
  O  O349  1  0.24431404  0.88783414  0.24813648  1
  O  O350  1  0.24206032  0.88726657  0.75534562  1
  O  O351  1  0.73786191  0.37035732  0.24933741  1
  O  O352  1  0.74705933  0.38679760  0.74583542  1
  O  O353  1  0.74352257  0.86933946  0.23902287  1
  O  O354  1  0.75547698  0.89001916  0.75219959  1
  O  O355  1  0.25122729  0.11515322  0.25453063  1
  O  O356  1  0.25636654  0.11347553  0.75909864  1
  O  O357  1  0.25392805  0.61762996  0.25330578  1
  O  O358  1  0.25440377  0.61186244  0.74519797  1
  O  O359  1  0.75982770  0.13077513  0.26346597  1
  O  O360  1  0.75472756  0.11996395  0.76041399  1
  O  O361  1  0.75256921  0.62899767  0.25950951  1
  O  O362  1  0.75954768  0.61111644  0.74995014  1
  O  O363  1  0.36998549  0.12043923  0.37256954  1
  O  O364  1  0.36795405  0.11650295  0.86686459  1
  O  O365  1  0.36501621  0.62661231  0.37032699  1
  O  O366  1  0.37436280  0.61784192  0.86174609  1
  O  O367  1  0.86605770  0.11879403  0.37268681  1
  O  O368  1  0.86682234  0.12257723  0.86811139  1
  O  O369  1  0.86709281  0.61663461  0.37354294  1
  O  O370  1  0.88052233  0.61726446  0.86384678  1
  O  O371  1  0.13185854  0.38060076  0.12911887  1
  O  O372  1  0.14001108  0.37063443  0.62040900  1
  O  O373  1  0.13651222  0.88158293  0.13240623  1
  O  O374  1  0.12068827  0.87742641  0.63586954  1
  O  O375  1  0.62627768  0.38594643  0.13302525  1
  O  O376  1  0.62661395  0.38379708  0.62839316  1
  O  O377  1  0.63324449  0.87922076  0.13140531  1
  O  O378  1  0.62703168  0.88704489  0.62369904  1
  O  O379  1  0.11845765  0.25609607  0.25083452  1
  O  O380  1  0.12979278  0.24927663  0.76266622  1
  O  O381  1  0.11334552  0.75410121  0.25528159  1
  O  O382  1  0.11975277  0.75490233  0.75402358  1
  O  O383  1  0.61518591  0.26163219  0.24260995  1
  O  O384  1  0.61346169  0.24805231  0.75637386  1
  O  O385  1  0.61881048  0.75623644  0.25650354  1
  O  O386  1  0.61210971  0.74684402  0.76425180  1
  O  O387  1  0.38786739  0.25263440  0.24104676  1
  O  O388  1  0.38738541  0.24088110  0.75607912  1
  O  O389  1  0.38282256  0.74480896  0.24478226  1
  O  O390  1  0.37744868  0.74413348  0.74331187  1
  O  O391  1  0.88148101  0.24283025  0.24284912  1
  O  O392  1  0.87255540  0.23636283  0.74499978  1
  O  O393  1  0.88681364  0.74907884  0.24679369  1
  O  O394  1  0.87965777  0.74282963  0.74889494  1
  O  O395  1  0.38300126  0.49252012  0.50056946  1
  O  O396  1  0.36432106  0.50574090  0.98059279  1
  O  O397  1  0.37424852  1.00213433  0.48242149  1
  O  O398  1  0.37788439  1.00633524  0.98833786  1
  O  O399  1  0.87960456  0.49069813  0.48879250  1
  O  O400  1  0.88432698  0.50673762  0.99084874  1
  O  O401  1  0.87928586  0.99052433  0.49403883  1
  O  O402  1  0.88163487  0.99276506  1.00044090  1
  O  O403  1  0.11687026  -0.00946005  0.00905081  1
  O  O404  1  0.12087381  0.00550388  0.50408572  1
  O  O405  1  0.12197847  0.50712829  -0.00112171  1
  O  O406  1  0.11982705  0.51159468  0.49614850  1
  O  O407  1  0.62439326  0.00687135  0.00752982  1
  O  O408  1  0.62696021  0.00518860  0.51507258  1
  O  O409  1  0.62414445  0.51266609  0.00546131  1
  O  O410  1  0.61573870  0.49550039  0.51206762  1
  O  O411  1  0.37074873  0.36634718  0.12491841  1
  O  O412  1  0.36704317  0.37602949  0.61294478  1
  O  O413  1  0.36282098  0.87211585  0.13136064  1
  O  O414  1  0.37100399  0.86040444  0.62868353  1
  O  O415  1  0.87354068  0.36147059  0.13021452  1
  O  O416  1  0.87409985  0.36552063  0.61629010  1
  O  O417  1  0.86919766  0.87157719  0.12141373  1
  O  O418  1  0.87634290  0.87175421  0.61203931  1
  O  O419  1  0.13296569  0.12442711  0.38294637  1
  O  O420  1  0.13628423  0.13551323  0.87035033  1
  O  O421  1  0.12755889  0.63032946  0.38288771  1
  O  O422  1  0.12027000  0.63732699  0.88005441  1
  O  O423  1  0.64124684  0.12250691  0.38495144  1
  O  O424  1  0.63039517  0.12834027  0.88045711  1
  O  O425  1  0.63240983  0.63138190  0.37392675  1
  O  O426  1  0.61613733  0.63128802  0.88655697  1
