# generated using pymatgen
data_V85Zn86O256
_symmetry_space_group_name_H-M   'P 1'
_cell_length_a   16.96764802
_cell_length_b   16.97618727
_cell_length_c   16.98330300
_cell_angle_alpha   89.85449531
_cell_angle_beta   89.95723383
_cell_angle_gamma   90.04713076
_symmetry_Int_Tables_number   1
_chemical_formula_structural   V85Zn86O256
_chemical_formula_sum   'V85 Zn86 O256'
_cell_volume   4891.95319177
_cell_formula_units_Z   1
loop_
 _symmetry_equiv_pos_site_id
 _symmetry_equiv_pos_as_xyz
  1  'x, y, z'
loop_
 _atom_site_type_symbol
 _atom_site_label
 _atom_site_symmetry_multiplicity
 _atom_site_fract_x
 _atom_site_fract_y
 _atom_site_fract_z
 _atom_site_occupancy
  V  V0  1  0.13116791  0.74787473  0.37575918  1
  V  V1  1  0.25068510  0.24874265  -0.00145278  1
  V  V2  1  0.87318533  0.61138386  0.24829152  1
  V  V3  1  0.50942401  0.24325449  0.25586578  1
  V  V4  1  0.24202462  0.49791656  0.74375531  1
  V  V5  1  -0.00250531  0.87672823  0.86702884  1
  V  V6  1  0.12175540  0.13217019  -0.00106959  1
  V  V7  1  0.86746455  0.37337070  -0.00263104  1
  V  V8  1  -0.00049980  0.00439879  0.00221226  1
  V  V9  1  0.37596135  0.88120017  0.49976080  1
  V  V10  1  0.24977380  0.37515300  0.12592505  1
  V  V11  1  0.62488821  0.37906043  0.24665349  1
  V  V12  1  0.87426772  0.50442329  0.86636782  1
  V  V13  1  0.38318544  0.50905965  0.37891628  1
  V  V14  1  0.49279609  0.12327723  0.12794875  1
  V  V15  1  0.24999612  0.00033486  0.75014711  1
  V  V16  1  0.87702789  0.74817163  0.12936333  1
  V  V17  1  0.86164263  0.01145788  0.87236397  1
  V  V18  1  -0.00017434  0.49715379  -0.00222221  1
  V  V19  1  0.49439149  -0.00106900  0.00024933  1
  V  V20  1  0.12803356  0.49814792  0.12576035  1
  V  V21  1  0.87493137  0.73197493  0.62852451  1
  V  V22  1  0.50042200  0.11671713  0.61772791  1
  V  V23  1  0.50055060  0.87908204  0.38288204  1
  V  V24  1  0.75076004  -0.00216012  0.25239626  1
  V  V25  1  0.00365561  0.24550674  0.24535851  1
  V  V26  1  0.75090418  0.87198820  0.12941965  1
  V  V27  1  0.38013007  0.12243202  0.74993829  1
  V  V28  1  0.19763186  0.57288040  0.43119281  1
  V  V29  1  0.12609812  0.87496889  0.24897693  1
  V  V30  1  0.87591892  0.87393184  0.00038571  1
  V  V31  1  0.49768179  0.74515745  0.25125399  1
  V  V32  1  0.76745082  0.25445051  0.51031853  1
  V  V33  1  0.37705118  -0.00414063  0.87727235  1
  V  V34  1  0.62042114  -0.00850410  0.60827876  1
  V  V35  1  0.62252990  0.74202884  0.38064046  1
  V  V36  1  0.62778999  0.75038815  0.88119043  1
  V  V37  1  0.69266399  0.44814172  0.69098596  1
  V  V38  1  0.00976038  0.36330577  0.87042931  1
  V  V39  1  0.75507065  0.62676095  0.86732327  1
  V  V40  1  0.12684953  0.62597551  0.00090119  1
  V  V41  1  0.63967611  0.25095785  0.88324427  1
  V  V42  1  0.62726445  0.88189427  0.75466412  1
  V  V43  1  0.62095861  0.13833352  0.49505584  1
  V  V44  1  -0.00526496  0.23188970  0.73343210  1
  V  V45  1  0.37674211  0.25019042  0.62409991  1
  V  V46  1  0.62286215  -0.00048198  0.12548102  1
  V  V47  1  0.74364689  0.13455765  0.36757802  1
  V  V48  1  0.49783511  0.87368395  0.88066347  1
  V  V49  1  0.24490590  0.87649111  0.62588861  1
  V  V50  1  0.24256813  0.24294985  0.50303268  1
  V  V51  1  0.37540679  0.49901500  0.87223161  1
  V  V52  1  0.24630284  0.75036821  0.50051006  1
  V  V53  1  0.74842866  0.86911046  0.62819263  1
  V  V54  1  0.87398347  0.24761911  0.12047085  1
  V  V55  1  0.62471945  0.87200408  0.25274780  1
  V  V56  1  0.50395608  0.36973720  0.37934741  1
  V  V57  1  0.87697277  0.87134256  0.50626329  1
  V  V58  1  0.25198747  0.87566788  0.12012520  1
  V  V59  1  0.24952926  0.13034820  0.87442581  1
  V  V60  1  0.01357442  0.61700502  0.62110255  1
  V  V61  1  0.25275902  0.12474139  0.37512105  1
  V  V62  1  -0.00276428  0.74283959  0.75124991  1
  V  V63  1  0.12327371  0.00611684  0.12542307  1
  V  V64  1  0.37675198  0.37662478  0.50059359  1
  V  V65  1  0.88168316  0.12220422  0.24395920  1
  V  V66  1  0.00115853  0.87155082  0.37816905  1
  V  V67  1  0.87700516  0.49322974  0.38543274  1
  V  V68  1  0.00058129  0.62504206  0.12416869  1
  V  V69  1  0.87530913  -0.00435602  0.37326299  1
  V  V70  1  0.12435940  0.01621928  0.62165499  1
  V  V71  1  0.25499185  0.75536221  -0.00243647  1
  V  V72  1  0.75063722  0.38293192  0.12719250  1
  V  V73  1  0.26036392  0.00461629  0.24939761  1
  V  V74  1  0.50441775  0.37423094  0.86853104  1
  V  V75  1  0.50956844  0.25329891  0.74822672  1
  V  V76  1  0.37512735  0.74970873  0.12221172  1
  V  V77  1  0.50987068  0.74362755  0.73560567  1
  V  V78  1  0.37370785  0.24830310  0.13588369  1
  V  V79  1  0.24896466  0.62535411  0.87407401  1
  V  V80  1  0.37772289  0.37335981  0.00029158  1
  V  V81  1  0.75231573  0.73845255  0.49854856  1
  V  V82  1  0.12664445  0.37272182  0.25810582  1
  V  V83  1  0.00471500  0.01031879  0.50145143  1
  V  V84  1  0.74572026  0.61335130  0.37108908  1
  Zn  Zn85  1  0.12475599  0.75421547  0.87456526  1
  Zn  Zn86  1  0.00312125  0.74692637  0.25243298  1
  Zn  Zn87  1  0.24895630  0.37695915  0.62542460  1
  Zn  Zn88  1  0.50307423  0.50343015  0.00013940  1
  Zn  Zn89  1  0.63128842  0.12455061  -0.00629379  1
  Zn  Zn90  1  0.25138244  0.50314197  0.25395043  1
  Zn  Zn91  1  0.11817247  0.37269934  0.73837036  1
  Zn  Zn92  1  0.75026986  0.74682709  0.00344219  1
  Zn  Zn93  1  0.62680351  0.61888013  0.00155005  1
  Zn  Zn94  1  0.50162652  0.62098879  0.12158720  1
  Zn  Zn95  1  0.36723799  0.62598206  0.25343049  1
  Zn  Zn96  1  0.38206507  0.00494645  0.37341745  1
  Zn  Zn97  1  0.00630747  0.49858179  0.50439826  1
  Zn  Zn98  1  0.62292232  0.50134790  0.12190147  1
  Zn  Zn99  1  0.54731538  0.51953744  0.50168717  1
  Zn  Zn100  1  0.37041365  0.74935293  0.62941192  1
  Zn  Zn101  1  0.12336219  0.87684150  0.75001535  1
  Zn  Zn102  1  0.37746871  0.62680233  0.74997028  1
  Zn  Zn103  1  0.12069556  0.23770226  0.37956221  1
  Zn  Zn104  1  0.50341854  0.61289777  0.61777121  1
  Zn  Zn105  1  -0.00972334  0.36538734  0.38304059  1
  Zn  Zn106  1  0.77951553  0.04683757  0.71735648  1
  Zn  Zn107  1  0.18914849  0.18460896  0.18835376  1
  Zn  Zn108  1  0.18388424  0.19467862  0.69299844  1
  Zn  Zn109  1  0.19140727  0.68440436  0.18974582  1
  Zn  Zn110  1  0.18426115  0.68875404  0.69054531  1
  Zn  Zn111  1  0.70121225  0.17349193  0.15391435  1
  Zn  Zn112  1  0.69730494  0.19796836  0.68462638  1
  Zn  Zn113  1  0.68703338  0.68277117  0.18940091  1
  Zn  Zn114  1  0.68657718  0.66126647  0.67666128  1
  Zn  Zn115  1  0.31189524  0.31514675  0.31698581  1
  Zn  Zn116  1  0.31598639  0.31260868  0.80931887  1
  Zn  Zn117  1  0.31275821  0.81380979  0.31237908  1
  Zn  Zn118  1  0.31706045  0.81252625  0.81051523  1
  Zn  Zn119  1  0.81222511  0.31259476  0.30552479  1
  Zn  Zn120  1  0.81925738  0.31881587  0.80501217  1
  Zn  Zn121  1  0.81328060  0.80570465  0.31387563  1
  Zn  Zn122  1  0.81369655  0.81152061  0.81120499  1
  Zn  Zn123  1  0.14968193  0.39626675  0.47814957  1
  Zn  Zn124  1  0.18865359  0.43797366  0.93653872  1
  Zn  Zn125  1  0.18758695  0.93989527  0.43723852  1
  Zn  Zn126  1  0.18593019  0.93955178  0.93660575  1
  Zn  Zn127  1  0.69471358  0.42277484  0.41476073  1
  Zn  Zn128  1  0.68724500  0.44041233  0.92840064  1
  Zn  Zn129  1  0.68965653  0.93267529  0.43747638  1
  Zn  Zn130  1  0.68639458  0.93715054  0.94466575  1
  Zn  Zn131  1  0.31300489  0.06323159  0.06257365  1
  Zn  Zn132  1  0.31256131  0.06111885  0.56087875  1
  Zn  Zn133  1  0.31604542  0.56338423  0.06241130  1
  Zn  Zn134  1  0.32857102  0.56214663  0.56865099  1
  Zn  Zn135  1  0.81294422  0.06054846  0.06151503  1
  Zn  Zn136  1  0.80670429  0.06124651  0.54806231  1
  Zn  Zn137  1  0.80929873  0.56219149  0.05571858  1
  Zn  Zn138  1  0.74332275  0.52491389  0.54740511  1
  Zn  Zn139  1  0.43909037  0.43777388  0.19073469  1
  Zn  Zn140  1  0.44552926  0.44095874  0.68216312  1
  Zn  Zn141  1  0.43772376  0.92825052  0.18726994  1
  Zn  Zn142  1  0.44135397  0.92657727  0.68566985  1
  Zn  Zn143  1  0.94285398  0.43181252  0.18594261  1
  Zn  Zn144  1  0.88667350  0.48300481  0.65685685  1
  Zn  Zn145  1  0.94200987  0.93622548  0.18701634  1
  Zn  Zn146  1  0.94155661  1.05970334  0.68152468  1
  Zn  Zn147  1  0.06514558  0.06170208  0.31543178  1
  Zn  Zn148  1  0.06636682  0.05964684  0.81814733  1
  Zn  Zn149  1  0.05688930  0.55802247  0.30851876  1
  Zn  Zn150  1  0.06068795  0.56298702  0.81118412  1
  Zn  Zn151  1  0.56199339  0.06299518  0.31040020  1
  Zn  Zn152  1  0.60107295  0.08387839  0.78811926  1
  Zn  Zn153  1  0.55877930  0.55931050  0.31274718  1
  Zn  Zn154  1  0.56745025  0.56306495  0.81408431  1
  Zn  Zn155  1  0.43131067  0.18505961  0.43659924  1
  Zn  Zn156  1  0.44106251  0.18618932  0.93868572  1
  Zn  Zn157  1  0.43820324  0.69017857  0.44719094  1
  Zn  Zn158  1  0.43872689  0.68662784  0.93644183  1
  Zn  Zn159  1  0.93447923  0.18486435  0.42882888  1
  Zn  Zn160  1  0.93592389  0.18816068  0.93706844  1
  Zn  Zn161  1  0.93965656  0.68058287  0.43895316  1
  Zn  Zn162  1  0.93708923  0.68771791  0.93915468  1
  Zn  Zn163  1  0.05972630  0.31274200  0.06390998  1
  Zn  Zn164  1  0.05304122  0.31037678  0.57427422  1
  Zn  Zn165  1  0.06370838  0.81319526  0.06032183  1
  Zn  Zn166  1  0.06222583  0.81244170  0.56536510  1
  Zn  Zn167  1  0.56209168  0.31298907  0.06157194  1
  Zn  Zn168  1  0.57081751  0.32274634  0.56873477  1
  Zn  Zn169  1  0.55992476  0.81231721  0.06308869  1
  Zn  Zn170  1  0.56468522  0.78654558  0.56933553  1
  O  O171  1  0.13079258  0.11162389  0.11716237  1
  O  O172  1  0.13423431  0.11475020  0.62537981  1
  O  O173  1  0.11954210  0.61909698  0.12000374  1
  O  O174  1  0.11214336  0.62512744  0.62699078  1
  O  O175  1  0.60232708  0.11215843  0.13932947  1
  O  O176  1  0.61768281  0.11213617  0.61065896  1
  O  O177  1  0.62288826  0.62153935  0.12316929  1
  O  O178  1  0.57985401  0.69580722  0.64941167  1
  O  O179  1  0.38522792  0.38004837  0.38223221  1
  O  O180  1  0.37929164  0.38025510  0.88239620  1
  O  O181  1  0.38351154  0.87458452  0.38198627  1
  O  O182  1  0.38198189  0.88804336  0.87252577  1
  O  O183  1  0.87592439  0.38986467  0.36391914  1
  O  O184  1  0.88519903  0.38647813  0.88319354  1
  O  O185  1  0.88021150  0.87343707  0.38398258  1
  O  O186  1  0.87973380  0.88024331  0.88618980  1
  O  O187  1  0.25107894  0.00368964  0.36431373  1
  O  O188  1  0.25856905  0.00747696  0.87262847  1
  O  O189  1  0.25779136  0.50752021  0.38036658  1
  O  O190  1  0.25555750  0.50718226  0.86902330  1
  O  O191  1  0.75681920  0.00342229  0.36976935  1
  O  O192  1  0.76250095  -0.00317113  0.88453128  1
  O  O193  1  0.76588478  0.50773391  0.36246585  1
  O  O194  1  0.76713045  0.50911324  0.87966997  1
  O  O195  1  0.24511513  0.49078710  0.12206761  1
  O  O196  1  0.25930949  0.50179180  0.64258129  1
  O  O197  1  0.24437939  0.99501763  0.12999146  1
  O  O198  1  0.24335770  0.99509056  0.62935855  1
  O  O199  1  0.75307796  0.48618566  0.12395066  1
  O  O200  1  0.68991399  0.55284612  0.64597570  1
  O  O201  1  0.74656175  0.98724625  0.13534872  1
  O  O202  1  0.73823608  0.98130382  0.61879738  1
  O  O203  1  0.01016406  0.36517513  0.25341893  1
  O  O204  1  0.00171356  0.37397475  0.76894324  1
  O  O205  1  0.01283076  0.87264459  0.25550278  1
  O  O206  1  -0.00059447  0.86934344  0.76505200  1
  O  O207  1  0.50349073  0.36136199  0.25499957  1
  O  O208  1  0.48681660  0.36514115  0.75941848  1
  O  O209  1  0.50459123  0.86216678  0.25818778  1
  O  O210  1  0.50909643  0.87342187  0.76756203  1
  O  O211  1  0.49481685  0.13632512  0.24803292  1
  O  O212  1  0.50058869  0.13212955  0.73529160  1
  O  O213  1  0.49520207  0.63710972  0.25052144  1
  O  O214  1  0.49766606  0.63868997  0.76294791  1
  O  O215  1  0.99247941  0.12960138  0.25330022  1
  O  O216  1  1.00241324  0.12753073  0.75245644  1
  O  O217  1  0.99283944  0.62766112  0.24107139  1
  O  O218  1  1.00331885  0.63361080  0.74065371  1
  O  O219  1  0.37029087  0.25519111  0.00877325  1
  O  O220  1  0.37083680  0.25659783  0.50784897  1
  O  O221  1  0.36251538  0.74799061  0.00546449  1
  O  O222  1  0.35992380  0.76033199  0.49994231  1
  O  O223  1  0.88305230  0.25957803  0.01005370  1
  O  O224  1  0.86671470  0.24348209  0.49599893  1
  O  O225  1  0.87730528  0.75784259  0.01322153  1
  O  O226  1  0.87050515  0.75223926  0.50491102  1
  O  O227  1  0.13941633  0.25301312  0.49903055  1
  O  O228  1  0.13075327  0.23753806  1.00988723  1
  O  O229  1  0.13743966  0.75469855  0.49286812  1
  O  O230  1  0.13572821  0.74351458  0.99891388  1
  O  O231  1  0.62720878  0.23930376  0.50537284  1
  O  O232  1  0.62218084  0.25090668  0.98664811  1
  O  O233  1  0.63671645  0.75317801  0.48621175  1
  O  O234  1  0.62761406  0.75663515  0.98979671  1
  O  O235  1  0.49294258  0.24185406  0.13224324  1
  O  O236  1  0.49276168  0.24566004  0.63004115  1
  O  O237  1  0.49094508  0.75239395  0.13369840  1
  O  O238  1  0.47822026  0.79747382  0.64442816  1
  O  O239  1  0.98934344  0.25494847  0.13728671  1
  O  O240  1  0.98925646  0.23947655  0.63341825  1
  O  O241  1  0.99403582  0.74402154  0.12558244  1
  O  O242  1  0.99455355  0.74213484  0.63131148  1
  O  O243  1  0.00309462  0.24894902  0.36173589  1
  O  O244  1  0.00323258  0.26300003  0.88248728  1
  O  O245  1  0.01342946  0.75214602  0.37686799  1
  O  O246  1  -0.00145448  0.75594323  0.86924584  1
  O  O247  1  0.49191615  0.25269565  0.36102510  1
  O  O248  1  0.49349611  0.25828837  0.86431313  1
  O  O249  1  0.50715300  0.75519495  0.36918808  1
  O  O250  1  0.50737807  0.75994949  0.87345370  1
  O  O251  1  0.25688514  0.13274775  0.49117978  1
  O  O252  1  0.24468305  0.12949039  0.99399011  1
  O  O253  1  0.25417945  0.62987567  0.49842786  1
  O  O254  1  0.24604286  0.63171401  0.99309603  1
  O  O255  1  0.74101045  0.13493849  0.48598893  1
  O  O256  1  0.72890535  0.12881536  1.04830984  1
  O  O257  1  0.75832687  0.63417407  0.48622912  1
  O  O258  1  0.74802677  0.63053426  0.98937357  1
  O  O259  1  0.25815395  0.36752996  0.00266086  1
  O  O260  1  0.25999097  0.36021708  0.50147558  1
  O  O261  1  0.24338630  0.86639102  0.00640926  1
  O  O262  1  0.25395766  0.86869253  0.50531602  1
  O  O263  1  0.76375202  0.37851718  0.00438474  1
  O  O264  1  0.74965582  0.34737515  0.47884403  1
  O  O265  1  0.76339792  0.87460701  0.01045882  1
  O  O266  1  0.75696679  0.86075995  0.50429603  1
  O  O267  1  0.12470182  0.48913754  0.24349608  1
  O  O268  1  0.13984310  0.49804956  0.75590513  1
  O  O269  1  0.12981278  0.99305346  0.24113176  1
  O  O270  1  0.13253427  0.99806313  0.74265774  1
  O  O271  1  0.61541888  0.48241614  0.24648010  1
  O  O272  1  0.63067455  0.48557728  0.76704596  1
  O  O273  1  0.62940123  0.99043516  0.24564808  1
  O  O274  1  0.61868746  0.98425378  0.73350938  1
  O  O275  1  0.36227431  -0.01033898  0.24941797  1
  O  O276  1  0.37145519  0.00433224  0.75686340  1
  O  O277  1  0.37428821  0.49770699  0.26639841  1
  O  O278  1  0.36766544  0.50037701  0.76239151  1
  O  O279  1  0.87343089  0.00359091  0.25288053  1
  O  O280  1  0.87324531  -0.00196106  0.76979691  1
  O  O281  1  0.88385009  0.50993151  0.24864294  1
  O  O282  1  0.88780793  0.50426514  0.76982080  1
  O  O283  1  0.13357372  0.36548817  0.36081159  1
  O  O284  1  0.11126114  0.37951185  0.87750637  1
  O  O285  1  0.12212236  0.86782942  0.36712439  1
  O  O286  1  0.11237634  0.87529475  0.87618622  1
  O  O287  1  0.61049953  0.36623448  0.36185490  1
  O  O288  1  0.60944926  0.36394669  0.88208918  1
  O  O289  1  0.61892420  0.86531288  0.37178413  1
  O  O290  1  0.62029202  0.87563182  0.87167775  1
  O  O291  1  0.38293181  0.13307462  0.12353306  1
  O  O292  1  0.38365442  0.12781005  0.62808181  1
  O  O293  1  0.37563668  0.63888101  0.12646762  1
  O  O294  1  0.38576052  0.63394908  0.63189340  1
  O  O295  1  0.87527457  0.13151441  0.13631521  1
  O  O296  1  0.84786691  0.10199132  0.64097749  1
  O  O297  1  0.87819851  0.63071482  0.12952574  1
  O  O298  1  0.88286527  0.63291184  0.62734606  1
  O  O299  1  0.25757956  0.25454270  0.12099643  1
  O  O300  1  0.26432416  0.24329738  0.62060587  1
  O  O301  1  0.25446534  0.75523703  0.11663084  1
  O  O302  1  0.24848370  0.75798931  0.61945128  1
  O  O303  1  0.76948153  0.26503367  0.13412030  1
  O  O304  1  0.75377826  0.25493672  0.61058943  1
  O  O305  1  0.75967440  0.75591223  0.12693562  1
  O  O306  1  0.75542892  0.74704688  0.61592028  1
  O  O307  1  0.25232106  0.24067895  0.38346144  1
  O  O308  1  0.25897627  0.23673129  0.87917949  1
  O  O309  1  0.23880379  0.75478764  0.38178842  1
  O  O310  1  0.25011496  0.74401056  0.88075453  1
  O  O311  1  0.75274204  0.23496654  0.36732923  1
  O  O312  1  0.73729876  0.25896739  0.87136772  1
  O  O313  1  0.74320977  0.74039477  0.38016992  1
  O  O314  1  0.74486404  0.75034925  0.88182073  1
  O  O315  1  0.00969694  0.11590479  -0.00422822  1
  O  O316  1  -0.00427285  0.10847439  0.48808381  1
  O  O317  1  0.00594229  0.61771959  0.00526688  1
  O  O318  1  0.00018316  0.62143054  0.51620328  1
  O  O319  1  0.50158346  0.11696849  0.01182993  1
  O  O320  1  0.50434472  0.12991627  0.50907588  1
  O  O321  1  0.50494640  0.62386229  0.00127208  1
  O  O322  1  0.51178700  0.63037479  0.50275865  1
  O  O323  1  0.49333418  0.36402876  0.49023679  1
  O  O324  1  0.48604874  0.37140048  0.99235207  1
  O  O325  1  0.48999427  0.86119176  0.49036503  1
  O  O326  1  0.50195041  0.88284230  0.98969811  1
  O  O327  1  1.02941088  0.38478118  0.48966358  1
  O  O328  1  0.99428172  0.38267524  0.99533750  1
  O  O329  1  0.99182666  0.87770650  0.49656352  1
  O  O330  1  0.99086257  0.88014845  0.99462272  1
  O  O331  1  0.49692173  0.48809094  0.38272021  1
  O  O332  1  0.49015712  0.49088030  0.87578065  1
  O  O333  1  0.50005894  0.98311428  0.36740116  1
  O  O334  1  0.49247781  0.99509615  0.88487879  1
  O  O335  1  0.98633846  0.50159804  0.37919280  1
  O  O336  1  0.99539731  0.49887436  0.88652636  1
  O  O337  1  0.99555798  0.98915651  0.37886498  1
  O  O338  1  0.99263483  0.99273065  0.88664510  1
  O  O339  1  0.00960940  -0.00661836  0.11188463  1
  O  O340  1  0.01196112  -0.00011847  0.61449932  1
  O  O341  1  0.00658258  0.50283216  0.11419123  1
  O  O342  1  -0.00822386  0.51246507  0.62510964  1
  O  O343  1  0.49778220  0.00257673  0.12039077  1
  O  O344  1  0.50543381  0.00623560  0.62513527  1
  O  O345  1  0.49855961  0.50081018  0.11997991  1
  O  O346  1  0.50039713  0.49966869  0.60758610  1
  O  O347  1  0.24480775  0.37768348  0.24279015  1
  O  O348  1  0.24905068  0.38803986  0.75277186  1
  O  O349  1  0.23953644  0.88037361  0.24364584  1
  O  O350  1  0.24873633  0.88147070  0.74306316  1
  O  O351  1  0.73593783  0.37086660  0.24262578  1
  O  O352  1  0.74940427  0.38911535  0.75502109  1
  O  O353  1  0.74566580  0.87686386  0.24895762  1
  O  O354  1  0.74294413  0.86697317  0.73662740  1
  O  O355  1  0.25031864  0.11323187  0.25411440  1
  O  O356  1  0.25666819  0.12063279  0.75860408  1
  O  O357  1  0.25360383  0.61757450  0.25058675  1
  O  O358  1  0.25048863  0.61695054  0.75822273  1
  O  O359  1  0.75526704  0.11555926  0.25025006  1
  O  O360  1  0.70711709  0.11856030  0.75812310  1
  O  O361  1  0.76343893  0.63269526  0.26006022  1
  O  O362  1  0.75470334  0.64447117  0.76890932  1
  O  O363  1  0.36239783  0.11897900  0.37433353  1
  O  O364  1  0.37188793  0.11420866  0.87082523  1
  O  O365  1  0.38448516  0.61154302  0.37839917  1
  O  O366  1  0.36280639  0.61634433  0.87681987  1
  O  O367  1  0.86545242  0.11592720  0.36043704  1
  O  O368  1  0.87230779  0.10984887  0.88632950  1
  O  O369  1  0.87115052  0.61641840  0.36609754  1
  O  O370  1  0.87192976  0.61263580  0.88376193  1
  O  O371  1  0.13096799  0.37804441  0.13283098  1
  O  O372  1  0.13522515  0.37127606  0.62350188  1
  O  O373  1  0.12997594  0.88318267  0.13070913  1
  O  O374  1  0.13534044  0.88124105  0.62545327  1
  O  O375  1  0.63426178  0.37228427  0.12957809  1
  O  O376  1  0.63314630  0.38570703  0.63651633  1
  O  O377  1  0.62955458  0.87878556  0.13221805  1
  O  O378  1  0.63106767  0.87455810  0.62846923  1
  O  O379  1  0.11808545  0.25408506  0.24575113  1
  O  O380  1  0.10323251  0.25277983  0.74775157  1
  O  O381  1  0.12581450  0.75824626  0.25659493  1
  O  O382  1  0.11235274  0.75590180  0.75304369  1
  O  O383  1  0.60885072  0.25327723  0.24110529  1
  O  O384  1  0.61144938  0.25365093  0.75936135  1
  O  O385  1  0.61827955  0.75431850  0.25942566  1
  O  O386  1  0.61948546  0.76719245  0.76933904  1
  O  O387  1  0.38217818  0.25773429  0.23817213  1
  O  O388  1  0.38092851  0.24059503  0.74113688  1
  O  O389  1  0.38156960  0.74974458  0.24411979  1
  O  O390  1  0.38946543  0.74725355  0.75372936  1
  O  O391  1  0.88389879  0.24040855  0.24478017  1
  O  O392  1  0.89912551  0.25104993  0.76316719  1
  O  O393  1  0.88063336  0.74463140  0.23981113  1
  O  O394  1  0.88803141  0.75787628  0.73989668  1
  O  O395  1  0.36853094  0.48371200  0.49360732  1
  O  O396  1  0.37190032  0.48999732  0.98821217  1
  O  O397  1  0.37037608  0.98493558  0.49477996  1
  O  O398  1  0.38548107  1.00385015  0.99364360  1
  O  O399  1  0.87175485  0.49903189  0.48390893  1
  O  O400  1  0.88504978  0.49197628  0.99679133  1
  O  O401  1  0.87992626  0.98823965  0.49121079  1
  O  O402  1  0.88253915  0.99282059  0.99977659  1
  O  O403  1  0.11877090  0.00774560  0.00658170  1
  O  O404  1  0.11581978  -0.00560059  0.50839442  1
  O  O405  1  0.11941266  0.50534895  0.00530733  1
  O  O406  1  0.13880157  0.51355756  0.48705857  1
  O  O407  1  0.61177501  0.00098997  0.00821648  1
  O  O408  1  0.62732738  0.00291476  0.50557663  1
  O  O409  1  0.62230328  0.49782210  0.00097784  1
  O  O410  1  0.65480314  0.50382416  0.47781564  1
  O  O411  1  0.36990457  0.36797967  0.11730806  1
  O  O412  1  0.37275909  0.36519655  0.61798304  1
  O  O413  1  0.36551769  0.86024840  0.12775738  1
  O  O414  1  0.35628658  0.88223763  0.61672446  1
  O  O415  1  0.87189883  0.36964868  0.11803775  1
  O  O416  1  0.79006791  0.44987208  0.62092910  1
  O  O417  1  0.87359771  0.86691536  0.12158832  1
  O  O418  1  0.86431531  0.86279641  0.61112528  1
  O  O419  1  0.14318679  0.12369939  0.36972192  1
  O  O420  1  0.13809278  0.11794993  0.88728977  1
  O  O421  1  0.12921674  0.62872222  0.37259280  1
  O  O422  1  0.13596483  0.62646103  0.88089994  1
  O  O423  1  0.63208263  0.11725481  0.38288126  1
  O  O424  1  0.61285664  0.14723898  0.88193093  1
  O  O425  1  0.63527155  0.63214449  0.36161505  1
  O  O426  1  0.63508901  0.63684705  0.87746290  1
