# generated using pymatgen
data_V85Zn86O256
_symmetry_space_group_name_H-M   'P 1'
_cell_length_a   16.92693501
_cell_length_b   16.92889698
_cell_length_c   16.92030726
_cell_angle_alpha   89.91524940
_cell_angle_beta   89.95969749
_cell_angle_gamma   90.00273728
_symmetry_Int_Tables_number   1
_chemical_formula_structural   V85Zn86O256
_chemical_formula_sum   'V85 Zn86 O256'
_cell_volume   4848.58095557
_cell_formula_units_Z   1
loop_
 _symmetry_equiv_pos_site_id
 _symmetry_equiv_pos_as_xyz
  1  'x, y, z'
loop_
 _atom_site_type_symbol
 _atom_site_label
 _atom_site_symmetry_multiplicity
 _atom_site_fract_x
 _atom_site_fract_y
 _atom_site_fract_z
 _atom_site_occupancy
  V  V0  1  0.24739702  0.87291715  0.12186074  1
  V  V1  1  0.62524110  0.25222993  0.86473752  1
  V  V2  1  0.24357755  -0.00186451  0.24473719  1
  V  V3  1  0.87493405  0.87398109  0.49813053  1
  V  V4  1  -0.00074468  0.37375934  0.37653139  1
  V  V5  1  0.01372919  0.50587335  0.50429689  1
  V  V6  1  -0.00067247  0.62388600  0.12473606  1
  V  V7  1  0.62386667  0.62571645  0.49859529  1
  V  V8  1  0.50999477  0.75565734  0.75022747  1
  V  V9  1  0.37436985  0.50112692  0.86891155  1
  V  V10  1  0.24912822  0.50313753  0.25012311  1
  V  V11  1  0.62399294  0.75046922  0.37332010  1
  V  V12  1  0.37731387  0.37259468  0.50244807  1
  V  V13  1  0.38292226  0.89499493  0.00084039  1
  V  V14  1  0.48614540  0.12954293  0.62646723  1
  V  V15  1  0.12153876  0.37289091  0.25027277  1
  V  V16  1  0.25006226  0.12304576  0.37753623  1
  V  V17  1  0.48446964  0.25243308  0.74382787  1
  V  V18  1  0.37595045  0.12563881  0.25205288  1
  V  V19  1  0.49765395  0.12091264  0.12363379  1
  V  V20  1  0.24890065  0.37559963  0.12272801  1
  V  V21  1  0.87470537  0.62741329  0.25002052  1
  V  V22  1  0.10879769  0.87150107  0.75345259  1
  V  V23  1  0.50557899  0.37649855  0.86715960  1
  V  V24  1  0.26539963  0.74903308  -0.00101345  1
  V  V25  1  0.75008730  0.62751771  0.37517384  1
  V  V26  1  0.24588073  0.23967336  -0.00226571  1
  V  V27  1  0.37389263  0.63815660  0.74673648  1
  V  V28  1  0.12211077  0.37928589  0.75600102  1
  V  V29  1  0.49389205  0.63202649  0.12414460  1
  V  V30  1  0.23491200  0.63063242  0.38543139  1
  V  V31  1  0.62540136  0.12466776  0.49925395  1
  V  V32  1  0.24583888  0.37683978  0.62542057  1
  V  V33  1  0.12450786  0.24751239  0.37763766  1
  V  V34  1  0.26537541  0.87240276  0.63692105  1
  V  V35  1  0.02095237  0.11913089  0.12234741  1
  V  V36  1  0.24683260  0.50433503  0.74293699  1
  V  V37  1  0.12747981  0.23831371  0.87752886  1
  V  V38  1  0.87493657  0.50045556  0.37841220  1
  V  V39  1  0.75155682  0.12469019  0.87580501  1
  V  V40  1  0.50216558  0.88871059  0.87329220  1
  V  V41  1  0.00048614  0.25357412  0.76143041  1
  V  V42  1  0.49485428  0.63459070  0.62090142  1
  V  V43  1  0.61666375  0.12216363  -0.00280639  1
  V  V44  1  0.50182746  0.49903590  -0.00034892  1
  V  V45  1  0.62025673  0.25879230  0.37759071  1
  V  V46  1  0.25058472  0.76366175  0.50084717  1
  V  V47  1  0.75461843  0.00864174  0.24968700  1
  V  V48  1  0.87573567  0.12227538  0.75468996  1
  V  V49  1  0.00247409  0.49479239  -0.00857457  1
  V  V50  1  0.87811897  0.37144651  -0.00249831  1
  V  V51  1  0.62483802  0.87854464  0.24817741  1
  V  V52  1  0.87447550  0.49866121  0.87179639  1
  V  V53  1  0.62196159  0.49873208  0.63278697  1
  V  V54  1  0.31305394  0.06692180  0.81128350  1
  V  V55  1  0.63278916  0.62812158  -0.00050884  1
  V  V56  1  0.12764384  0.62634574  -0.00240595  1
  V  V57  1  0.01321536  -0.01034421  0.00078397  1
  V  V58  1  0.87866409  0.74832740  0.63144496  1
  V  V59  1  0.75069036  0.24979690  0.50138670  1
  V  V60  1  0.00202614  0.12397778  0.62991776  1
  V  V61  1  0.49529430  -0.00113882  0.50111057  1
  V  V62  1  0.74907622  0.49868814  0.25066110  1
  V  V63  1  0.87673990  -0.01601545  0.88632678  1
  V  V64  1  0.49614363  0.87250680  0.37840271  1
  V  V65  1  0.37254798  -0.00675459  0.37789064  1
  V  V66  1  0.87658541  0.24986974  0.62808725  1
  V  V67  1  0.01283896  0.62752197  0.62892858  1
  V  V68  1  0.37416051  0.37430678  -0.00194515  1
  V  V69  1  0.50009277  0.49760761  0.49513199  1
  V  V70  1  0.74599381  0.87450082  0.62907916  1
  V  V71  1  0.12911752  -0.00388949  0.63371155  1
  V  V72  1  0.87329884  0.23579231  0.12999064  1
  V  V73  1  0.25375041  0.24787280  0.50670962  1
  V  V74  1  0.11324209  0.75371584  0.87501828  1
  V  V75  1  0.00945301  0.86789365  0.37404511  1
  V  V76  1  0.74932131  0.37329844  0.12568637  1
  V  V77  1  0.00183482  -0.00075256  0.50125118  1
  V  V78  1  0.12273283  0.49811261  0.12256394  1
  V  V79  1  0.37577647  0.50076720  0.37415616  1
  V  V80  1  0.87398240  0.75758041  0.12012729  1
  V  V81  1  0.87570127  0.37689893  0.50353141  1
  V  V82  1  0.74545509  0.37522001  0.63426870  1
  V  V83  1  0.49744635  0.25862261  0.25326939  1
  V  V84  1  0.62406524  -0.00099300  0.63252012  1
  Zn  Zn85  1  0.00772809  0.74463504  0.25417733  1
  Zn  Zn86  1  0.12623585  0.12359446  0.50463213  1
  Zn  Zn87  1  0.75346425  0.87979179  0.12330577  1
  Zn  Zn88  1  -0.00833961  0.23312402  0.25794989  1
  Zn  Zn89  1  0.75841980  0.76579309  -0.00991650  1
  Zn  Zn90  1  0.62079717  0.37661470  0.25315069  1
  Zn  Zn91  1  0.62423655  0.49886946  0.12548129  1
  Zn  Zn92  1  0.37481434  0.25190653  0.12607056  1
  Zn  Zn93  1  0.74693808  0.25033103  -0.00038868  1
  Zn  Zn94  1  0.62912685  0.75799665  0.87247969  1
  Zn  Zn95  1  0.24978046  0.62956851  0.87060896  1
  Zn  Zn96  1  0.74771672  -0.00336123  0.75375282  1
  Zn  Zn97  1  0.87643703  0.62758908  0.75027749  1
  Zn  Zn98  1  0.74494912  0.49948998  0.75380762  1
  Zn  Zn99  1  0.62096104  -0.00127416  0.12061233  1
  Zn  Zn100  1  0.75007248  0.75144018  0.49955214  1
  Zn  Zn101  1  0.75881438  0.12855847  0.37234949  1
  Zn  Zn102  1  0.75055913  0.62773777  0.86864402  1
  Zn  Zn103  1  0.87986283  0.00529541  0.36840314  1
  Zn  Zn104  1  0.37008474  0.63174127  0.24645092  1
  Zn  Zn105  1  0.49329743  0.75519513  0.24394936  1
  Zn  Zn106  1  0.12781273  0.86993779  0.24740306  1
  Zn  Zn107  1  0.19077792  0.18974093  0.19010440  1
  Zn  Zn108  1  0.18808894  0.18835306  0.68960626  1
  Zn  Zn109  1  0.18777957  0.69094674  0.18552757  1
  Zn  Zn110  1  0.18810506  0.69641340  0.68549879  1
  Zn  Zn111  1  0.68282128  0.18835969  0.18723641  1
  Zn  Zn112  1  0.68397677  0.18519136  0.68847120  1
  Zn  Zn113  1  0.68460403  0.68945108  0.18519554  1
  Zn  Zn114  1  0.69134116  0.68425513  0.68584187  1
  Zn  Zn115  1  0.31234797  0.31588562  0.31678132  1
  Zn  Zn116  1  0.30964950  0.31048429  0.81441235  1
  Zn  Zn117  1  0.31127528  0.80840626  0.31100520  1
  Zn  Zn118  1  0.31312741  0.81941017  0.81920127  1
  Zn  Zn119  1  0.81176240  0.31010624  0.31299834  1
  Zn  Zn120  1  0.81368263  0.31313705  0.81446712  1
  Zn  Zn121  1  0.81499364  0.81618434  0.30960544  1
  Zn  Zn122  1  0.81070091  0.81124710  0.80931144  1
  Zn  Zn123  1  0.18996244  0.43647145  0.43595504  1
  Zn  Zn124  1  0.18840650  0.43522967  0.93075874  1
  Zn  Zn125  1  0.18719850  0.93599321  0.44273924  1
  Zn  Zn126  1  0.19320291  0.93770144  0.93166938  1
  Zn  Zn127  1  0.68828308  0.43724145  0.44218655  1
  Zn  Zn128  1  0.68837394  0.43824106  0.93899721  1
  Zn  Zn129  1  0.68746616  0.93936241  0.43642143  1
  Zn  Zn130  1  0.68501211  0.93927859  0.93963640  1
  Zn  Zn131  1  0.31215836  0.06298026  0.06500374  1
  Zn  Zn132  1  0.31056177  0.05712952  0.56779123  1
  Zn  Zn133  1  0.31296154  0.56207623  0.05910929  1
  Zn  Zn134  1  0.31228475  0.56577952  0.56225364  1
  Zn  Zn135  1  0.80628107  0.05725458  0.05868835  1
  Zn  Zn136  1  0.81345552  0.06143986  0.56227252  1
  Zn  Zn137  1  0.81481875  0.56049878  0.06262252  1
  Zn  Zn138  1  0.81267407  0.56357134  0.56469867  1
  Zn  Zn139  1  0.43676122  0.44081201  0.18480422  1
  Zn  Zn140  1  0.43455262  0.43886445  0.68365305  1
  Zn  Zn141  1  0.43254463  0.93576624  0.18765181  1
  Zn  Zn142  1  0.43893268  0.94304751  0.69518283  1
  Zn  Zn143  1  0.93581382  0.43416806  0.18643870  1
  Zn  Zn144  1  0.94182986  0.43891146  0.68525058  1
  Zn  Zn145  1  0.94224321  0.94209010  0.18619763  1
  Zn  Zn146  1  0.93415584  0.93732163  0.68967876  1
  Zn  Zn147  1  0.06102677  0.06069703  0.31201682  1
  Zn  Zn148  1  0.06274059  0.05657066  0.81768496  1
  Zn  Zn149  1  0.06116802  0.56019869  0.31217616  1
  Zn  Zn150  1  0.06324612  0.56577363  0.81051304  1
  Zn  Zn151  1  0.56383041  0.06559381  0.31278202  1
  Zn  Zn152  1  0.55589522  0.06888116  0.81009214  1
  Zn  Zn153  1  0.56184575  0.56226309  0.31034894  1
  Zn  Zn154  1  0.56103265  0.56832866  0.81243014  1
  Zn  Zn155  1  0.43721443  0.18676859  0.43756643  1
  Zn  Zn156  1  0.43485920  0.18836327  0.93575916  1
  Zn  Zn157  1  0.42819291  0.68880108  0.43431800  1
  Zn  Zn158  1  0.44361794  0.68754366  0.93177154  1
  Zn  Zn159  1  0.93681713  0.18339694  0.44058484  1
  Zn  Zn160  1  0.94017123  0.18248572  0.94388678  1
  Zn  Zn161  1  0.93915429  0.68815470  0.44297088  1
  Zn  Zn162  1  0.93667405  0.68375558  0.93895799  1
  Zn  Zn163  1  0.05958709  0.30655337  0.06289847  1
  Zn  Zn164  1  0.06417180  0.31411019  0.56683211  1
  Zn  Zn165  1  0.06558574  0.81083095  0.06352116  1
  Zn  Zn166  1  0.06938545  0.80771882  0.56061643  1
  Zn  Zn167  1  0.56251411  0.30703225  0.06092309  1
  Zn  Zn168  1  0.56144035  0.31427559  0.56397613  1
  Zn  Zn169  1  0.56383026  0.81393573  0.05769717  1
  Zn  Zn170  1  0.56174938  0.81358287  0.56073193  1
  O  O171  1  0.11915549  0.12971498  0.12249956  1
  O  O172  1  0.12038871  0.11374253  0.62768285  1
  O  O173  1  0.11940792  0.61647624  0.11747588  1
  O  O174  1  0.11193763  0.62863494  0.63016756  1
  O  O175  1  0.61557263  0.12901199  0.11449811  1
  O  O176  1  0.61799920  0.12002550  0.61437277  1
  O  O177  1  0.61750210  0.62193510  0.11498421  1
  O  O178  1  0.61655836  0.61840345  0.61659426  1
  O  O179  1  0.36582495  0.39031438  0.38804775  1
  O  O180  1  0.38463325  0.38005304  0.87876334  1
  O  O181  1  0.38041977  0.88602349  0.37370423  1
  O  O182  1  0.38748296  0.87109612  0.89043259  1
  O  O183  1  0.88048375  0.37868883  0.38219640  1
  O  O184  1  0.87131630  0.37813718  0.89060245  1
  O  O185  1  0.88335519  0.88068646  0.38371604  1
  O  O186  1  0.87255065  0.88622762  0.87367776  1
  O  O187  1  0.25697129  0.00264842  0.37426445  1
  O  O188  1  0.26186370  -0.00121954  0.86871396  1
  O  O189  1  0.25327138  0.50605897  0.36713415  1
  O  O190  1  0.25653628  0.50302447  0.86157951  1
  O  O191  1  0.75009259  0.00192595  0.36227774  1
  O  O192  1  0.75993523  0.00682777  0.87434831  1
  O  O193  1  0.75505954  0.50416613  0.36967709  1
  O  O194  1  0.75913867  0.50084539  0.87370237  1
  O  O195  1  0.24432718  0.49562489  0.13079912  1
  O  O196  1  0.25255437  0.49377085  0.63500251  1
  O  O197  1  0.25740733  0.99120843  0.13528254  1
  O  O198  1  0.23662297  0.98538163  0.61869498  1
  O  O199  1  0.75058164  0.49167682  0.13378461  1
  O  O200  1  0.74022081  0.49210446  0.62403505  1
  O  O201  1  0.74212827  1.00099402  0.13639155  1
  O  O202  1  0.74104995  0.99472784  0.62529714  1
  O  O203  1  0.00537218  0.37438587  0.25910217  1
  O  O204  1  0.01011458  0.36573662  0.74223789  1
  O  O205  1  0.00163575  0.88050705  0.26606950  1
  O  O206  1  0.01015574  0.87075458  0.74807621  1
  O  O207  1  0.49957188  0.36343734  0.24539302  1
  O  O208  1  0.49689189  0.36645937  0.75427056  1
  O  O209  1  0.50479937  0.87852990  0.26310701  1
  O  O210  1  0.49291413  0.86744382  0.76203474  1
  O  O211  1  0.49461932  0.13565746  0.24686705  1
  O  O212  1  0.50219703  0.14235195  0.74018190  1
  O  O213  1  0.50178038  0.62153740  0.23224851  1
  O  O214  1  0.49352185  0.63341528  0.74098702  1
  O  O215  1  1.00362576  0.11916760  0.23143786  1
  O  O216  1  0.99568472  0.13182919  0.74779517  1
  O  O217  1  0.99174611  0.62071205  0.24303072  1
  O  O218  1  0.99455414  0.61684137  0.73272148  1
  O  O219  1  0.36759863  0.26344092  -0.00121851  1
  O  O220  1  0.36591268  0.26029198  0.49189502  1
  O  O221  1  0.36663858  0.74658435  -0.00510492  1
  O  O222  1  0.34988446  0.73331240  0.50338267  1
  O  O223  1  0.87429274  0.25636949  0.01125447  1
  O  O224  1  0.87261157  0.25731984  0.50956755  1
  O  O225  1  0.87334749  0.74203037  0.01573961  1
  O  O226  1  0.87335248  0.76151597  0.50688623  1
  O  O227  1  0.13131935  0.25017421  0.49154943  1
  O  O228  1  0.13363778  0.25900656  0.98981321  1
  O  O229  1  0.14846578  0.74660803  0.50593602  1
  O  O230  1  0.13285212  0.74720313  0.98996013  1
  O  O231  1  0.62784245  0.24428429  0.49626809  1
  O  O232  1  0.62462234  0.24216182  0.98555791  1
  O  O233  1  0.62677584  0.74394644  0.49098334  1
  O  O234  1  0.62674244  0.73571318  0.99941676  1
  O  O235  1  0.49741615  0.24277400  0.13539234  1
  O  O236  1  0.50359447  0.24620058  0.63632810  1
  O  O237  1  0.50331321  0.73474289  0.12243361  1
  O  O238  1  0.50165461  0.74166391  0.62890847  1
  O  O239  1  0.99035086  0.23502697  0.12627959  1
  O  O240  1  0.99635148  0.24383251  0.63442434  1
  O  O241  1  0.99107297  0.73897046  0.12370716  1
  O  O242  1  0.99411826  0.73515101  0.61415057  1
  O  O243  1  0.00780925  0.25339129  0.37626010  1
  O  O244  1  0.00275604  0.24821135  0.86620373  1
  O  O245  1  -0.00479455  0.76448240  0.37628421  1
  O  O246  1  0.01406155  0.74853857  0.88312062  1
  O  O247  1  0.50806358  0.24614776  0.36736137  1
  O  O248  1  0.50348184  0.25752419  0.86251775  1
  O  O249  1  0.50459976  0.75839307  0.37838143  1
  O  O250  1  0.50612312  0.75682697  0.86469954  1
  O  O251  1  0.24860118  0.13145659  0.49709136  1
  O  O252  1  0.25369922  0.14104283  1.00756815  1
  O  O253  1  0.24356211  0.61648979  0.48629000  1
  O  O254  1  0.24472942  0.63150450  0.99723498  1
  O  O255  1  0.74179228  0.13197844  0.50256702  1
  O  O256  1  0.74143204  0.12810386  0.98832562  1
  O  O257  1  0.74275689  0.62515112  0.49211464  1
  O  O258  1  0.73746329  0.62245098  1.00210445  1
  O  O259  1  0.25797254  0.37450955  0.00402598  1
  O  O260  1  0.25362497  0.36941697  0.50692403  1
  O  O261  1  0.26457539  0.87014602  0.00218533  1
  O  O262  1  0.25329044  0.86959614  0.50947774  1
  O  O263  1  0.75695025  0.37263714  0.00913046  1
  O  O264  1  0.75687957  0.36933271  0.50994174  1
  O  O265  1  0.73898008  0.87485327  0.01179213  1
  O  O266  1  0.75933638  0.87795897  0.50729016  1
  O  O267  1  0.13044327  0.49321511  0.24381105  1
  O  O268  1  0.13442878  0.49310340  0.75497553  1
  O  O269  1  0.14092159  0.99448983  0.25801426  1
  O  O270  1  0.11924488  0.98413407  0.74663045  1
  O  O271  1  0.63669983  0.49622774  0.24995459  1
  O  O272  1  0.62077625  0.50397173  0.73617750  1
  O  O273  1  0.63182975  0.99325495  0.25134107  1
  O  O274  1  0.62418930  1.00764503  0.73544180  1
  O  O275  1  0.36738132  0.00549964  0.26032172  1
  O  O276  1  0.37386495  0.01801904  0.74469839  1
  O  O277  1  0.36634902  0.50010103  0.25712881  1
  O  O278  1  0.36874014  0.50814500  0.75236797  1
  O  O279  1  0.85797319  -0.00574335  0.24799280  1
  O  O280  1  0.87634933  0.00734326  0.76337420  1
  O  O281  1  0.86599613  0.50468791  0.25617713  1
  O  O282  1  0.87871131  0.49130906  0.76589668  1
  O  O283  1  0.11976202  0.36714773  0.37182734  1
  O  O284  1  0.12720004  0.36677212  0.86053222  1
  O  O285  1  0.11169049  0.87624207  0.37852445  1
  O  O286  1  0.12787075  0.86532502  0.86363289  1
  O  O287  1  0.62771536  0.36299797  0.37732868  1
  O  O288  1  0.61284135  0.36928487  0.87956774  1
  O  O289  1  0.61794089  0.87032607  0.36778160  1
  O  O290  1  0.60747955  0.87581528  0.88001761  1
  O  O291  1  0.38032175  0.13035036  0.13404864  1
  O  O292  1  0.38730055  0.12795123  0.61427916  1
  O  O293  1  0.39029092  0.61675991  0.12396676  1
  O  O294  1  0.38589158  0.61887450  0.63334886  1
  O  O295  1  0.86887753  0.13601679  0.12130159  1
  O  O296  1  0.88009648  0.12915089  0.63399981  1
  O  O297  1  0.88076537  0.62794385  0.13204199  1
  O  O298  1  0.88219426  0.63437408  0.62229897  1
  O  O299  1  0.25092582  0.26066493  0.11921802  1
  O  O300  1  0.24552579  0.25634264  0.61272487  1
  O  O301  1  0.24971055  0.75678538  0.10985020  1
  O  O302  1  0.25191563  0.76596094  0.61912775  1
  O  O303  1  0.75812154  0.25494690  0.12492795  1
  O  O304  1  0.75355731  0.25607313  0.62201184  1
  O  O305  1  0.76607446  0.74915711  0.12865925  1
  O  O306  1  0.75699950  0.75763001  0.62042524  1
  O  O307  1  0.24322257  0.24575528  0.38481051  1
  O  O308  1  0.24028346  0.25578368  0.88563810  1
  O  O309  1  0.25011181  0.73864871  0.38488884  1
  O  O310  1  0.24283653  0.75003400  0.88466349  1
  O  O311  1  0.74225907  0.24898586  0.38342315  1
  O  O312  1  0.74186481  0.24403189  0.87467634  1
  O  O313  1  0.74361486  0.74575208  0.37432667  1
  O  O314  1  0.74630743  0.74629069  0.87544753  1
  O  O315  1  -0.00200928  0.11554561  0.01603564  1
  O  O316  1  0.00335524  0.11544207  0.51132535  1
  O  O317  1  0.00691347  0.61452509  0.00633899  1
  O  O318  1  -0.00072995  0.61224511  0.50653460  1
  O  O319  1  0.50414132  0.13596517  0.01056378  1
  O  O320  1  0.50700554  0.12014842  0.50540693  1
  O  O321  1  0.50727182  0.61972330  0.00693139  1
  O  O322  1  0.50173992  0.62021241  0.50515298  1
  O  O323  1  0.49006436  0.38492764  0.50554922  1
  O  O324  1  0.49285839  0.37765159  0.99249479  1
  O  O325  1  0.50405523  0.88454458  0.48761767  1
  O  O326  1  0.49005582  0.87383590  0.99157273  1
  O  O327  1  0.99518255  0.38401983  0.49903335  1
  O  O328  1  0.99059777  0.38352717  1.00900588  1
  O  O329  1  0.99646122  0.87873646  0.49351190  1
  O  O330  1  1.00085121  0.89046810  1.01041589  1
  O  O331  1  0.49238140  0.50549413  0.38587639  1
  O  O332  1  0.49584947  0.49311566  0.87739212  1
  O  O333  1  0.49331872  0.99600731  0.38169427  1
  O  O334  1  0.49927357  0.98801842  0.86689445  1
  O  O335  1  0.99473081  0.49597443  0.38630585  1
  O  O336  1  0.99620101  0.50256890  0.88656271  1
  O  O337  1  1.00099303  0.99187171  0.38632774  1
  O  O338  1  0.98591898  1.00546848  0.88908503  1
  O  O339  1  0.00039053  0.01012583  0.11482721  1
  O  O340  1  0.00903805  0.00202270  0.62238030  1
  O  O341  1  0.00246465  0.50514347  0.11702278  1
  O  O342  1  -0.00384114  0.51102710  0.61195105  1
  O  O343  1  0.50046616  0.01695408  0.13578568  1
  O  O344  1  0.50521871  0.00700473  0.61830431  1
  O  O345  1  0.50382895  0.50552449  0.11577359  1
  O  O346  1  0.50490185  0.50756656  0.61466597  1
  O  O347  1  0.24407764  0.38506172  0.24592325  1
  O  O348  1  0.24616151  0.38185905  0.74279244  1
  O  O349  1  0.25346846  0.88134469  0.24059378  1
  O  O350  1  0.24494620  0.86981506  0.73920654  1
  O  O351  1  0.74965461  0.38243473  0.24405286  1
  O  O352  1  0.75225773  0.37669220  0.73806506  1
  O  O353  1  0.74037943  0.88391613  0.24681072  1
  O  O354  1  0.75327024  0.87897734  0.73381202  1
  O  O355  1  0.25588283  0.11849875  0.25680656  1
  O  O356  1  0.24856646  0.12363746  0.75556572  1
  O  O357  1  0.24853471  0.61353069  0.25450217  1
  O  O358  1  0.25691844  0.62141552  0.74588290  1
  O  O359  1  0.74050217  0.11217337  0.25246786  1
  O  O360  1  0.75446911  0.12290077  0.76057192  1
  O  O361  1  0.75383240  0.61734166  0.25419921  1
  O  O362  1  0.75764147  0.61694457  0.74872531  1
  O  O363  1  0.36954724  0.11448533  0.37208257  1
  O  O364  1  0.37034718  0.12810677  0.86998476  1
  O  O365  1  0.36343737  0.61142161  0.37257911  1
  O  O366  1  0.37578943  0.61771158  0.86426704  1
  O  O367  1  0.87253108  0.11873396  0.37922684  1
  O  O368  1  0.86571919  0.12526523  0.87261184  1
  O  O369  1  0.87086916  0.62111643  0.37005422  1
  O  O370  1  0.87419935  0.61390793  0.87322071  1
  O  O371  1  0.12795419  0.37895686  0.13008537  1
  O  O372  1  0.13811422  0.37134377  0.63574072  1
  O  O373  1  0.14340206  0.87594572  0.12071296  1
  O  O374  1  0.12792310  0.87719531  0.63871154  1
  O  O375  1  0.63817108  0.37288129  0.12526755  1
  O  O376  1  0.63379550  0.38606301  0.61754054  1
  O  O377  1  0.61599321  0.87699577  0.13954744  1
  O  O378  1  0.63331034  0.88654085  0.61541197  1
  O  O379  1  0.12450903  0.25417165  0.26377271  1
  O  O380  1  0.11821295  0.25706381  0.75642098  1
  O  O381  1  0.11952430  0.75614632  0.24351541  1
  O  O382  1  0.12682112  0.75859429  0.76376116  1
  O  O383  1  0.61671424  0.25205282  0.26027128  1
  O  O384  1  0.61802892  0.24905212  0.76075412  1
  O  O385  1  0.61912755  0.75790526  0.25713149  1
  O  O386  1  0.61294452  0.74570665  0.74693914  1
  O  O387  1  0.37999394  0.24554072  0.25397375  1
  O  O388  1  0.38564286  0.25549773  0.74780531  1
  O  O389  1  0.38165491  0.74358694  0.25545345  1
  O  O390  1  0.38148677  0.74054032  0.75585683  1
  O  O391  1  0.87720925  0.25573654  0.23451673  1
  O  O392  1  0.88243828  0.24498907  0.74746376  1
  O  O393  1  0.88097435  0.74120915  0.24328725  1
  O  O394  1  0.87691044  0.75149755  0.73512805  1
  O  O395  1  0.38164292  0.49572273  0.49447721  1
  O  O396  1  0.37943359  0.49092761  0.99077916  1
  O  O397  1  0.38759813  1.00515398  0.49371780  1
  O  O398  1  0.37892952  0.99321347  1.00070003  1
  O  O399  1  0.87965381  0.49312057  0.49533775  1
  O  O400  1  0.88219459  0.49301859  0.99226977  1
  O  O401  1  0.88833375  0.98956251  0.50672610  1
  O  O402  1  0.87864192  1.00050776  0.98968180  1
  O  O403  1  0.11219969  -0.00294121  -0.01208598  1
  O  O404  1  0.11465977  -0.00209648  0.51143490  1
  O  O405  1  0.11942052  0.50164772  0.00149787  1
  O  O406  1  0.11157723  0.49363817  0.49860871  1
  O  O407  1  0.62243452  0.01785784  -0.00010952  1
  O  O408  1  0.61479039  0.00800611  0.50321072  1
  O  O409  1  0.61905101  0.50949785  0.00135541  1
  O  O410  1  0.61631412  0.50588706  0.50428816  1
  O  O411  1  0.36866273  0.37578161  0.11458732  1
  O  O412  1  0.36250701  0.37968966  0.61201093  1
  O  O413  1  0.37137944  0.87726766  0.10855395  1
  O  O414  1  0.36350831  0.88220793  0.63063748  1
  O  O415  1  0.86590950  0.36901560  0.11738788  1
  O  O416  1  0.86829075  0.37055687  0.62154582  1
  O  O417  1  0.87837739  0.85925224  0.13326994  1
  O  O418  1  0.87056135  0.86935602  0.61756708  1
  O  O419  1  0.13034452  0.13159716  0.37888325  1
  O  O420  1  0.12014044  0.13885008  0.87232715  1
  O  O421  1  0.13724506  0.62107179  0.37153509  1
  O  O422  1  0.12695573  0.63646251  0.87857415  1
  O  O423  1  0.62576551  0.13373514  0.38834366  1
  O  O424  1  0.62913258  0.13174516  0.87742714  1
  O  O425  1  0.62867265  0.63108216  0.37807169  1
  O  O426  1  0.62514707  0.62531056  0.88873218  1
