# generated using pymatgen
data_V85Zn86O256
_symmetry_space_group_name_H-M   'P 1'
_cell_length_a   16.96462619
_cell_length_b   16.95118104
_cell_length_c   16.95052029
_cell_angle_alpha   89.89550798
_cell_angle_beta   89.93288448
_cell_angle_gamma   90.06220886
_symmetry_Int_Tables_number   1
_chemical_formula_structural   V85Zn86O256
_chemical_formula_sum   'V85 Zn86 O256'
_cell_volume   4874.45440988
_cell_formula_units_Z   1
loop_
 _symmetry_equiv_pos_site_id
 _symmetry_equiv_pos_as_xyz
  1  'x, y, z'
loop_
 _atom_site_type_symbol
 _atom_site_label
 _atom_site_symmetry_multiplicity
 _atom_site_fract_x
 _atom_site_fract_y
 _atom_site_fract_z
 _atom_site_occupancy
  V  V0  1  0.74648835  0.74056481  -0.00978109  1
  V  V1  1  0.74810471  0.37522473  0.12135303  1
  V  V2  1  0.24826592  0.12540314  0.87582725  1
  V  V3  1  -0.00984417  0.12724252  0.13525286  1
  V  V4  1  0.62310204  0.50922546  0.12293164  1
  V  V5  1  0.50620554  -0.00216276  0.49895022  1
  V  V6  1  -0.00230297  0.36559207  0.87144510  1
  V  V7  1  0.25183610  0.37325112  0.62161842  1
  V  V8  1  0.62301706  0.37268065  0.73941898  1
  V  V9  1  0.38168338  0.50589199  0.37778697  1
  V  V10  1  0.59590781  0.73281343  0.41157467  1
  V  V11  1  0.61537436  0.51936665  0.61051077  1
  V  V12  1  0.00303551  0.74397116  0.75419813  1
  V  V13  1  0.88719140  0.88662146  0.50903841  1
  V  V14  1  0.62675766  -0.00279647  0.63939466  1
  V  V15  1  0.73149259  0.13300924  0.87419272  1
  V  V16  1  0.00547689  0.37489226  0.36224353  1
  V  V17  1  0.78032233  -0.01750655  0.76897609  1
  V  V18  1  0.39571930  0.86104613  0.53331875  1
  V  V19  1  0.75177788  0.24673270  0.50606493  1
  V  V20  1  0.24662010  0.75153749  0.50166316  1
  V  V21  1  0.25060899  0.62780113  0.36648853  1
  V  V22  1  0.75136880  0.63567923  0.37899414  1
  V  V23  1  0.88136958  0.13657218  0.76150421  1
  V  V24  1  0.75305502  -0.00249637  0.25518923  1
  V  V25  1  0.37743152  -0.00301308  0.37623410  1
  V  V26  1  0.62302273  0.00895520  0.12231423  1
  V  V27  1  0.12600743  0.48757468  0.13364486  1
  V  V28  1  0.37741455  0.87046330  0.00745236  1
  V  V29  1  0.48627402  0.74848965  0.23713048  1
  V  V30  1  0.88424240  0.25527216  0.62725527  1
  V  V31  1  0.12410156  0.50148422  0.62507790  1
  V  V32  1  0.73757359  0.50943203  0.76445655  1
  V  V33  1  0.25137290  0.12471180  0.37841563  1
  V  V34  1  -0.01705121  -0.00834798  -0.01229229  1
  V  V35  1  0.50311813  0.01130038  0.00323515  1
  V  V36  1  0.63235181  0.86348547  0.24815898  1
  V  V37  1  0.87641744  0.75494211  0.11641478  1
  V  V38  1  0.75304858  0.87822001  0.11096926  1
  V  V39  1  0.74663466  0.50669498  0.25068876  1
  V  V40  1  0.49979858  0.36859547  0.87229220  1
  V  V41  1  0.37417796  0.49825184  0.87159834  1
  V  V42  1  0.87805985  0.00283528  0.38162374  1
  V  V43  1  0.25303499  0.49129683  0.25426436  1
  V  V44  1  0.37580295  0.24393947  0.62135970  1
  V  V45  1  0.63356947  0.11636940  0.49787200  1
  V  V46  1  0.12351849  0.25289105  0.36431845  1
  V  V47  1  0.87757852  0.62836327  0.24733611  1
  V  V48  1  0.87778337  0.36514676  0.00396827  1
  V  V49  1  0.37641489  -0.00417852  0.87515983  1
  V  V50  1  0.48824024  0.62740841  0.12228344  1
  V  V51  1  0.50079928  0.24588204  0.24489101  1
  V  V52  1  0.50410087  0.24502982  0.74890268  1
  V  V53  1  0.87529958  0.37797981  0.50102617  1
  V  V54  1  0.87746107  0.74819249  0.62911617  1
  V  V55  1  0.11691471  0.00187606  0.62010677  1
  V  V56  1  0.11989963  0.75151195  0.88083127  1
  V  V57  1  0.25422224  0.74706883  0.00699106  1
  V  V58  1  0.24966920  0.49851754  0.74886498  1
  V  V59  1  0.24162319  -0.00539263  0.25332505  1
  V  V60  1  0.76060879  0.75544338  0.49641072  1
  V  V61  1  0.62233881  0.37857801  0.25201630  1
  V  V62  1  0.12641111  0.62093134  0.00233417  1
  V  V63  1  0.37983901  0.63691228  0.73482702  1
  V  V64  1  0.11864293  0.36597661  0.74751496  1
  V  V65  1  0.00081556  0.50091787  0.49951212  1
  V  V66  1  0.87619812  0.50573870  0.37696974  1
  V  V67  1  0.80493033  0.16739691  0.31906491  1
  V  V68  1  0.00285959  0.62494611  0.12687360  1
  V  V69  1  0.37940276  0.12127385  0.24232539  1
  V  V70  1  0.12108577  0.87682111  0.75895920  1
  V  V71  1  0.50172565  0.37849584  0.38136459  1
  V  V72  1  0.61826066  0.85604714  0.75400911  1
  V  V73  1  0.24959394  0.62235182  0.87513785  1
  V  V74  1  0.12042964  -0.00056053  0.12160702  1
  V  V75  1  0.24450044  0.87326002  0.62602910  1
  V  V76  1  -0.00265953  0.12378261  0.62477282  1
  V  V77  1  0.62689790  0.24491845  0.37547626  1
  V  V78  1  0.24460152  0.87075708  0.12940846  1
  V  V79  1  0.50117603  0.49891789  -0.00266105  1
  V  V80  1  0.50299252  0.85854908  0.87895581  1
  V  V81  1  0.24831975  -0.00135013  0.75236306  1
  V  V82  1  0.49949788  0.87631314  0.36643082  1
  V  V83  1  0.24921060  0.24986582  0.00285851  1
  V  V84  1  0.00077061  0.49692835  -0.00134722  1
  Zn  Zn85  1  0.37869053  0.24894197  0.12319827  1
  Zn  Zn86  1  0.38114484  0.37878156  0.50211965  1
  Zn  Zn87  1  0.24944288  0.24814316  0.49881548  1
  Zn  Zn88  1  0.86609446  0.49838845  0.87759598  1
  Zn  Zn89  1  0.12560087  0.62788722  0.49738087  1
  Zn  Zn90  1  0.87340552  0.24556932  0.14104296  1
  Zn  Zn91  1  0.00729507  0.87938672  0.37201804  1
  Zn  Zn92  1  0.12793492  0.76420254  0.36309960  1
  Zn  Zn93  1  0.01287271  0.76379424  0.24701920  1
  Zn  Zn94  1  0.62223665  0.63334445  -0.03734518  1
  Zn  Zn95  1  0.11979978  0.12472869  0.49785684  1
  Zn  Zn96  1  0.12220237  0.24681141  0.87331876  1
  Zn  Zn97  1  0.74741642  0.87265882  0.62806872  1
  Zn  Zn98  1  -0.00069568  0.62319781  0.62523388  1
  Zn  Zn99  1  0.11849599  0.12492742  -0.00010722  1
  Zn  Zn100  1  0.50014005  0.11989009  0.62518478  1
  Zn  Zn101  1  0.24976114  0.36567071  0.13536548  1
  Zn  Zn102  1  0.37275602  0.37348091  0.00588747  1
  Zn  Zn103  1  0.37588341  0.12044774  0.74722104  1
  Zn  Zn104  1  0.87070177  0.62343457  0.75963811  1
  Zn  Zn105  1  0.74917265  0.38424384  0.62491418  1
  Zn  Zn106  1  0.73442914  0.23686446  0.00200132  1
  Zn  Zn107  1  0.18646142  0.17985677  0.18737356  1
  Zn  Zn108  1  0.18905959  0.18503480  0.68793728  1
  Zn  Zn109  1  0.18988482  0.68061364  0.18859938  1
  Zn  Zn110  1  0.19168689  0.68646659  0.68850154  1
  Zn  Zn111  1  0.68153111  0.19116335  0.18151327  1
  Zn  Zn112  1  0.69090409  0.18294090  0.68914447  1
  Zn  Zn113  1  0.68930462  0.68924879  0.18183944  1
  Zn  Zn114  1  0.68864022  0.68309778  0.68596295  1
  Zn  Zn115  1  0.31715960  0.31111749  0.31491539  1
  Zn  Zn116  1  0.31406762  0.30979312  0.80819008  1
  Zn  Zn117  1  0.31211084  0.81177834  0.31236144  1
  Zn  Zn118  1  0.30897395  0.81084550  0.81825726  1
  Zn  Zn119  1  0.81145146  0.33105006  0.31480275  1
  Zn  Zn120  1  0.80715750  0.31558898  0.81387411  1
  Zn  Zn121  1  0.84223799  0.82484889  0.30344233  1
  Zn  Zn122  1  0.81456830  0.81324420  0.81187089  1
  Zn  Zn123  1  0.18822185  0.43659488  0.43690563  1
  Zn  Zn124  1  0.18486097  0.43125037  0.93764310  1
  Zn  Zn125  1  0.18543504  0.93569804  0.44120088  1
  Zn  Zn126  1  0.18576778  0.93638278  0.94167263  1
  Zn  Zn127  1  0.68754264  0.43937571  0.44007796  1
  Zn  Zn128  1  0.67500098  0.40918645  0.94269904  1
  Zn  Zn129  1  0.69244192  0.92851195  0.43658606  1
  Zn  Zn130  1  0.68442756  0.93778094  0.93482814  1
  Zn  Zn131  1  0.31082313  0.06011385  0.06157748  1
  Zn  Zn132  1  0.31360073  0.05265603  0.56251601  1
  Zn  Zn133  1  0.31167915  0.55523381  0.06418227  1
  Zn  Zn134  1  0.31267759  0.56236315  0.55723546  1
  Zn  Zn135  1  0.81277057  0.06163616  0.05756560  1
  Zn  Zn136  1  0.81078521  0.06028349  0.57516444  1
  Zn  Zn137  1  0.81375400  0.56182360  0.05844458  1
  Zn  Zn138  1  0.80672975  0.56581457  0.56881278  1
  Zn  Zn139  1  0.43332983  0.43592314  0.19091118  1
  Zn  Zn140  1  0.43862180  0.44031565  0.68379378  1
  Zn  Zn141  1  0.43670021  0.93812821  0.18479783  1
  Zn  Zn142  1  0.44488462  0.92463727  0.68752110  1
  Zn  Zn143  1  0.93451363  0.44053962  0.18535272  1
  Zn  Zn144  1  0.93227459  0.44084184  0.69135085  1
  Zn  Zn145  1  0.93410582  0.94276107  0.18712319  1
  Zn  Zn146  1  0.93659991  0.93393810  0.70623854  1
  Zn  Zn147  1  0.06276231  0.06202975  0.31234391  1
  Zn  Zn148  1  0.05768372  0.06542922  0.81155850  1
  Zn  Zn149  1  0.06703405  0.56849821  0.31210961  1
  Zn  Zn150  1  0.05991582  0.55851021  0.81540636  1
  Zn  Zn151  1  0.56966941  0.06235584  0.30918523  1
  Zn  Zn152  1  0.55653827  0.05871912  0.81629034  1
  Zn  Zn153  1  0.55973998  0.56871691  0.31150954  1
  Zn  Zn154  1  0.55568965  0.56478904  0.80192894  1
  Zn  Zn155  1  0.44126505  0.18568006  0.43648636  1
  Zn  Zn156  1  0.43281537  0.18688050  0.93531110  1
  Zn  Zn157  1  0.42773672  0.69111765  0.43669567  1
  Zn  Zn158  1  0.43298773  0.68110186  0.93913460  1
  Zn  Zn159  1  0.94625031  0.19170299  0.44365238  1
  Zn  Zn160  1  0.93813312  0.18356086  0.94692297  1
  Zn  Zn161  1  0.94422230  0.69253209  0.43696742  1
  Zn  Zn162  1  0.93441311  0.68319965  0.93733757  1
  Zn  Zn163  1  0.06365991  0.30547171  0.06461124  1
  Zn  Zn164  1  0.06568174  0.31179945  0.55414344  1
  Zn  Zn165  1  0.06221993  0.81516158  0.06310696  1
  Zn  Zn166  1  0.06376685  0.81173624  0.56409899  1
  Zn  Zn167  1  0.56274951  0.31436230  0.06180334  1
  Zn  Zn168  1  0.56362245  0.30817055  0.56281631  1
  Zn  Zn169  1  0.56887601  0.81396501  0.06002541  1
  Zn  Zn170  1  0.56098466  0.79861236  0.56715100  1
  O  O171  1  0.11424917  0.11556399  0.12377297  1
  O  O172  1  0.11515994  0.11871748  0.62981348  1
  O  O173  1  0.12207760  0.61186892  0.11824180  1
  O  O174  1  0.12725166  0.61051904  0.62334671  1
  O  O175  1  0.62742224  0.10889460  0.12670130  1
  O  O176  1  0.62595126  0.11256032  0.61938829  1
  O  O177  1  0.61855946  0.61395056  0.12612918  1
  O  O178  1  0.62037560  0.61966916  0.62111683  1
  O  O179  1  0.38621205  0.38100961  0.37822282  1
  O  O180  1  0.38129523  0.38512195  0.86982997  1
  O  O181  1  0.38973725  0.88011582  0.36777294  1
  O  O182  1  0.37825580  0.87840585  0.88640875  1
  O  O183  1  0.88310214  0.38646814  0.38268642  1
  O  O184  1  0.88058853  0.37763572  0.88456865  1
  O  O185  1  0.87382083  0.88877136  0.39522633  1
  O  O186  1  0.86153348  0.91506647  0.80067017  1
  O  O187  1  0.25580144  0.00401541  0.36874050  1
  O  O188  1  0.25622437  0.00326170  0.87278768  1
  O  O189  1  0.25543886  0.50651917  0.37085401  1
  O  O190  1  0.25538008  0.50022335  0.87131939  1
  O  O191  1  0.75711139  -0.00346569  0.36708512  1
  O  O192  1  0.74336588  0.00898677  0.86401002  1
  O  O193  1  0.75608945  0.51019105  0.37064671  1
  O  O194  1  0.74430191  0.48293629  0.86392058  1
  O  O195  1  0.24308072  0.49672427  0.13571079  1
  O  O196  1  0.24298420  0.49145279  0.62669992  1
  O  O197  1  0.24232238  0.99305099  0.13220220  1
  O  O198  1  0.23386566  1.00021763  0.63592175  1
  O  O199  1  0.74182657  0.49995612  0.13126551  1
  O  O200  1  0.73556917  0.50191922  0.63234169  1
  O  O201  1  0.74616494  0.99312182  0.13044577  1
  O  O202  1  0.74430429  0.99371919  0.64686119  1
  O  O203  1  -0.00647106  0.38108825  0.26363104  1
  O  O204  1  0.00660184  0.38081163  0.75894005  1
  O  O205  1  -0.04337817  0.86424051  0.26335794  1
  O  O206  1  0.01559646  0.85907170  0.74897602  1
  O  O207  1  0.50537803  0.36855369  0.26014979  1
  O  O208  1  0.50161632  0.36530405  0.75112230  1
  O  O209  1  0.50893734  0.86699085  0.24758702  1
  O  O210  1  0.51038447  0.87317981  0.76465765  1
  O  O211  1  0.49257626  0.13309001  0.25741104  1
  O  O212  1  0.49598585  0.13122049  0.74897240  1
  O  O213  1  0.50303358  0.64149790  0.23927997  1
  O  O214  1  0.47876518  0.62423024  0.74662443  1
  O  O215  1  0.99952659  0.11903271  0.23418659  1
  O  O216  1  0.98907179  0.13352885  0.74356919  1
  O  O217  1  0.99053786  0.62269263  0.24248054  1
  O  O218  1  1.00582348  0.63480157  0.74778859  1
  O  O219  1  0.36578555  0.24945454  0.00357223  1
  O  O220  1  0.37524165  0.25050447  0.51050593  1
  O  O221  1  0.36442397  0.75653790  -0.00346418  1
  O  O222  1  0.36103464  0.76628058  0.49493089  1
  O  O223  1  0.86757955  0.26093525  0.00259442  1
  O  O224  1  0.86901003  0.25665194  0.50630518  1
  O  O225  1  0.86826325  0.74451237  0.01118311  1
  O  O226  1  0.87439569  0.75756348  0.51005551  1
  O  O227  1  0.13048923  0.24367823  0.48895983  1
  O  O228  1  0.13373625  0.24446731  0.99507778  1
  O  O229  1  0.13682983  0.75053054  0.49871508  1
  O  O230  1  0.12992488  0.74303980  0.99677477  1
  O  O231  1  0.63591351  0.24107531  0.49674772  1
  O  O232  1  0.64448682  0.30269935  0.98964344  1
  O  O233  1  0.65212628  0.77194292  0.50038874  1
  O  O234  1  0.64021635  0.74483226  1.00081559  1
  O  O235  1  0.50317465  0.25563564  0.13996994  1
  O  O236  1  0.49257952  0.24407616  0.62960858  1
  O  O237  1  0.50468428  0.74386234  0.12959764  1
  O  O238  1  0.45908222  0.82245074  0.61145034  1
  O  O239  1  0.99486339  0.23327901  0.12192243  1
  O  O240  1  0.98919605  0.24938722  0.62067009  1
  O  O241  1  0.99243229  0.74453114  0.12493596  1
  O  O242  1  0.99679100  0.74599374  0.63477662  1
  O  O243  1  0.01314413  0.25941660  0.37803906  1
  O  O244  1  0.00055819  0.26178506  0.88377819  1
  O  O245  1  0.00618825  0.75478340  0.36973027  1
  O  O246  1  0.01282991  0.74532797  0.87224061  1
  O  O247  1  0.50693541  0.25629663  0.36604328  1
  O  O248  1  0.48912696  0.25809504  0.86301082  1
  O  O249  1  0.49841789  0.75691194  0.35364476  1
  O  O250  1  0.49669343  0.75926884  0.88541452  1
  O  O251  1  0.25294378  0.12011380  0.48619686  1
  O  O252  1  0.24907448  0.13186799  0.99259999  1
  O  O253  1  0.25023926  0.63631803  0.49208736  1
  O  O254  1  0.24666614  0.62885513  0.99713745  1
  O  O255  1  0.74086162  0.13025203  0.50786033  1
  O  O256  1  0.75199611  0.12269217  0.98005886  1
  O  O257  1  0.75940812  0.63610252  0.48611725  1
  O  O258  1  0.74697714  0.63715952  1.00416878  1
  O  O259  1  0.25127360  0.35979320  -0.00139249  1
  O  O260  1  0.25087853  0.37293793  0.51277298  1
  O  O261  1  0.25609444  0.86593253  0.00755401  1
  O  O262  1  0.25501605  0.87063481  0.51123462  1
  O  O263  1  0.76688195  0.39632396  0.01708901  1
  O  O264  1  0.75680469  0.36426853  0.49951326  1
  O  O265  1  0.74493684  0.86813324  0.00763081  1
  O  O266  1  0.76618300  0.87113041  0.50789539  1
  O  O267  1  0.13522708  0.50375345  0.24250078  1
  O  O268  1  0.12957521  0.49055497  0.74249977  1
  O  O269  1  0.13659987  1.00456703  0.24086124  1
  O  O270  1  0.12714665  0.99108575  0.74936174  1
  O  O271  1  0.62759817  0.49909607  0.24479745  1
  O  O272  1  0.63005306  0.49153691  0.73678053  1
  O  O273  1  0.63378000  0.98738844  0.24554174  1
  O  O274  1  0.61787308  0.99329148  0.74236671  1
  O  O275  1  0.36973262  0.00478838  0.25621814  1
  O  O276  1  0.37201419  -0.00619067  0.76416538  1
  O  O277  1  0.36689639  0.49796071  0.26451500  1
  O  O278  1  0.36703236  0.50415097  0.75495592  1
  O  O279  1  0.85889210  0.00453643  0.25996571  1
  O  O280  1  0.87293643  0.03334073  0.72804142  1
  O  O281  1  0.86746197  0.51191077  0.25353966  1
  O  O282  1  0.85229208  0.49789770  0.75035724  1
  O  O283  1  0.11943093  0.36311194  0.37794948  1
  O  O284  1  0.11723957  0.37197940  0.86391949  1
  O  O285  1  0.12138664  0.88086713  0.37181789  1
  O  O286  1  0.13242483  0.86368590  0.87020584  1
  O  O287  1  0.62311510  0.36873554  0.36971327  1
  O  O288  1  0.60395847  0.38370527  0.85347119  1
  O  O289  1  0.61442373  0.85886133  0.36992355  1
  O  O290  1  0.61607030  0.87399056  0.86424424  1
  O  O291  1  0.37110024  0.12286036  0.13951229  1
  O  O292  1  0.37590905  0.12917472  0.62514251  1
  O  O293  1  0.38908053  0.62096485  0.11778203  1
  O  O294  1  0.36467092  0.62528124  0.63563237  1
  O  O295  1  0.88435754  0.12554970  0.12360945  1
  O  O296  1  0.88035654  0.14002665  0.62807823  1
  O  O297  1  0.88214314  0.62813058  0.12954980  1
  O  O298  1  0.87773878  0.63721267  0.63016491  1
  O  O299  1  0.24971556  0.24677398  0.11722007  1
  O  O300  1  0.25766775  0.25493191  0.62359964  1
  O  O301  1  0.24628514  0.75499494  0.11455618  1
  O  O302  1  0.24385966  0.76266508  0.61808611  1
  O  O303  1  0.75076358  0.26115982  0.12176719  1
  O  O304  1  0.75802147  0.25091337  0.61574477  1
  O  O305  1  0.75641460  0.75819056  0.11487408  1
  O  O306  1  0.76152142  0.75056580  0.61973799  1
  O  O307  1  0.24415436  0.24174498  0.37629207  1
  O  O308  1  0.25198747  0.24009467  0.87929415  1
  O  O309  1  0.25081573  0.74375161  0.38051713  1
  O  O310  1  0.23951337  0.74349705  0.88786148  1
  O  O311  1  0.74962873  0.24457270  0.38096955  1
  O  O312  1  0.74859767  0.23584223  0.87364940  1
  O  O313  1  0.76235026  0.74784773  0.38244031  1
  O  O314  1  0.76250617  0.75539851  0.89262149  1
  O  O315  1  0.00001190  0.11052967  0.00989622  1
  O  O316  1  0.00114890  0.12596506  0.51914629  1
  O  O317  1  0.00689158  0.61460891  0.00747123  1
  O  O318  1  0.00241159  0.61262775  0.50158985  1
  O  O319  1  0.49441802  0.11054123  -0.00540378  1
  O  O320  1  0.51415159  0.11585906  0.49999631  1
  O  O321  1  0.50658716  0.61693337  0.00379639  1
  O  O322  1  0.52665235  0.70231713  0.48945283  1
  O  O323  1  0.50347443  0.36713490  0.48455707  1
  O  O324  1  0.49336566  0.38152780  0.98863180  1
  O  O325  1  0.50005759  0.88010185  0.48237260  1
  O  O326  1  0.49240223  0.87850912  0.99746922  1
  O  O327  1  0.99546867  0.38650562  0.49277720  1
  O  O328  1  0.99427771  0.37808035  0.99814409  1
  O  O329  1  0.98943190  0.87566797  0.50389995  1
  O  O330  1  1.00580200  0.89330156  1.00443051  1
  O  O331  1  0.49434449  0.49378874  0.36916815  1
  O  O332  1  0.48974637  0.49414797  0.87963878  1
  O  O333  1  0.50077722  0.99209252  0.37588636  1
  O  O334  1  0.49142575  0.98907235  0.88394457  1
  O  O335  1  0.99764095  0.49707519  0.38148417  1
  O  O336  1  1.00454404  0.48523722  0.88682766  1
  O  O337  1  0.98172417  1.00406619  0.37025112  1
  O  O338  1  1.00326180  1.00312335  0.88887765  1
  O  O339  1  0.00484285  0.00570095  0.12192191  1
  O  O340  1  0.00821939  0.00891093  0.64002310  1
  O  O341  1  0.00865333  0.50309868  0.12070720  1
  O  O342  1  0.00685772  0.49939334  0.61863074  1
  O  O343  1  0.50981320  -0.00615236  0.11610487  1
  O  O344  1  0.50994425  -0.00188228  0.61733133  1
  O  O345  1  0.50386021  0.50531220  0.11859954  1
  O  O346  1  0.51630069  0.49706516  0.62476387  1
  O  O347  1  0.25191516  0.38653147  0.25556932  1
  O  O348  1  0.24354259  0.37843702  0.73851626  1
  O  O349  1  0.25913907  0.88423638  0.24040607  1
  O  O350  1  0.23845166  0.87742208  0.74711005  1
  O  O351  1  0.74395654  0.38607612  0.23993431  1
  O  O352  1  0.73654974  0.37958464  0.74691512  1
  O  O353  1  0.74715071  0.87988359  0.24440733  1
  O  O354  1  0.72949167  0.87694946  0.75234816  1
  O  O355  1  0.25826107  0.11512005  0.26050298  1
  O  O356  1  0.25359263  0.11673640  0.75801600  1
  O  O357  1  0.25295899  0.61380695  0.26106048  1
  O  O358  1  0.25271878  0.61586671  0.75794040  1
  O  O359  1  0.73964359  0.11654243  0.25383391  1
  O  O360  1  0.75947504  0.12030189  0.76246076  1
  O  O361  1  0.75426567  0.62432245  0.25880065  1
  O  O362  1  0.75142389  0.61208944  0.75025181  1
  O  O363  1  0.37000928  0.11735461  0.36963324  1
  O  O364  1  0.36414856  0.11318723  0.87315784  1
  O  O365  1  0.36670353  0.61851201  0.37825236  1
  O  O366  1  0.36771403  0.61184340  0.87116718  1
  O  O367  1  0.87222339  0.12211722  0.38606444  1
  O  O368  1  0.87623604  0.13205281  0.86235809  1
  O  O369  1  0.87102176  0.62354212  0.36645279  1
  O  O370  1  0.88583173  0.60966891  0.87200928  1
  O  O371  1  0.12704369  0.38421728  0.12261606  1
  O  O372  1  0.12916273  0.38201764  0.62876590  1
  O  O373  1  0.13748984  0.88195810  0.12336768  1
  O  O374  1  0.12896464  0.88315897  0.63359460  1
  O  O375  1  0.63098882  0.38909288  0.13426817  1
  O  O376  1  0.62579347  0.37527528  0.63142602  1
  O  O377  1  0.63601964  0.88044654  0.13244545  1
  O  O378  1  0.62309938  0.87807710  0.63881352  1
  O  O379  1  0.13110419  0.24598976  0.26519420  1
  O  O380  1  0.12850614  0.26305912  0.74948588  1
  O  O381  1  0.12429015  0.74547554  0.24831890  1
  O  O382  1  0.12297873  0.75343953  0.76047718  1
  O  O383  1  0.62027082  0.25583036  0.25627433  1
  O  O384  1  0.61178192  0.25455377  0.74009959  1
  O  O385  1  0.62025629  0.76007952  0.24410644  1
  O  O386  1  0.62238344  0.75798707  0.74395954  1
  O  O387  1  0.38409644  0.23931065  0.25110578  1
  O  O388  1  0.38329669  0.24761010  0.73612079  1
  O  O389  1  0.38815791  0.75699978  0.24135982  1
  O  O390  1  0.36305700  0.73499244  0.75467250  1
  O  O391  1  0.85646856  0.23901310  0.26069014  1
  O  O392  1  0.86803596  0.24427532  0.74084063  1
  O  O393  1  0.86634544  0.73439025  0.23377230  1
  O  O394  1  0.88615666  0.74682583  0.74681535  1
  O  O395  1  0.37252764  0.49655194  0.48472130  1
  O  O396  1  0.38384713  0.49766743  0.99099385  1
  O  O397  1  0.38611173  0.98455389  0.49542840  1
  O  O398  1  0.37875740  0.99153201  0.99250629  1
  O  O399  1  0.88078906  0.49874498  0.49747928  1
  O  O400  1  0.89041594  0.49082830  1.00550946  1
  O  O401  1  0.86963277  0.99537271  0.49926732  1
  O  O402  1  0.88276544  0.99470117  0.99731055  1
  O  O403  1  0.12753090  0.00346584  0.01392182  1
  O  O404  1  0.12799449  0.00462161  0.51668451  1
  O  O405  1  0.11703670  0.49972553  0.00704482  1
  O  O406  1  0.11737440  0.49895020  0.50805013  1
  O  O407  1  0.61481866  -0.00747059  0.00973304  1
  O  O408  1  0.62784243  0.00118712  0.50740665  1
  O  O409  1  0.61140535  0.49423170  0.00746477  1
  O  O410  1  0.62882381  0.50253657  0.51115490  1
  O  O411  1  0.36904894  0.36969495  0.12475139  1
  O  O412  1  0.36734112  0.36788094  0.62300020  1
  O  O413  1  0.36342517  0.88128268  0.11292728  1
  O  O414  1  0.34685413  0.90642135  0.62620001  1
  O  O415  1  0.86795208  0.36890761  0.12390605  1
  O  O416  1  0.87195046  0.37071058  0.61922945  1
  O  O417  1  0.86337378  0.86632962  0.12644206  1
  O  O418  1  0.87657370  0.86517082  0.62480706  1
  O  O419  1  0.13199976  0.13158700  0.37597045  1
  O  O420  1  0.13703412  0.12549990  0.87371485  1
  O  O421  1  0.13948389  0.62594394  0.37947173  1
  O  O422  1  0.13084265  0.62815651  0.88293099  1
  O  O423  1  0.62459513  0.13118410  0.38570266  1
  O  O424  1  0.63277328  0.12651670  0.86954213  1
  O  O425  1  0.63401462  0.64095952  0.37038338  1
  O  O426  1  0.63929658  0.60145153  0.85960188  1
