# generated using pymatgen
data_V85Zn86O256
_symmetry_space_group_name_H-M   'P 1'
_cell_length_a   16.92680968
_cell_length_b   16.93722773
_cell_length_c   16.92255604
_cell_angle_alpha   89.93154516
_cell_angle_beta   89.98448491
_cell_angle_gamma   89.97048340
_symmetry_Int_Tables_number   1
_chemical_formula_structural   V85Zn86O256
_chemical_formula_sum   'V85 Zn86 O256'
_cell_volume   4851.57796962
_cell_formula_units_Z   1
loop_
 _symmetry_equiv_pos_site_id
 _symmetry_equiv_pos_as_xyz
  1  'x, y, z'
loop_
 _atom_site_type_symbol
 _atom_site_label
 _atom_site_symmetry_multiplicity
 _atom_site_fract_x
 _atom_site_fract_y
 _atom_site_fract_z
 _atom_site_occupancy
  V  V0  1  -0.00417327  0.39647757  0.37902167  1
  V  V1  1  -0.00342164  0.87660942  0.37623698  1
  V  V2  1  0.87780378  0.61992176  0.75803524  1
  V  V3  1  0.24247360  0.24937806  0.50223086  1
  V  V4  1  0.26087095  0.23995051  0.01459857  1
  V  V5  1  0.87128811  0.38876220  0.50359500  1
  V  V6  1  0.13065174  0.37801850  0.75194194  1
  V  V7  1  -0.00489379  0.38395731  0.87691546  1
  V  V8  1  0.62290675  0.37618250  0.24777534  1
  V  V9  1  0.24947133  0.61525787  0.37277951  1
  V  V10  1  0.12958549  0.74960209  0.87371263  1
  V  V11  1  0.00264297  0.61456623  0.12612656  1
  V  V12  1  0.37124256  0.61602685  0.24581592  1
  V  V13  1  0.37636529  -0.00253598  0.87213123  1
  V  V14  1  0.86944143  0.25043934  0.13171871  1
  V  V15  1  0.50446299  0.01486172  0.50000370  1
  V  V16  1  0.74645885  0.74452811  0.50133377  1
  V  V17  1  0.87711138  0.12504450  0.75237607  1
  V  V18  1  0.51427795  0.62299777  0.62558754  1
  V  V19  1  0.75824491  0.00639839  0.25121445  1
  V  V20  1  0.00208439  0.87834736  0.86916906  1
  V  V21  1  0.12626218  0.49954377  0.61683400  1
  V  V22  1  0.62669479  0.38052631  0.74102311  1
  V  V23  1  0.62384106  0.62688958  0.01028841  1
  V  V24  1  0.49994973  0.24836502  0.74564724  1
  V  V25  1  0.87376096  0.74691787  0.12365010  1
  V  V26  1  0.50072402  0.74136969  0.24610603  1
  V  V27  1  0.12617734  0.00171640  0.61463096  1
  V  V28  1  0.11543525  0.24955939  0.37684497  1
  V  V29  1  0.37476424  0.25139834  0.62426942  1
  V  V30  1  0.87373615  0.61922429  0.25855557  1
  V  V31  1  0.62563060  0.86869750  0.75264397  1
  V  V32  1  0.87671460  0.75165787  0.62520232  1
  V  V33  1  0.12735423  0.25242127  0.87878663  1
  V  V34  1  0.75421164  0.00052371  0.75078104  1
  V  V35  1  0.49840970  0.37425158  0.37738108  1
  V  V36  1  0.37210247  0.13460246  0.24655170  1
  V  V37  1  0.13358403  0.38436533  0.23960245  1
  V  V38  1  0.24350547  0.12375580  0.38039959  1
  V  V39  1  0.62166480  0.01200364  0.62182061  1
  V  V40  1  0.25181255  -0.00299238  0.24437324  1
  V  V41  1  0.74827917  0.87580141  0.62314986  1
  V  V42  1  0.62474714  0.73828634  0.37905062  1
  V  V43  1  0.00546692  0.75236702  0.74917613  1
  V  V44  1  0.37528160  0.75122387  0.12583639  1
  V  V45  1  0.51028025  0.50455789  0.50247748  1
  V  V46  1  0.49947096  -0.00140660  0.00086864  1
  V  V47  1  0.74890979  0.49734919  0.25975605  1
  V  V48  1  -0.00809393  0.12479729  0.13523037  1
  V  V49  1  0.24744747  0.75015922  0.00295641  1
  V  V50  1  0.49800073  0.37973797  0.87942876  1
  V  V51  1  0.74639510  0.24668723  0.50829445  1
  V  V52  1  0.12967511  0.87304908  0.24423808  1
  V  V53  1  0.49633293  0.13377394  0.12448516  1
  V  V54  1  0.12074638  0.12263013  0.00051369  1
  V  V55  1  0.62325777  0.00104592  0.12611137  1
  V  V56  1  0.74947679  0.87237381  0.12260465  1
  V  V57  1  0.74992162  0.49550175  0.73706909  1
  V  V58  1  0.74577227  0.61148929  0.87753213  1
  V  V59  1  -0.00087904  0.74980438  0.24817292  1
  V  V60  1  0.12433046  -0.00259976  0.12398687  1
  V  V61  1  0.50386736  0.86583776  0.87627243  1
  V  V62  1  0.37923524  0.12283457  0.74501443  1
  V  V63  1  0.00309120  0.12702005  0.61694957  1
  V  V64  1  0.12562505  0.62011078  0.00059173  1
  V  V65  1  0.24136440  -0.00610417  0.74853020  1
  V  V66  1  0.75269545  0.12315718  0.87587186  1
  V  V67  1  0.12785758  0.74931055  0.37746783  1
  V  V68  1  -0.00767703  0.00212665  -0.00444406  1
  V  V69  1  0.36772303  0.87548296  0.00305313  1
  V  V70  1  0.62538617  0.25040898  0.87518478  1
  V  V71  1  0.74509166  0.74916886  -0.01335397  1
  V  V72  1  0.62508605  0.87198183  0.24993572  1
  V  V73  1  0.87441572  0.87533723  -0.00724209  1
  V  V74  1  0.00102057  0.62137013  0.61790896  1
  V  V75  1  0.50924788  0.50291445  0.01461304  1
  V  V76  1  0.00188721  0.24913624  0.75072947  1
  V  V77  1  0.37152949  0.50576957  0.87343296  1
  V  V78  1  0.34123953  0.40475529  0.02072851  1
  V  V79  1  0.24858500  0.87142571  0.62443731  1
  V  V80  1  0.37573851  -0.00022432  0.37487282  1
  V  V81  1  0.50176583  0.87349416  0.37987201  1
  V  V82  1  0.24909055  0.12220618  0.87222690  1
  V  V83  1  0.74685167  0.38478253  0.12230191  1
  V  V84  1  0.36839380  0.62809095  0.74772184  1
  Zn  Zn85  1  0.75163750  0.61641508  0.38447166  1
  Zn  Zn86  1  0.37300317  0.49917438  0.37663912  1
  Zn  Zn87  1  0.49924313  0.25133222  0.25147260  1
  Zn  Zn88  1  0.87852025  0.01129071  0.37613957  1
  Zn  Zn89  1  0.75008466  0.13059254  0.37727178  1
  Zn  Zn90  1  0.37349700  0.37958799  0.50075686  1
  Zn  Zn91  1  0.24953617  0.50451974  0.75301689  1
  Zn  Zn92  1  0.12376584  0.62010235  0.49647890  1
  Zn  Zn93  1  0.75130028  0.25105934  0.00118978  1
  Zn  Zn94  1  -0.00192287  0.00301585  0.49802693  1
  Zn  Zn95  1  0.25116251  0.37816473  0.62453678  1
  Zn  Zn96  1  0.25573235  0.74742054  0.49880359  1
  Zn  Zn97  1  0.87470020  0.87785100  0.49940748  1
  Zn  Zn98  1  0.87296078  0.25938889  0.62615541  1
  Zn  Zn99  1  0.50314679  0.74597866  0.75126261  1
  Zn  Zn100  1  -0.00657460  0.50202221  -0.00052408  1
  Zn  Zn101  1  0.86998348  0.38080540  -0.00190994  1
  Zn  Zn102  1  0.62216810  0.24152270  0.38198588  1
  Zn  Zn103  1  0.62600987  0.12583191  0.00049727  1
  Zn  Zn104  1  -0.00427520  0.25208174  0.25415922  1
  Zn  Zn105  1  0.37848951  0.74916956  0.62195816  1
  Zn  Zn106  1  0.37549383  0.87420171  0.50121705  1
  Zn  Zn107  1  0.17956253  0.18752251  0.19317250  1
  Zn  Zn108  1  0.18746049  0.18610990  0.68786161  1
  Zn  Zn109  1  0.19013650  0.68700737  0.18476861  1
  Zn  Zn110  1  0.18716981  0.68729031  0.68705180  1
  Zn  Zn111  1  0.68370739  0.19118359  0.19003689  1
  Zn  Zn112  1  0.68963796  0.19214601  0.68537640  1
  Zn  Zn113  1  0.69042893  0.68517776  0.18782380  1
  Zn  Zn114  1  0.69002808  0.68670362  0.69117175  1
  Zn  Zn115  1  0.30860721  0.31369736  0.31432021  1
  Zn  Zn116  1  0.31439445  0.31508884  0.82203536  1
  Zn  Zn117  1  0.31344445  0.81060165  0.31336144  1
  Zn  Zn118  1  0.31383677  0.81058072  0.81137848  1
  Zn  Zn119  1  0.81322463  0.31173421  0.31836278  1
  Zn  Zn120  1  0.81225847  0.31199447  0.80934123  1
  Zn  Zn121  1  0.81074795  0.81147667  0.31233300  1
  Zn  Zn122  1  0.81597006  0.81151598  0.81087645  1
  Zn  Zn123  1  0.18587735  0.43246318  0.43523852  1
  Zn  Zn124  1  0.18942181  0.43995959  0.95108061  1
  Zn  Zn125  1  0.18676186  0.93516862  0.43671846  1
  Zn  Zn126  1  0.18451743  0.93493310  0.93527387  1
  Zn  Zn127  1  0.68623267  0.43046717  0.43941794  1
  Zn  Zn128  1  0.68536328  0.43778586  0.93558959  1
  Zn  Zn129  1  0.68662397  0.93617427  0.43763502  1
  Zn  Zn130  1  0.68729178  0.94013075  0.93604981  1
  Zn  Zn131  1  0.31225276  0.06198701  0.06389590  1
  Zn  Zn132  1  0.31597236  0.06247227  0.56170929  1
  Zn  Zn133  1  0.31446977  0.57280986  0.05790361  1
  Zn  Zn134  1  0.31469953  0.56263860  0.56121345  1
  Zn  Zn135  1  0.81189854  0.06322568  0.06283300  1
  Zn  Zn136  1  0.81656155  0.06417932  0.56225395  1
  Zn  Zn137  1  0.81629019  0.55862610  0.06414896  1
  Zn  Zn138  1  0.81559648  0.56420970  0.56541373  1
  Zn  Zn139  1  0.43602206  0.43329194  0.18636995  1
  Zn  Zn140  1  0.43997278  0.43922041  0.68701487  1
  Zn  Zn141  1  0.43783794  0.93539817  0.18919705  1
  Zn  Zn142  1  0.43846718  0.93581341  0.68528953  1
  Zn  Zn143  1  0.93540384  0.43370667  0.19268138  1
  Zn  Zn144  1  0.93996094  0.44005350  0.68970803  1
  Zn  Zn145  1  0.93845696  0.93374587  0.18368157  1
  Zn  Zn146  1  0.93731237  0.93979279  0.68620524  1
  Zn  Zn147  1  0.06414770  0.06134274  0.31398468  1
  Zn  Zn148  1  0.06264628  0.06176837  0.81090737  1
  Zn  Zn149  1  0.06678428  0.56195609  0.30692313  1
  Zn  Zn150  1  0.06694349  0.56532220  0.81100480  1
  Zn  Zn151  1  0.56569731  0.06569934  0.31258230  1
  Zn  Zn152  1  0.56454511  0.06003133  0.81044561  1
  Zn  Zn153  1  0.56161731  0.55724972  0.31056594  1
  Zn  Zn154  1  0.56561061  0.56497502  0.81459830  1
  Zn  Zn155  1  0.43224374  0.18983981  0.43526014  1
  Zn  Zn156  1  0.44034867  0.18387070  0.93298788  1
  Zn  Zn157  1  0.43547844  0.68435783  0.43887853  1
  Zn  Zn158  1  0.43868316  0.68445840  0.93826081  1
  Zn  Zn159  1  0.92276708  0.18913069  0.43823522  1
  Zn  Zn160  1  0.93411412  0.19400048  0.94085334  1
  Zn  Zn161  1  0.93663963  0.69176830  0.43832271  1
  Zn  Zn162  1  0.93756205  0.68736234  0.93677069  1
  Zn  Zn163  1  0.06083019  0.30902098  0.06300861  1
  Zn  Zn164  1  0.05857564  0.31635395  0.56121938  1
  Zn  Zn165  1  0.06051823  0.81066577  0.06202260  1
  Zn  Zn166  1  0.06718304  0.81560477  0.56241111  1
  Zn  Zn167  1  0.56442572  0.31486851  0.06174311  1
  Zn  Zn168  1  0.56024701  0.31391285  0.56218552  1
  Zn  Zn169  1  0.56163554  0.80957410  0.06196938  1
  Zn  Zn170  1  0.56384110  0.81186472  0.56323945  1
  O  O171  1  0.11456907  0.11758431  0.11907202  1
  O  O172  1  0.11525559  0.11498679  0.63293033  1
  O  O173  1  0.11480209  0.63347801  0.11541108  1
  O  O174  1  0.11807470  0.61799683  0.62422205  1
  O  O175  1  0.61615810  0.11676335  0.12470727  1
  O  O176  1  0.62525926  0.11015211  0.63423141  1
  O  O177  1  0.62932276  0.62787966  0.11048521  1
  O  O178  1  0.61337885  0.62472221  0.63078621  1
  O  O179  1  0.38562033  0.37736389  0.37293559  1
  O  O180  1  0.38195876  0.38183688  0.89433329  1
  O  O181  1  0.38510664  0.88165730  0.37354482  1
  O  O182  1  0.38295170  0.87985686  0.88154079  1
  O  O183  1  0.88997736  0.37389403  0.38402826  1
  O  O184  1  0.89308000  0.36543482  0.87368335  1
  O  O185  1  0.88915179  0.87346128  0.37168410  1
  O  O186  1  0.88321890  0.87057242  0.88578382  1
  O  O187  1  0.25201448  0.00648977  0.36731348  1
  O  O188  1  0.25435524  0.00149200  0.86680891  1
  O  O189  1  0.24934407  0.51144962  0.37720815  1
  O  O190  1  0.26763795  0.49372515  0.87763822  1
  O  O191  1  0.74966592  -0.00753415  0.35769731  1
  O  O192  1  0.74395942  0.01378575  0.86540832  1
  O  O193  1  0.74521099  0.49986109  0.36493489  1
  O  O194  1  0.75208765  0.50890974  0.87012784  1
  O  O195  1  0.26344045  0.47199481  0.05369577  1
  O  O196  1  0.24177565  0.49820793  0.62989521  1
  O  O197  1  0.24310992  1.00343320  0.13717855  1
  O  O198  1  0.24449494  0.99661567  0.62996165  1
  O  O199  1  0.75175466  0.48868058  0.13573728  1
  O  O200  1  0.74810726  0.50508980  0.63869049  1
  O  O201  1  0.74311832  0.99230300  0.12936779  1
  O  O202  1  0.74123140  0.99601215  0.63034247  1
  O  O203  1  0.00341078  0.37397566  0.26667859  1
  O  O204  1  0.01119170  0.36999719  0.76002518  1
  O  O205  1  0.00779306  0.86947597  0.25447867  1
  O  O206  1  -0.00708727  0.86785128  0.76012996  1
  O  O207  1  0.50529617  0.37460260  0.25601092  1
  O  O208  1  0.50323504  0.36907038  0.76036189  1
  O  O209  1  0.50493275  0.86642963  0.26007481  1
  O  O210  1  0.50824976  0.87534200  0.75819508  1
  O  O211  1  0.48965671  0.12387044  0.24189521  1
  O  O212  1  0.49059610  0.13466514  0.75796547  1
  O  O213  1  0.49210288  0.63644395  0.25595105  1
  O  O214  1  0.49680812  0.62327558  0.73884309  1
  O  O215  1  1.00341431  0.12372872  0.23749458  1
  O  O216  1  0.99302477  0.12905525  0.74754216  1
  O  O217  1  0.99415161  0.63063989  0.24451683  1
  O  O218  1  0.99371984  0.63255109  0.74591060  1
  O  O219  1  0.36052409  0.23419676  -0.00155803  1
  O  O220  1  0.36602618  0.25055919  0.51035451  1
  O  O221  1  0.36913912  0.75428193  0.00460916  1
  O  O222  1  0.37436773  0.75533713  0.50250608  1
  O  O223  1  0.87205077  0.25881239  0.01222648  1
  O  O224  1  0.86451558  0.26235221  0.50586957  1
  O  O225  1  0.86737170  0.75585291  0.00380403  1
  O  O226  1  0.86812632  0.75586483  0.50813340  1
  O  O227  1  0.13537562  0.25429619  0.49535404  1
  O  O228  1  0.13100068  0.24052291  0.99440790  1
  O  O229  1  0.12585234  0.74947461  0.48526616  1
  O  O230  1  0.13101224  0.74754401  0.99444898  1
  O  O231  1  0.64119886  0.26258475  0.50190265  1
  O  O232  1  0.62420824  0.24764536  0.98536861  1
  O  O233  1  0.63305781  0.75364359  0.49049211  1
  O  O234  1  0.63497302  0.74432419  1.00133464  1
  O  O235  1  0.50420584  0.23657442  0.12470375  1
  O  O236  1  0.49212162  0.25256477  0.63764663  1
  O  O237  1  0.49152490  0.75390041  0.13558805  1
  O  O238  1  0.50152052  0.73617458  0.62564689  1
  O  O239  1  0.99101620  0.23997409  0.12621668  1
  O  O240  1  1.00350956  0.24266450  0.63443483  1
  O  O241  1  0.99197937  0.74434583  0.13044694  1
  O  O242  1  0.99952350  0.74717921  0.63332728  1
  O  O243  1  0.01102044  0.24269230  0.37880790  1
  O  O244  1  0.01274733  0.25449500  0.87165042  1
  O  O245  1  0.00801204  0.75543767  0.36748935  1
  O  O246  1  0.00459627  0.75811296  0.86816513  1
  O  O247  1  0.50070782  0.25911616  0.37508102  1
  O  O248  1  0.50413357  0.25838137  0.86787135  1
  O  O249  1  0.50659921  0.75522595  0.37034853  1
  O  O250  1  0.49863899  0.76292196  0.87549219  1
  O  O251  1  0.25601011  0.13214510  0.48963386  1
  O  O252  1  0.24260990  0.12611212  0.99280606  1
  O  O253  1  0.24638035  0.62786971  0.48915097  1
  O  O254  1  0.23867582  0.63849602  0.99992663  1
  O  O255  1  0.75360679  0.14270634  0.50581253  1
  O  O256  1  0.74776879  0.12638312  0.98959286  1
  O  O257  1  0.75618944  0.63895314  0.50093757  1
  O  O258  1  0.74617263  0.63029723  0.99397711  1
  O  O259  1  0.25069817  0.34412530  -0.01347169  1
  O  O260  1  0.25397393  0.36430563  0.50123143  1
  O  O261  1  0.26233168  0.87270841  -0.00323135  1
  O  O262  1  0.25187517  0.87355057  0.50842794  1
  O  O263  1  0.74632647  0.37351489  0.00863120  1
  O  O264  1  0.76572178  0.37202720  0.49784229  1
  O  O265  1  0.75573142  0.86871856  -0.00034045  1
  O  O266  1  0.74983725  0.86548993  0.50781999  1
  O  O267  1  0.12480908  0.48508123  0.24901377  1
  O  O268  1  0.13004297  0.49323236  0.74607030  1
  O  O269  1  0.13194175  0.99190369  0.24527658  1
  O  O270  1  0.13765050  1.00247244  0.74404328  1
  O  O271  1  0.63180324  0.48768061  0.25115390  1
  O  O272  1  0.63975172  0.49391105  0.75722452  1
  O  O273  1  0.63029250  0.99190094  0.23870850  1
  O  O274  1  0.63312858  0.99267428  0.74069095  1
  O  O275  1  0.36706685  0.00385724  0.25495596  1
  O  O276  1  0.37050207  0.00725427  0.75152179  1
  O  O277  1  0.37961969  0.51323294  0.24720146  1
  O  O278  1  0.37402429  0.50604638  0.75710732  1
  O  O279  1  0.86000858  -0.00863917  0.24585639  1
  O  O280  1  0.86151791  0.00694989  0.74711467  1
  O  O281  1  0.86500966  0.50913638  0.24779668  1
  O  O282  1  0.86338155  0.50672597  0.74797876  1
  O  O283  1  0.11177539  0.36801215  0.37225339  1
  O  O284  1  0.12104165  0.36898704  0.87200935  1
  O  O285  1  0.11707612  0.86913341  0.36538752  1
  O  O286  1  0.11245419  0.86357199  0.87963557  1
  O  O287  1  0.61084887  0.37423895  0.36867668  1
  O  O288  1  0.61728410  0.36765569  0.86806361  1
  O  O289  1  0.61839721  0.86702663  0.36813436  1
  O  O290  1  0.61563469  0.88378618  0.86630592  1
  O  O291  1  0.38439614  0.11563097  0.13483859  1
  O  O292  1  0.37058350  0.13532708  0.63726043  1
  O  O293  1  0.36971887  0.63998182  0.13074608  1
  O  O294  1  0.38406136  0.62593190  0.63457847  1
  O  O295  1  0.88185325  0.13377537  0.11990469  1
  O  O296  1  0.88407757  0.12594332  0.63859987  1
  O  O297  1  0.88100562  0.63128095  0.13416155  1
  O  O298  1  0.88309347  0.63110862  0.63629459  1
  O  O299  1  0.24836741  0.23549238  0.11313964  1
  O  O300  1  0.25521626  0.25039580  0.61891803  1
  O  O301  1  0.25636843  0.75408841  0.11176635  1
  O  O302  1  0.24895970  0.75996283  0.62353703  1
  O  O303  1  0.75456830  0.25730992  0.12427753  1
  O  O304  1  0.75285374  0.25556225  0.61606540  1
  O  O305  1  0.75600554  0.75514868  0.11583860  1
  O  O306  1  0.75369435  0.75534752  0.62070301  1
  O  O307  1  0.24060941  0.24272279  0.38285179  1
  O  O308  1  0.23961619  0.23918891  0.87473068  1
  O  O309  1  0.24161385  0.74264065  0.37393076  1
  O  O310  1  0.24021486  0.75971944  0.88615949  1
  O  O311  1  0.74696799  0.25433512  0.39127400  1
  O  O312  1  0.74184690  0.24119663  0.87274079  1
  O  O313  1  0.74120210  0.75023460  0.38336665  1
  O  O314  1  0.75581452  0.74203560  0.88357511  1
  O  O315  1  0.00099959  0.11668325  0.00300029  1
  O  O316  1  -0.00640577  0.12684043  0.51479094  1
  O  O317  1  0.00549955  0.62911629  0.00984220  1
  O  O318  1  0.00058718  0.63169450  0.51407075  1
  O  O319  1  0.50108761  0.11602246  0.00636426  1
  O  O320  1  0.49653638  0.11395554  0.49454022  1
  O  O321  1  0.51041488  0.61361695  -0.00489942  1
  O  O322  1  0.49928958  0.61447931  0.51073629  1
  O  O323  1  0.49636061  0.38454367  0.49507753  1
  O  O324  1  0.50883883  0.39002989  0.99279884  1
  O  O325  1  0.50311417  0.88083486  0.48826653  1
  O  O326  1  0.49200954  0.87901149  0.99423710  1
  O  O327  1  0.99220353  0.37297516  0.48551339  1
  O  O328  1  1.00572294  0.37550970  0.98443628  1
  O  O329  1  1.00043961  0.87598189  0.48936435  1
  O  O330  1  0.99259328  0.88083276  0.99298280  1
  O  O331  1  0.49720401  0.49616759  0.38602545  1
  O  O332  1  0.49448863  0.48952601  0.87390979  1
  O  O333  1  0.49857748  0.99227770  0.38001639  1
  O  O334  1  0.49470068  0.99326411  0.88111069  1
  O  O335  1  1.00232330  0.49480277  0.37773923  1
  O  O336  1  1.00323174  0.48557490  0.86935536  1
  O  O337  1  0.99990204  0.99093546  0.37547840  1
  O  O338  1  1.00518269  0.99063223  0.88260056  1
  O  O339  1  0.00269601  0.00545653  0.11642243  1
  O  O340  1  0.00984558  0.00699013  0.62641082  1
  O  O341  1  -0.00341909  0.51240050  0.12761920  1
  O  O342  1  0.01141230  0.51242718  0.63501734  1
  O  O343  1  0.50703713  0.00369913  0.12128305  1
  O  O344  1  0.51346906  -0.00491169  0.61653759  1
  O  O345  1  0.50042520  0.49936149  0.11264311  1
  O  O346  1  0.49851980  0.51027713  0.61481593  1
  O  O347  1  0.23355909  0.37134287  0.25327180  1
  O  O348  1  0.23885583  0.37336195  0.75295998  1
  O  O349  1  0.24089564  0.88364556  0.25597048  1
  O  O350  1  0.25650339  0.88543476  0.74248356  1
  O  O351  1  0.74410305  0.38106916  0.24728150  1
  O  O352  1  0.74440391  0.38798390  0.75486315  1
  O  O353  1  0.74301617  0.87800727  0.24097743  1
  O  O354  1  0.74552842  0.88289907  0.74775329  1
  O  O355  1  0.25428077  0.11744461  0.25614003  1
  O  O356  1  0.25766135  0.11617363  0.75468814  1
  O  O357  1  0.25975848  0.63054091  0.25667163  1
  O  O358  1  0.26376291  0.62589816  0.74937235  1
  O  O359  1  0.74722468  0.10652412  0.24042433  1
  O  O360  1  0.75676598  0.12019656  0.75404685  1
  O  O361  1  0.75732718  0.61602787  0.25150071  1
  O  O362  1  0.75601578  0.61619786  0.75723103  1
  O  O363  1  0.36501476  0.11882262  0.36602405  1
  O  O364  1  0.37014144  0.11684079  0.86474687  1
  O  O365  1  0.36609739  0.62510212  0.36428446  1
  O  O366  1  0.38577318  0.61648383  0.86232406  1
  O  O367  1  0.86406526  0.12353458  0.37073062  1
  O  O368  1  0.86775937  0.13235948  0.86313851  1
  O  O369  1  0.87321036  0.63326527  0.36206878  1
  O  O370  1  0.86881819  0.63000376  0.86301202  1
  O  O371  1  0.11747999  0.36817011  0.14082163  1
  O  O372  1  0.12408463  0.38227692  0.63498236  1
  O  O373  1  0.11859552  0.87965438  0.13641712  1
  O  O374  1  0.13715198  0.88552934  0.62482056  1
  O  O375  1  0.63456458  0.37022216  0.13396375  1
  O  O376  1  0.61571347  0.37493484  0.64262356  1
  O  O377  1  0.62857436  0.88061001  0.12882867  1
  O  O378  1  0.63209465  0.88162918  0.63332480  1
  O  O379  1  0.11886453  0.25673101  0.26178367  1
  O  O380  1  0.12206424  0.25658173  0.75867024  1
  O  O381  1  0.12220996  0.75685906  0.25639273  1
  O  O382  1  0.11365848  0.74566200  0.75771569  1
  O  O383  1  0.62199842  0.26355058  0.25425851  1
  O  O384  1  0.61813177  0.25520105  0.75758938  1
  O  O385  1  0.61828220  0.75279099  0.25420581  1
  O  O386  1  0.62594154  0.76447530  0.74920024  1
  O  O387  1  0.37419541  0.23728224  0.25335653  1
  O  O388  1  0.38059599  0.24402552  0.74865322  1
  O  O389  1  0.38167266  0.74629957  0.24231539  1
  O  O390  1  0.38137674  0.74169966  0.74796776  1
  O  O391  1  0.87671529  0.25602773  0.23738614  1
  O  O392  1  0.88221791  0.24394575  0.74600962  1
  O  O393  1  0.87815871  0.74466037  0.24221576  1
  O  O394  1  0.88502927  0.74270864  0.74524994  1
  O  O395  1  0.38570244  0.49783959  0.49762559  1
  O  O396  1  0.39536795  0.50639706  0.99115313  1
  O  O397  1  0.38540086  0.99776081  0.49328637  1
  O  O398  1  0.37787325  0.99180936  0.99526529  1
  O  O399  1  0.87098793  0.48897579  0.49994145  1
  O  O400  1  0.88016186  0.49485018  0.99977703  1
  O  O401  1  0.87800198  0.99461764  0.49677703  1
  O  O402  1  0.88440530  0.99139544  1.00293615  1
  O  O403  1  0.11530168  0.00186098  0.00447234  1
  O  O404  1  0.12342918  0.00078440  0.51094581  1
  O  O405  1  0.11418318  0.51728712  -0.00889047  1
  O  O406  1  0.12651780  0.49820250  0.51290255  1
  O  O407  1  0.62122715  -0.00006902  0.01245461  1
  O  O408  1  0.62143517  -0.00280232  0.51351782  1
  O  O409  1  0.61545530  0.50880639  -0.00349741  1
  O  O410  1  0.60982068  0.49628063  0.49759552  1
  O  O411  1  0.38182203  0.37105241  0.10577674  1
  O  O412  1  0.37252845  0.36190662  0.62927221  1
  O  O413  1  0.37939748  0.86455172  0.11612013  1
  O  O414  1  0.36343500  0.87476608  0.62366698  1
  O  O415  1  0.86486943  0.36872375  0.12508697  1
  O  O416  1  0.89008487  0.37677914  0.60852408  1
  O  O417  1  0.87136986  0.86787154  0.11165670  1
  O  O418  1  0.86501041  0.86904751  0.62813468  1
  O  O419  1  0.13609185  0.13189292  0.37027408  1
  O  O420  1  0.12824247  0.13115208  0.88039423  1
  O  O421  1  0.13066326  0.63281598  0.37303714  1
  O  O422  1  0.11710289  0.64130650  0.88378893  1
  O  O423  1  0.63613928  0.12824046  0.36863249  1
  O  O424  1  0.63206397  0.13301383  0.87306651  1
  O  O425  1  0.62735591  0.63604841  0.36945994  1
  O  O426  1  0.63692589  0.62512688  0.88441558  1
