# generated using pymatgen
data_V85Zn86O256
_symmetry_space_group_name_H-M   'P 1'
_cell_length_a   16.90741259
_cell_length_b   16.92534475
_cell_length_c   16.91602241
_cell_angle_alpha   89.91105662
_cell_angle_beta   90.06272777
_cell_angle_gamma   90.01117609
_symmetry_Int_Tables_number   1
_chemical_formula_structural   V85Zn86O256
_chemical_formula_sum   'V85 Zn86 O256'
_cell_volume   4840.74420791
_cell_formula_units_Z   1
loop_
 _symmetry_equiv_pos_site_id
 _symmetry_equiv_pos_as_xyz
  1  'x, y, z'
loop_
 _atom_site_type_symbol
 _atom_site_label
 _atom_site_symmetry_multiplicity
 _atom_site_fract_x
 _atom_site_fract_y
 _atom_site_fract_z
 _atom_site_occupancy
  V  V0  1  -0.00188387  0.12957520  0.12090049  1
  V  V1  1  0.74703491  0.37218416  0.12807086  1
  V  V2  1  0.24482384  0.75336601  -0.01190010  1
  V  V3  1  0.74814775  -0.00835208  0.25001192  1
  V  V4  1  0.25677668  0.25327559  0.49711414  1
  V  V5  1  0.75385395  0.00277980  0.76173873  1
  V  V6  1  0.37657514  0.25042510  0.63046501  1
  V  V7  1  0.87437829  0.37284670  0.49682473  1
  V  V8  1  0.75284856  0.87709916  0.62650769  1
  V  V9  1  0.62478185  0.25530183  0.37415770  1
  V  V10  1  0.87092228  0.87280613  0.01024217  1
  V  V11  1  0.49624045  0.88171458  0.87153080  1
  V  V12  1  0.25856194  0.36875992  0.12458882  1
  V  V13  1  0.50209690  0.00790556  -0.00476734  1
  V  V14  1  -0.00316265  -0.00047221  -0.01350421  1
  V  V15  1  0.00310269  0.62261914  0.12529777  1
  V  V16  1  0.00590429  0.49273950  -0.00131201  1
  V  V17  1  0.50097471  0.25844656  0.24473612  1
  V  V18  1  0.87193946  0.62468442  0.24210424  1
  V  V19  1  0.49696594  0.62469654  0.12385339  1
  V  V20  1  0.87694674  0.24772524  0.62481859  1
  V  V21  1  0.49444076  0.37417400  0.37845568  1
  V  V22  1  0.49067583  0.49975502  -0.00313695  1
  V  V23  1  0.49757165  0.49578579  0.50316331  1
  V  V24  1  0.26814223  0.11820976  0.87206037  1
  V  V25  1  -0.00537475  0.75216128  0.24922721  1
  V  V26  1  0.74380776  0.12103107  0.37969451  1
  V  V27  1  -0.00747435  0.24978022  0.24510999  1
  V  V28  1  0.24805280  0.87426826  0.12407638  1
  V  V29  1  0.12270542  0.62962918  -0.00308355  1
  V  V30  1  0.12040500  0.74764262  0.38308845  1
  V  V31  1  0.00431192  0.25519549  0.75026591  1
  V  V32  1  0.12818168  0.12515098  -0.00462429  1
  V  V33  1  0.62377684  0.74855860  0.37573502  1
  V  V34  1  0.87813308  0.74881006  0.63032493  1
  V  V35  1  0.81457499  0.20523037  0.06324312  1
  V  V36  1  0.86515688  0.49622871  0.87799450  1
  V  V37  1  0.24318209  0.62203408  0.38446674  1
  V  V38  1  0.24145373  0.86855142  0.62574042  1
  V  V39  1  0.74442736  0.24542659  0.50258785  1
  V  V40  1  0.75114146  0.62224506  0.37483062  1
  V  V41  1  0.12642358  0.38148903  0.75004688  1
  V  V42  1  0.87214259  0.37509099  0.00380413  1
  V  V43  1  0.13118723  0.25298651  0.87336561  1
  V  V44  1  0.62759877  0.75292628  0.87370986  1
  V  V45  1  0.37072642  0.62371390  0.25288187  1
  V  V46  1  0.63042298  0.49889545  0.63810386  1
  V  V47  1  0.49851863  0.87628646  0.37477939  1
  V  V48  1  0.12073911  0.37758774  0.24009773  1
  V  V49  1  0.12012770  0.87431196  0.25699635  1
  V  V50  1  0.00743531  0.11649393  0.62439650  1
  V  V51  1  0.00204025  0.37390765  0.37424806  1
  V  V52  1  0.62938417  0.00877136  0.62123954  1
  V  V53  1  0.51451549  0.25072846  0.74731284  1
  V  V54  1  0.50140516  0.12873241  0.12184731  1
  V  V55  1  0.37118549  0.75113686  0.12310539  1
  V  V56  1  0.24284065  0.50226667  0.24405071  1
  V  V57  1  0.49659673  0.75097335  0.25018464  1
  V  V58  1  0.62482859  -0.00506061  0.12206721  1
  V  V59  1  0.25679918  0.00647024  0.73991774  1
  V  V60  1  0.49578067  0.12439193  0.62778083  1
  V  V61  1  0.74909986  0.75312847  0.01616330  1
  V  V62  1  0.63013289  0.25067182  0.89138976  1
  V  V63  1  -0.00155399  0.86002870  0.87568660  1
  V  V64  1  0.00295577  0.61385626  0.62408655  1
  V  V65  1  0.87832925  0.12214791  0.75962578  1
  V  V66  1  0.37571283  0.62704070  0.75160953  1
  V  V67  1  0.62617386  0.87773024  0.74911217  1
  V  V68  1  0.88513527  0.87471494  0.49658868  1
  V  V69  1  0.49686396  0.63463645  0.62269696  1
  V  V70  1  0.37617656  0.13066529  0.24651174  1
  V  V71  1  0.50319049  0.00655583  0.49854116  1
  V  V72  1  0.49950858  0.38190772  0.86490249  1
  V  V73  1  0.75216470  0.75001598  0.50036194  1
  V  V74  1  0.25621807  0.37746268  0.62177158  1
  V  V75  1  0.12181541  0.00042333  0.12495075  1
  V  V76  1  0.13002488  0.11963690  0.50051135  1
  V  V77  1  0.25095393  0.61591525  0.87516075  1
  V  V78  1  0.37270228  0.88265856  -0.00639913  1
  V  V79  1  0.62290034  0.49488090  0.13090231  1
  V  V80  1  0.88328499  -0.00058433  0.37486484  1
  V  V81  1  0.37586121  0.86881914  0.50883761  1
  V  V82  1  0.62284228  0.62587922  0.00022043  1
  V  V83  1  0.86882240  0.62432152  0.75589308  1
  V  V84  1  0.25156777  0.00080351  0.25020476  1
  Zn  Zn85  1  0.00253182  0.50073452  0.49767997  1
  Zn  Zn86  1  0.87351982  0.49954223  0.37426320  1
  Zn  Zn87  1  0.25138255  0.12701148  0.37345951  1
  Zn  Zn88  1  0.25970132  0.24390649  0.00405544  1
  Zn  Zn89  1  0.62626664  0.62275400  0.50243542  1
  Zn  Zn90  1  0.37587875  0.37114011  -0.00372822  1
  Zn  Zn91  1  0.12783363  0.24951398  0.37346973  1
  Zn  Zn92  1  0.49509806  0.75671859  0.74361200  1
  Zn  Zn93  1  0.12605211  0.87745537  0.75818817  1
  Zn  Zn94  1  0.74846854  0.13031526  0.88609755  1
  Zn  Zn95  1  0.74534658  0.62181749  0.87515286  1
  Zn  Zn96  1  0.86972954  0.12642921  0.24639041  1
  Zn  Zn97  1  0.36979031  0.49342832  0.38089440  1
  Zn  Zn98  1  0.25074564  0.74370299  0.50414213  1
  Zn  Zn99  1  0.62734768  0.87073992  0.24500035  1
  Zn  Zn100  1  0.01004495  0.74370232  0.75475944  1
  Zn  Zn101  1  0.00854069  -0.00527219  0.50033900  1
  Zn  Zn102  1  0.26109210  0.49490257  0.75449876  1
  Zn  Zn103  1  0.37553169  0.00112758  0.37500490  1
  Zn  Zn104  1  0.13382068  0.50481096  0.61545731  1
  Zn  Zn105  1  0.74001398  0.37350870  0.63770051  1
  Zn  Zn106  1  0.74535867  0.49301001  0.25390371  1
  Zn  Zn107  1  0.18314711  0.18928301  0.18815140  1
  Zn  Zn108  1  0.18973273  0.18679834  0.68661774  1
  Zn  Zn109  1  0.18248416  0.68828104  0.18483840  1
  Zn  Zn110  1  0.18523967  0.69131471  0.69406340  1
  Zn  Zn111  1  0.67888974  0.17908795  0.19434304  1
  Zn  Zn112  1  0.68940215  0.18465117  0.68804563  1
  Zn  Zn113  1  0.68337617  0.68438062  0.18967645  1
  Zn  Zn114  1  0.68638132  0.68544729  0.68845987  1
  Zn  Zn115  1  0.31405492  0.31220370  0.30918618  1
  Zn  Zn116  1  0.31771278  0.30870272  0.81054854  1
  Zn  Zn117  1  0.30983238  0.81190328  0.31684926  1
  Zn  Zn118  1  0.31273634  0.81106123  0.80720571  1
  Zn  Zn119  1  0.81124644  0.31028977  0.31077652  1
  Zn  Zn120  1  0.81123357  0.31564713  0.81451703  1
  Zn  Zn121  1  0.81541969  0.81184184  0.31344434  1
  Zn  Zn122  1  0.81615376  0.81456297  0.81872786  1
  Zn  Zn123  1  0.18276274  0.43687600  0.43684810  1
  Zn  Zn124  1  0.18520370  0.43731504  0.93984767  1
  Zn  Zn125  1  0.18916335  0.93627644  0.43715358  1
  Zn  Zn126  1  0.18460851  0.94242161  0.93204693  1
  Zn  Zn127  1  0.68389335  0.43593369  0.44477007  1
  Zn  Zn128  1  0.68321907  0.43287649  0.94340594  1
  Zn  Zn129  1  0.68845600  0.93496880  0.43843057  1
  Zn  Zn130  1  0.68649262  0.93790022  0.94001429  1
  Zn  Zn131  1  0.31589545  0.06407641  0.06310197  1
  Zn  Zn132  1  0.31616466  0.06049145  0.56121536  1
  Zn  Zn133  1  0.30809065  0.56048003  0.06375882  1
  Zn  Zn134  1  0.31811215  0.56057834  0.56684670  1
  Zn  Zn135  1  0.81298292  0.04096506  0.06344887  1
  Zn  Zn136  1  0.81669539  0.06303516  0.56305412  1
  Zn  Zn137  1  0.81000607  0.56208002  0.06314640  1
  Zn  Zn138  1  0.81561815  0.56063526  0.56223069  1
  Zn  Zn139  1  0.43662045  0.43975290  0.19184675  1
  Zn  Zn140  1  0.43781382  0.44149721  0.68739576  1
  Zn  Zn141  1  0.43686188  0.93907876  0.18473025  1
  Zn  Zn142  1  0.43235730  0.94122988  0.68760768  1
  Zn  Zn143  1  0.93210772  0.44098610  0.18409509  1
  Zn  Zn144  1  0.91315341  0.42620243  0.69925202  1
  Zn  Zn145  1  0.93836540  0.94005136  0.18818075  1
  Zn  Zn146  1  0.93781678  0.93775397  0.69084295  1
  Zn  Zn147  1  0.06370060  0.06729241  0.31308940  1
  Zn  Zn148  1  0.07256276  0.06184889  0.80775125  1
  Zn  Zn149  1  0.06147206  0.56079894  0.31360624  1
  Zn  Zn150  1  0.05731956  0.56317826  0.81583744  1
  Zn  Zn151  1  0.56492289  0.06564195  0.31115807  1
  Zn  Zn152  1  0.56537413  0.06753264  0.81182990  1
  Zn  Zn153  1  0.56107241  0.56146064  0.31471901  1
  Zn  Zn154  1  0.55993611  0.56597560  0.81082968  1
  Zn  Zn155  1  0.43509902  0.18702678  0.43679184  1
  Zn  Zn156  1  0.43910504  0.19644029  0.93701853  1
  Zn  Zn157  1  0.43490179  0.68536509  0.43899732  1
  Zn  Zn158  1  0.43531073  0.69251327  0.93248767  1
  Zn  Zn159  1  0.93741631  0.18514125  0.43598116  1
  Zn  Zn160  1  0.94610347  0.18932450  0.93039250  1
  Zn  Zn161  1  0.93768895  0.68628746  0.43694710  1
  Zn  Zn162  1  0.93057828  0.68689745  0.94334754  1
  Zn  Zn163  1  0.06789980  0.31181693  0.06084593  1
  Zn  Zn164  1  0.06822503  0.31053122  0.56253558  1
  Zn  Zn165  1  0.06016723  0.81070018  0.06531529  1
  Zn  Zn166  1  0.06384350  0.80806537  0.56906891  1
  Zn  Zn167  1  0.55947180  0.31560933  0.06071879  1
  Zn  Zn168  1  0.56495584  0.31595259  0.56219816  1
  Zn  Zn169  1  0.55945985  0.81463962  0.05990324  1
  Zn  Zn170  1  0.56612892  0.81635739  0.56041777  1
  O  O171  1  0.11813859  0.12027509  0.11695290  1
  O  O172  1  0.11858916  0.12857710  0.61624992  1
  O  O173  1  0.11683913  0.62542505  0.11194210  1
  O  O174  1  0.10736250  0.62124355  0.63490891  1
  O  O175  1  0.60906745  0.11179086  0.12941872  1
  O  O176  1  0.61804424  0.11406691  0.62544741  1
  O  O177  1  0.61447687  0.62003796  0.11905529  1
  O  O178  1  0.61674435  0.61736683  0.62468213  1
  O  O179  1  0.38928052  0.37513181  0.37042700  1
  O  O180  1  0.39431769  0.37156798  0.87345549  1
  O  O181  1  0.38599152  0.87743344  0.37980120  1
  O  O182  1  0.38387553  0.86972001  0.88158216  1
  O  O183  1  0.88033630  0.37222764  0.38299931  1
  O  O184  1  0.87267468  0.38227227  0.89288805  1
  O  O185  1  0.87002424  0.88494317  0.38570173  1
  O  O186  1  0.88987862  0.87314691  0.88783016  1
  O  O187  1  0.25144710  0.00043708  0.36024039  1
  O  O188  1  0.25141846  0.01345806  0.86978264  1
  O  O189  1  0.24999549  0.50521498  0.36489650  1
  O  O190  1  0.24885002  0.51173184  0.87656663  1
  O  O191  1  0.75376528  0.00576178  0.37197369  1
  O  O192  1  0.74270045  0.00727370  0.86490171  1
  O  O193  1  0.74642113  0.51075032  0.37556718  1
  O  O194  1  0.75968712  0.50153558  0.88735991  1
  O  O195  1  0.25068764  0.49176421  0.13773017  1
  O  O196  1  0.25077046  0.49188523  0.63049435  1
  O  O197  1  0.24391634  0.99555484  0.13319773  1
  O  O198  1  0.25383416  0.99453400  0.63417890  1
  O  O199  1  0.73946321  0.49186942  0.12533809  1
  O  O200  1  0.73292119  0.50276094  0.61796790  1
  O  O201  1  0.73761254  1.00166198  0.13637338  1
  O  O202  1  0.74445138  0.99748290  0.63031040  1
  O  O203  1  0.00278544  0.36978188  0.24925086  1
  O  O204  1  0.00823666  0.36155577  0.74128700  1
  O  O205  1  0.00815218  0.86607436  0.24447498  1
  O  O206  1  -0.00370980  0.87601850  0.76765045  1
  O  O207  1  0.49864791  0.36482694  0.25558393  1
  O  O208  1  0.50067119  0.37118923  0.75901872  1
  O  O209  1  0.49744472  0.86921785  0.25864070  1
  O  O210  1  0.50431895  0.87733596  0.75558137  1
  O  O211  1  0.49413158  0.13256332  0.24332486  1
  O  O212  1  0.50487144  0.13479707  0.73865154  1
  O  O213  1  0.48881626  0.62994642  0.24678277  1
  O  O214  1  0.49183464  0.63103754  0.74393439  1
  O  O215  1  0.99660697  0.13063267  0.23894840  1
  O  O216  1  0.99772122  0.12913015  0.74368716  1
  O  O217  1  0.99316577  0.62729572  0.24278636  1
  O  O218  1  0.98914280  0.62732158  0.74366413  1
  O  O219  1  0.37186916  0.25667755  0.00085158  1
  O  O220  1  0.36478309  0.24436213  0.51040903  1
  O  O221  1  0.36755353  0.76094219  0.00409302  1
  O  O222  1  0.37185230  0.76484211  0.49327517  1
  O  O223  1  0.88235463  0.25777669  -0.00037322  1
  O  O224  1  0.86554085  0.25053434  0.50406603  1
  O  O225  1  0.86333170  0.76088135  0.00065733  1
  O  O226  1  0.87103090  0.75654164  0.50605465  1
  O  O227  1  0.14001055  0.24051726  0.49972889  1
  O  O228  1  0.13336557  0.24509198  0.99040325  1
  O  O229  1  0.12560480  0.75430250  0.48668901  1
  O  O230  1  0.13381879  0.74365252  1.00432081  1
  O  O231  1  0.63779810  0.25226083  0.49567236  1
  O  O232  1  0.62225917  0.24765124  0.98999615  1
  O  O233  1  0.63406998  0.74894148  0.49305828  1
  O  O234  1  0.62858476  0.74820530  0.99363446  1
  O  O235  1  0.50786856  0.24222052  0.13342154  1
  O  O236  1  0.49787169  0.24450307  0.62678000  1
  O  O237  1  0.49150508  0.74511653  0.12885550  1
  O  O238  1  0.50833206  0.73885961  0.62343201  1
  O  O239  1  1.00529810  0.23742081  0.12721795  1
  O  O240  1  0.99748284  0.23858356  0.63060950  1
  O  O241  1  1.00420091  0.73710157  0.13709093  1
  O  O242  1  0.98799937  0.74093653  0.62617885  1
  O  O243  1  0.00014710  0.25810450  0.36484455  1
  O  O244  1  0.01598494  0.24607243  0.86159171  1
  O  O245  1  0.00831872  0.74141426  0.36279748  1
  O  O246  1  -0.00196524  0.75748439  0.87845618  1
  O  O247  1  0.50638855  0.25487987  0.37201950  1
  O  O248  1  0.51136483  0.25731673  0.86545679  1
  O  O249  1  0.50348025  0.75599625  0.37144543  1
  O  O250  1  0.51116318  0.76460033  0.87617176  1
  O  O251  1  0.24647628  0.12995080  0.49851633  1
  O  O252  1  0.24774173  0.12200425  0.98883603  1
  O  O253  1  0.25692902  0.62327515  0.48791464  1
  O  O254  1  0.24403072  0.63156611  0.99520540  1
  O  O255  1  0.75424459  0.13250361  0.49317389  1
  O  O256  1  0.76591229  0.13230410  1.00442343  1
  O  O257  1  0.75243766  0.63203141  0.49151230  1
  O  O258  1  0.74116712  0.63557103  1.00130487  1
  O  O259  1  0.25084869  0.38063653  0.01642384  1
  O  O260  1  0.24718250  0.36566134  0.50852734  1
  O  O261  1  0.25375784  0.87126380  -0.00006316  1
  O  O262  1  0.25797371  0.87772139  0.51067354  1
  O  O263  1  0.75802034  0.37276372  0.01381978  1
  O  O264  1  0.75933152  0.36580064  0.50451037  1
  O  O265  1  0.76275329  0.87157295  -0.00288229  1
  O  O266  1  0.75953831  0.86924297  0.50749620  1
  O  O267  1  0.13100859  0.49106451  0.25198941  1
  O  O268  1  0.12197757  0.48644550  0.75289462  1
  O  O269  1  0.12886619  0.99389378  0.24576497  1
  O  O270  1  0.14622351  0.99225777  0.75674458  1
  O  O271  1  0.62423406  0.50690538  0.23520906  1
  O  O272  1  0.62488036  0.50510210  0.73758408  1
  O  O273  1  0.63052589  0.99672594  0.24390265  1
  O  O274  1  0.63377556  0.99686505  0.74176255  1
  O  O275  1  0.36646262  0.00593441  0.24936902  1
  O  O276  1  0.35728023  -0.00370721  0.75426688  1
  O  O277  1  0.36672970  0.50984801  0.25432841  1
  O  O278  1  0.37770114  0.51840364  0.74942375  1
  O  O279  1  0.86745517  0.00123564  0.25696678  1
  O  O280  1  0.86544617  0.00988369  0.74469021  1
  O  O281  1  0.86881804  0.50975798  0.25315252  1
  O  O282  1  0.88719482  0.51249685  0.77117884  1
  O  O283  1  0.11735839  0.37033826  0.36099183  1
  O  O284  1  0.13540983  0.36187203  0.86748054  1
  O  O285  1  0.12975638  0.86702602  0.36325705  1
  O  O286  1  0.10324052  0.87924157  0.88241959  1
  O  O287  1  0.61764106  0.36233271  0.37886550  1
  O  O288  1  0.61351224  0.36391605  0.87936563  1
  O  O289  1  0.61302659  0.86767281  0.37526358  1
  O  O290  1  0.61880530  0.87188922  0.86901850  1
  O  O291  1  0.38726390  0.11938730  0.13584695  1
  O  O292  1  0.38844546  0.13158930  0.62142514  1
  O  O293  1  0.37605390  0.62958601  0.13430344  1
  O  O294  1  0.38466293  0.62617162  0.63525357  1
  O  O295  1  0.87733374  0.13037264  0.12008794  1
  O  O296  1  0.88366433  0.13440695  0.62975920  1
  O  O297  1  0.87954709  0.62386204  0.13565062  1
  O  O298  1  0.87818371  0.63050860  0.63515389  1
  O  O299  1  0.24584172  0.26507403  0.12648540  1
  O  O300  1  0.26039228  0.25455531  0.62158495  1
  O  O301  1  0.25327868  0.75588094  0.11557412  1
  O  O302  1  0.24705021  0.76349282  0.62142266  1
  O  O303  1  0.74561206  0.25090581  0.12894363  1
  O  O304  1  0.75885298  0.24990117  0.61898817  1
  O  O305  1  0.73774200  0.75350816  0.11558479  1
  O  O306  1  0.76051948  0.75375505  0.62181464  1
  O  O307  1  0.25133984  0.24986476  0.38304805  1
  O  O308  1  0.24726484  0.23572079  0.87021019  1
  O  O309  1  0.24002602  0.74004222  0.37595416  1
  O  O310  1  0.25316086  0.74222045  0.88514666  1
  O  O311  1  0.74344531  0.24356801  0.38024306  1
  O  O312  1  0.73509975  0.25335517  0.87155951  1
  O  O313  1  0.74499627  0.74087906  0.37816100  1
  O  O314  1  0.73685703  0.75334023  0.88301146  1
  O  O315  1  0.00453605  0.11841689  0.00313904  1
  O  O316  1  0.00979273  0.12579812  0.50714365  1
  O  O317  1  0.00482740  0.62182628  0.00659458  1
  O  O318  1  -0.01122655  0.62194715  0.51954830  1
  O  O319  1  0.49264705  0.11445092  0.00507439  1
  O  O320  1  0.49761013  0.11232006  0.50405869  1
  O  O321  1  0.50187898  0.62096701  0.00279688  1
  O  O322  1  0.50106227  0.62004953  0.50745962  1
  O  O323  1  0.50234080  0.38234931  0.49134664  1
  O  O324  1  0.49863724  0.38469352  0.99008486  1
  O  O325  1  0.49447119  0.88278675  0.49521185  1
  O  O326  1  0.49146835  0.88470061  0.99204641  1
  O  O327  1  0.99595715  0.36635735  0.48691288  1
  O  O328  1  0.99543300  0.38809354  1.01010936  1
  O  O329  1  0.98921191  0.87565392  0.50711288  1
  O  O330  1  0.99317904  0.87899331  0.99506031  1
  O  O331  1  0.50040054  0.49078842  0.38172040  1
  O  O332  1  0.50834767  0.48891307  0.88073717  1
  O  O333  1  0.50289602  0.99325663  0.38143647  1
  O  O334  1  0.50747235  0.99147664  0.88054811  1
  O  O335  1  0.99579863  0.48478799  0.37220092  1
  O  O336  1  0.98956354  0.50600859  0.89476340  1
  O  O337  1  0.98670345  1.00612368  0.37571898  1
  O  O338  1  1.00276831  1.00232689  0.88498176  1
  O  O339  1  0.00187272  0.01228950  0.11751716  1
  O  O340  1  -0.00459369  0.01255964  0.62304306  1
  O  O341  1  -0.00599462  0.51305581  0.11289602  1
  O  O342  1  -0.00869600  0.51116639  0.63060674  1
  O  O343  1  0.50361505  0.00646109  0.11592596  1
  O  O344  1  0.50603363  0.00683364  0.62007316  1
  O  O345  1  0.50341942  0.50445016  0.11897664  1
  O  O346  1  0.50771696  0.50856946  0.62003462  1
  O  O347  1  0.24288408  0.38051818  0.24241061  1
  O  O348  1  0.24485354  0.37563828  0.74436160  1
  O  O349  1  0.24388018  0.88144771  0.24474762  1
  O  O350  1  0.25185115  0.88091796  0.73726022  1
  O  O351  1  0.75509267  0.37528938  0.23538100  1
  O  O352  1  0.80475962  0.38353305  0.72798005  1
  O  O353  1  0.74696701  0.88673937  0.25800763  1
  O  O354  1  0.74928374  0.88399233  0.74666763  1
  O  O355  1  0.25671597  0.11899181  0.24651270  1
  O  O356  1  0.24959857  0.11556202  0.75739256  1
  O  O357  1  0.25264829  0.61916857  0.25317550  1
  O  O358  1  0.25753591  0.62377465  0.75742790  1
  O  O359  1  0.75059337  0.11263235  0.25948346  1
  O  O360  1  0.76136680  0.11834800  0.74910709  1
  O  O361  1  0.75611627  0.62487462  0.25704412  1
  O  O362  1  0.76353381  0.62982775  0.75422625  1
  O  O363  1  0.37448052  0.12106895  0.36106000  1
  O  O364  1  0.36608858  0.12689413  0.87458611  1
  O  O365  1  0.36523529  0.62615208  0.36380094  1
  O  O366  1  0.36680267  0.62812590  0.86547942  1
  O  O367  1  0.86344767  0.11649987  0.37403386  1
  O  O368  1  0.87221273  0.13128659  0.86252065  1
  O  O369  1  0.86689859  0.62357049  0.36579809  1
  O  O370  1  0.86950062  0.61969336  0.87287805  1
  O  O371  1  0.13356372  0.37423765  0.13489883  1
  O  O372  1  0.13823114  0.37296134  0.63419356  1
  O  O373  1  0.12904550  0.88027496  0.13388486  1
  O  O374  1  0.13966541  0.88022930  0.61978846  1
  O  O375  1  0.63201123  0.38405815  0.11941651  1
  O  O376  1  0.62480380  0.39164579  0.62530282  1
  O  O377  1  0.61387572  0.88896027  0.12811059  1
  O  O378  1  0.63233223  0.88431496  0.63089191  1
  O  O379  1  0.11152909  0.25693085  0.25012347  1
  O  O380  1  0.12260697  0.25725076  0.75390389  1
  O  O381  1  0.11831240  0.75739789  0.25608092  1
  O  O382  1  0.12035140  0.76450135  0.74624258  1
  O  O383  1  0.61358616  0.24531858  0.26215905  1
  O  O384  1  0.61723897  0.25471947  0.74443270  1
  O  O385  1  0.61531315  0.75088055  0.25741357  1
  O  O386  1  0.62376342  0.75863313  0.75722115  1
  O  O387  1  0.38572546  0.24145079  0.25096108  1
  O  O388  1  0.38962370  0.25214186  0.73607937  1
  O  O389  1  0.37586996  0.74402071  0.24461712  1
  O  O390  1  0.37855767  0.73575633  0.75200439  1
  O  O391  1  0.88762550  0.24665311  0.25075667  1
  O  O392  1  0.88667771  0.24116154  0.74249390  1
  O  O393  1  0.88507349  0.74238865  0.25428540  1
  O  O394  1  0.87852372  0.74522372  0.74487915  1
  O  O395  1  0.39097605  0.50451367  0.49752029  1
  O  O396  1  0.38735182  0.49896456  1.00463402  1
  O  O397  1  0.38504304  0.99026366  0.49628173  1
  O  O398  1  0.38178645  0.98835767  1.00303628  1
  O  O399  1  0.87948658  0.48709939  0.49684144  1
  O  O400  1  0.88252259  0.49482615  0.99781488  1
  O  O401  1  0.87683094  0.99164739  0.49278606  1
  O  O402  1  0.88357602  0.98512827  0.99719514  1
  O  O403  1  0.11701507  0.00512720  0.00670173  1
  O  O404  1  0.12548861  0.01364453  0.49284428  1
  O  O405  1  0.11102787  0.50628293  -0.00162519  1
  O  O406  1  0.11528184  0.49337100  0.50427788  1
  O  O407  1  0.61463035  -0.00212370  0.00746805  1
  O  O408  1  0.61654165  -0.00812709  0.51016555  1
  O  O409  1  0.61427031  0.50697819  0.00935695  1
  O  O410  1  0.61271486  0.50387430  0.50628908  1
  O  O411  1  0.36061608  0.37823970  0.12948173  1
  O  O412  1  0.36509219  0.36856028  0.62889517  1
  O  O413  1  0.36753539  0.87112683  0.11621254  1
  O  O414  1  0.36545588  0.87829768  0.61686859  1
  O  O415  1  0.86639287  0.37585938  0.11427792  1
  O  O416  1  0.89354943  0.35628547  0.60532243  1
  O  O417  1  0.88104869  0.87698708  0.11002817  1
  O  O418  1  0.87186793  0.86722050  0.62139636  1
  O  O419  1  0.12910642  0.13080471  0.38253442  1
  O  O420  1  0.13336880  0.13395045  0.87923314  1
  O  O421  1  0.13314390  0.63338286  0.36837876  1
  O  O422  1  0.13161512  0.62253349  0.88743943  1
  O  O423  1  0.63624313  0.13406053  0.37475879  1
  O  O424  1  0.62818240  0.14486299  0.86956743  1
  O  O425  1  0.63213031  0.63205919  0.37602801  1
  O  O426  1  0.62368051  0.63543906  0.88061218  1
