# generated using pymatgen
data_V85Zn86O256
_symmetry_space_group_name_H-M   'P 1'
_cell_length_a   16.96042173
_cell_length_b   16.96585392
_cell_length_c   16.95295805
_cell_angle_alpha   89.97532641
_cell_angle_beta   89.98491911
_cell_angle_gamma   89.98284839
_symmetry_Int_Tables_number   1
_chemical_formula_structural   V85Zn86O256
_chemical_formula_sum   'V85 Zn86 O256'
_cell_volume   4878.17956652
_cell_formula_units_Z   1
loop_
 _symmetry_equiv_pos_site_id
 _symmetry_equiv_pos_as_xyz
  1  'x, y, z'
loop_
 _atom_site_type_symbol
 _atom_site_label
 _atom_site_symmetry_multiplicity
 _atom_site_fract_x
 _atom_site_fract_y
 _atom_site_fract_z
 _atom_site_occupancy
  V  V0  1  0.38214189  0.74467388  0.62383840  1
  V  V1  1  0.25373413  0.62031170  0.86408695  1
  V  V2  1  0.12420984  0.62443529  0.50275583  1
  V  V3  1  0.00016740  -0.00638023  0.49514273  1
  V  V4  1  0.37540021  0.75357230  0.12963164  1
  V  V5  1  0.32729878  0.18802765  0.18545602  1
  V  V6  1  0.62545387  0.12221771  0.50234757  1
  V  V7  1  0.87504622  -0.00439716  0.37342015  1
  V  V8  1  0.87602717  0.62853786  0.24498540  1
  V  V9  1  -0.00456889  0.87239915  0.88347823  1
  V  V10  1  0.86428328  0.87643821  0.50411924  1
  V  V11  1  0.75118360  0.37578893  0.12535969  1
  V  V12  1  0.62260420  0.37697572  0.25246650  1
  V  V13  1  0.50125834  0.25110328  0.24883015  1
  V  V14  1  0.62490416  0.49770434  0.12150850  1
  V  V15  1  0.37347040  0.37065493  0.49653209  1
  V  V16  1  0.01105883  0.37341435  0.86809085  1
  V  V17  1  0.87260705  0.25264907  0.62223950  1
  V  V18  1  0.62503877  0.25517758  0.85819580  1
  V  V19  1  0.37722349  0.37260212  0.00995161  1
  V  V20  1  0.37690810  0.62904223  0.25011187  1
  V  V21  1  0.87242770  0.12443126  0.25029788  1
  V  V22  1  0.74118900  0.37853365  0.63506921  1
  V  V23  1  0.86991304  0.49838513  0.85579241  1
  V  V24  1  0.13131529  0.61967068  -0.00147386  1
  V  V25  1  0.50401052  0.50014266  -0.00330659  1
  V  V26  1  0.12386432  0.87473868  0.75065188  1
  V  V27  1  0.11694497  0.75481957  0.37833569  1
  V  V28  1  0.50190114  0.12996933  0.62941280  1
  V  V29  1  0.87223344  0.50155579  0.37438094  1
  V  V30  1  0.12930376  -0.00293612  0.12631664  1
  V  V31  1  0.87770110  0.25054616  0.12432213  1
  V  V32  1  0.50388617  -0.00185461  0.50167710  1
  V  V33  1  0.00067456  0.37071530  0.37686851  1
  V  V34  1  0.25001015  0.74730044  0.00084039  1
  V  V35  1  0.12615777  0.74592513  0.87401420  1
  V  V36  1  0.37106268  0.88165040  -0.00708723  1
  V  V37  1  0.74880415  0.12169119  0.37176164  1
  V  V38  1  0.00802615  0.25129066  0.74619839  1
  V  V39  1  0.75090000  0.25040989  -0.00292993  1
  V  V40  1  0.37507503  0.49638822  0.87123635  1
  V  V41  1  0.50537938  0.37381214  0.86207774  1
  V  V42  1  0.12339866  0.88069209  0.25864928  1
  V  V43  1  0.25506032  0.24457769  -0.01557028  1
  V  V44  1  0.49440791  0.00472954  -0.00290119  1
  V  V45  1  0.12122831  -0.00321277  0.62500757  1
  V  V46  1  0.50474198  0.50340452  0.50363253  1
  V  V47  1  0.49578997  0.86950373  0.35796540  1
  V  V48  1  0.37981680  0.25141206  0.63167404  1
  V  V49  1  -0.01020871  0.62300154  0.62901704  1
  V  V50  1  0.62253934  0.25356684  0.37522034  1
  V  V51  1  0.62604483  0.12698481  0.00049436  1
  V  V52  1  0.63679113  0.00198200  0.13180223  1
  V  V53  1  -0.00851119  0.74745590  0.75042580  1
  V  V54  1  -0.00729240  -0.00019155  0.00289716  1
  V  V55  1  0.37064191  0.01465571  0.37073568  1
  V  V56  1  0.49606805  0.62768948  0.12426951  1
  V  V57  1  -0.00102303  0.12435945  0.62194236  1
  V  V58  1  -0.00032824  0.49677411  -0.00031289  1
  V  V59  1  0.13878775  0.24688090  0.38159102  1
  V  V60  1  0.87761683  0.37526747  -0.00156025  1
  V  V61  1  0.00085121  0.49988062  0.50072725  1
  V  V62  1  0.50075831  0.75521677  0.75430778  1
  V  V63  1  0.38449489  0.50078993  0.37665951  1
  V  V64  1  0.74607915  -0.00202442  0.73664387  1
  V  V65  1  0.62206166  0.50358203  0.64190085  1
  V  V66  1  -0.00029467  0.75260090  0.24559452  1
  V  V67  1  0.24964745  0.62512594  0.37625590  1
  V  V68  1  0.86510293  0.75200648  0.62667285  1
  V  V69  1  0.24834422  0.37371365  0.63519878  1
  V  V70  1  0.62446320  0.88080851  0.73765520  1
  V  V71  1  -0.00375288  0.12664672  0.12442865  1
  V  V72  1  0.65652927  0.66186483  0.01623169  1
  V  V73  1  0.86884232  -0.00548349  0.87774063  1
  V  V74  1  0.14398023  0.12444329  0.50104004  1
  V  V75  1  0.75075687  0.12508217  0.87603278  1
  V  V76  1  0.39048759  0.62104694  0.74793231  1
  V  V77  1  0.25046258  0.74804788  0.49948127  1
  V  V78  1  0.13001472  0.49781308  0.63867019  1
  V  V79  1  0.50064584  0.12622855  0.13225690  1
  V  V80  1  0.12708283  0.49792595  0.12620605  1
  V  V81  1  0.64347412  0.87319606  0.24680078  1
  V  V82  1  0.25141562  0.87222416  0.62818910  1
  V  V83  1  0.37730819  0.87691837  0.49579610  1
  V  V84  1  0.25080931  0.50019067  0.25095102  1
  Zn  Zn85  1  0.87037830  0.37583193  0.49983910  1
  Zn  Zn86  1  0.13165417  0.24482480  0.86484636  1
  Zn  Zn87  1  0.87588735  0.12323255  0.74920056  1
  Zn  Zn88  1  0.63196485  0.75790724  0.87722046  1
  Zn  Zn89  1  0.74296310  0.74945794  0.49989987  1
  Zn  Zn90  1  -0.00113828  0.62885754  0.12074633  1
  Zn  Zn91  1  0.25335033  0.37013090  0.12745366  1
  Zn  Zn92  1  0.74734357  0.63217279  0.37588935  1
  Zn  Zn93  1  0.13022554  0.12225745  -0.00742457  1
  Zn  Zn94  1  0.25388826  0.00809651  0.77397121  1
  Zn  Zn95  1  0.78489577  0.78135433  -0.00180210  1
  Zn  Zn96  1  0.24807885  0.87521738  0.12750551  1
  Zn  Zn97  1  0.74759404  0.25349538  0.49983011  1
  Zn  Zn98  1  0.37361792  0.12187350  0.76811290  1
  Zn  Zn99  1  0.25125393  0.00955430  0.25441363  1
  Zn  Zn100  1  0.62433741  0.74782260  0.37355838  1
  Zn  Zn101  1  -0.00006565  0.25182986  0.25429642  1
  Zn  Zn102  1  0.62589518  0.62742028  0.49943104  1
  Zn  Zn103  1  0.49847808  0.88420250  0.87319632  1
  Zn  Zn104  1  0.12636296  0.37468141  0.25376681  1
  Zn  Zn105  1  0.76215553  0.63352251  0.86677596  1
  Zn  Zn106  1  0.74916191  0.50421931  0.24949208  1
  Zn  Zn107  1  0.16710847  0.18788888  0.18853198  1
  Zn  Zn108  1  0.18981878  0.19256010  0.68095260  1
  Zn  Zn109  1  0.18467020  0.68774221  0.18777355  1
  Zn  Zn110  1  0.18662281  0.68574006  0.68747843  1
  Zn  Zn111  1  0.69028109  0.18722994  0.18714464  1
  Zn  Zn112  1  0.68995970  0.18428283  0.68477683  1
  Zn  Zn113  1  0.69517464  0.69373471  0.18771282  1
  Zn  Zn114  1  0.68388710  0.68311541  0.69083414  1
  Zn  Zn115  1  0.31238498  0.31906344  0.31812265  1
  Zn  Zn116  1  0.32209002  0.31371030  0.80965713  1
  Zn  Zn117  1  0.30645963  0.81512300  0.31114734  1
  Zn  Zn118  1  0.31342405  0.81191370  0.81259344  1
  Zn  Zn119  1  0.81072420  0.31153187  0.31315013  1
  Zn  Zn120  1  0.81974017  0.31281096  0.80977493  1
  Zn  Zn121  1  0.81549092  0.81197932  0.31460738  1
  Zn  Zn122  1  0.80673441  0.81513382  0.81242224  1
  Zn  Zn123  1  0.19014196  0.43638374  0.44178359  1
  Zn  Zn124  1  0.19278047  0.43238226  0.93661986  1
  Zn  Zn125  1  0.19234022  0.93971743  0.44018772  1
  Zn  Zn126  1  0.17875430  0.93060213  0.94452912  1
  Zn  Zn127  1  0.68990041  0.43527446  0.44024628  1
  Zn  Zn128  1  0.68911945  0.43694309  0.93433939  1
  Zn  Zn129  1  0.68657619  0.93742189  0.43279165  1
  Zn  Zn130  1  0.67833960  0.93660945  0.93351175  1
  Zn  Zn131  1  0.31303520  0.06298546  -0.05900724  1
  Zn  Zn132  1  0.30703641  0.06680628  0.62219034  1
  Zn  Zn133  1  0.31552053  0.56031277  0.06057261  1
  Zn  Zn134  1  0.31316499  0.55938324  0.56571597  1
  Zn  Zn135  1  0.81217589  -0.05437885  0.07286890  1
  Zn  Zn136  1  0.81332681  0.06715830  0.55783511  1
  Zn  Zn137  1  0.81448863  0.56620088  0.06147479  1
  Zn  Zn138  1  0.80647116  0.56095354  0.56327510  1
  Zn  Zn139  1  0.44067544  0.43875463  0.18998445  1
  Zn  Zn140  1  0.43923446  0.43868185  0.68470519  1
  Zn  Zn141  1  0.43192265  0.94504448  0.18249810  1
  Zn  Zn142  1  0.43839761  0.93995209  0.68412454  1
  Zn  Zn143  1  0.93971177  0.43896654  0.18983122  1
  Zn  Zn144  1  0.93989221  0.43134458  0.68327902  1
  Zn  Zn145  1  0.94538910  0.94158503  0.19953104  1
  Zn  Zn146  1  0.93334582  0.93571144  0.68989156  1
  Zn  Zn147  1  0.06159598  0.06832939  0.31597494  1
  Zn  Zn148  1  0.06521299  0.06282967  0.81353745  1
  Zn  Zn149  1  0.06100539  0.56474710  0.31382548  1
  Zn  Zn150  1  0.05835989  0.56200684  0.81265734  1
  Zn  Zn151  1  0.56023380  0.06030915  0.31403097  1
  Zn  Zn152  1  0.56455853  0.06529342  0.81200001  1
  Zn  Zn153  1  0.56358883  0.56572217  0.31046225  1
  Zn  Zn154  1  0.59405315  0.58191437  0.81557357  1
  Zn  Zn155  1  0.44091417  0.18983271  0.44027199  1
  Zn  Zn156  1  0.44355316  0.19439218  0.94041077  1
  Zn  Zn157  1  0.44353854  0.68795944  0.43664664  1
  Zn  Zn158  1  0.44088701  0.68844541  0.93794208  1
  Zn  Zn159  1  0.93956607  0.18549059  0.44018878  1
  Zn  Zn160  1  0.94064063  0.18493658  0.93441533  1
  Zn  Zn161  1  0.93320205  0.68775259  0.43803605  1
  Zn  Zn162  1  0.93866367  0.67708903  0.93255355  1
  Zn  Zn163  1  0.06878164  0.31333413  0.06089276  1
  Zn  Zn164  1  0.06709540  0.31226112  0.56005252  1
  Zn  Zn165  1  -0.05315910  0.81157086  0.07015109  1
  Zn  Zn166  1  0.05569659  0.81179678  0.56227014  1
  Zn  Zn167  1  0.56280756  0.31182824  0.06068473  1
  Zn  Zn168  1  0.55968297  0.31697846  0.55987903  1
  Zn  Zn169  1  0.55592948  0.82286949  0.07184181  1
  Zn  Zn170  1  0.56232376  0.81241990  0.56172907  1
  O  O171  1  0.11180188  0.11539920  0.12207263  1
  O  O172  1  0.11521189  0.11906412  0.61726443  1
  O  O173  1  0.12560288  0.61238908  0.11865880  1
  O  O174  1  0.11854532  0.61787153  0.62015390  1
  O  O175  1  0.61946246  0.11797294  0.12409957  1
  O  O176  1  0.61899884  0.13171086  0.60994885  1
  O  O177  1  0.61401216  0.61915822  0.11134563  1
  O  O178  1  0.62684342  0.60523936  0.62112533  1
  O  O179  1  0.37187423  0.38646956  0.38738867  1
  O  O180  1  0.38200613  0.38128147  0.88363562  1
  O  O181  1  0.38317197  0.87385680  0.37850690  1
  O  O182  1  0.37554322  0.87156827  0.88913072  1
  O  O183  1  0.88289231  0.38118899  0.37703653  1
  O  O184  1  0.88785883  0.38108053  0.87950641  1
  O  O185  1  0.87309311  0.89039481  0.38189413  1
  O  O186  1  0.88240821  0.88660584  0.86905076  1
  O  O187  1  0.26593560  -0.00091730  0.37518264  1
  O  O188  1  0.24396264  -0.00437626  0.88381786  1
  O  O189  1  0.25741654  0.50631830  0.36986053  1
  O  O190  1  0.26551182  0.50509137  0.87948801  1
  O  O191  1  0.75878448  0.01395968  0.37948516  1
  O  O192  1  0.75559826  0.00844391  0.86995069  1
  O  O193  1  0.76477990  0.49689167  0.37351105  1
  O  O194  1  0.77023667  0.48611358  0.87175779  1
  O  O195  1  0.24509040  0.50054199  0.13374705  1
  O  O196  1  0.24105912  0.49045504  0.62275398  1
  O  O197  1  0.23071263  1.00232947  0.12874014  1
  O  O198  1  0.23527140  0.97733310  0.61224221  1
  O  O199  1  0.74221710  0.49390014  0.12537391  1
  O  O200  1  0.73634812  0.48831360  0.62531668  1
  O  O201  1  0.73440320  1.01407785  0.12634390  1
  O  O202  1  0.75567967  1.00880662  0.63889265  1
  O  O203  1  0.00390658  0.37619392  0.26525017  1
  O  O204  1  -0.00189158  0.36440732  0.75606315  1
  O  O205  1  0.01469995  0.86765689  0.25718426  1
  O  O206  1  0.00597017  0.86801157  0.75815910  1
  O  O207  1  0.51366485  0.36780958  0.24589350  1
  O  O208  1  0.48971953  0.37319662  0.76394155  1
  O  O209  1  0.49733471  0.87988003  0.25781787  1
  O  O210  1  0.50260086  0.87300264  0.75085688  1
  O  O211  1  0.50475551  0.13180684  0.24011090  1
  O  O212  1  0.49971627  0.11594402  0.73136068  1
  O  O213  1  0.49197219  0.61859113  0.23352078  1
  O  O214  1  0.49403400  0.63566734  0.75687300  1
  O  O215  1  0.99412385  0.12987251  0.24295096  1
  O  O216  1  0.99804613  0.12833838  0.73588033  1
  O  O217  1  0.99574361  0.63375112  0.24915141  1
  O  O218  1  1.00526456  0.63638899  0.74138504  1
  O  O219  1  0.36416693  0.25960479  -0.00003581  1
  O  O220  1  0.38159652  0.26787465  0.50131433  1
  O  O221  1  0.36521995  0.75415319  0.00701501  1
  O  O222  1  0.37394060  0.75559409  0.50604807  1
  O  O223  1  0.87153718  0.25578207  0.00271560  1
  O  O224  1  0.87529251  0.25049726  0.51219731  1
  O  O225  1  0.88890976  0.73917053  0.00786789  1
  O  O226  1  0.87652153  0.76070177  0.50854936  1
  O  O227  1  0.12415867  0.23927535  0.49094865  1
  O  O228  1  0.14696779  0.25244957  1.00284064  1
  O  O229  1  0.12762082  0.74593260  0.49586894  1
  O  O230  1  0.14054508  0.73833320  0.99136436  1
  O  O231  1  0.62138034  0.24382906  0.48849245  1
  O  O232  1  0.63500090  0.24408534  0.99740652  1
  O  O233  1  0.62418887  0.74723531  0.49757771  1
  O  O234  1  0.61064919  0.75637353  0.99846080  1
  O  O235  1  0.50626379  0.24317824  0.13809111  1
  O  O236  1  0.49383060  0.24356325  0.61894636  1
  O  O237  1  0.48615302  0.74130590  0.11997380  1
  O  O238  1  0.48678152  0.75500213  0.63452532  1
  O  O239  1  0.99757893  0.24442849  0.12503811  1
  O  O240  1  0.99519519  0.24477718  0.62639669  1
  O  O241  1  1.01283934  0.74662951  0.14243275  1
  O  O242  1  0.99208642  0.74128961  0.63200190  1
  O  O243  1  0.00565767  0.25899082  0.37918017  1
  O  O244  1  -0.00285501  0.25762193  0.86303409  1
  O  O245  1  0.01326524  0.74402098  0.37076861  1
  O  O246  1  0.00354418  0.75361411  0.86705115  1
  O  O247  1  0.50936178  0.24319817  0.36008605  1
  O  O248  1  0.51511433  0.26241735  0.88216496  1
  O  O249  1  0.50131199  0.76646962  0.37406622  1
  O  O250  1  0.49326104  0.75647618  0.86147006  1
  O  O251  1  0.24000190  0.11406171  0.51808202  1
  O  O252  1  0.25135343  0.14282242  1.00368774  1
  O  O253  1  0.24521553  0.62970793  0.49718397  1
  O  O254  1  0.25076642  0.62768465  0.98869965  1
  O  O255  1  0.74162032  0.12990466  0.49232777  1
  O  O256  1  0.74463554  0.13130158  0.98413114  1
  O  O257  1  0.74810626  0.62776355  0.49535056  1
  O  O258  1  0.73960950  0.60354613  0.98365153  1
  O  O259  1  0.25972301  0.36505504  0.00481196  1
  O  O260  1  0.26885875  0.38608881  0.50940304  1
  O  O261  1  0.25330295  0.86361105  0.00608647  1
  O  O262  1  0.25888992  0.86519537  0.50398273  1
  O  O263  1  0.75779793  0.36999411  0.00564384  1
  O  O264  1  0.75254384  0.37138966  0.51195836  1
  O  O265  1  0.74946520  0.88692711  0.00168367  1
  O  O266  1  0.76128929  0.87792748  0.49984975  1
  O  O267  1  0.13319133  0.50129725  0.24473511  1
  O  O268  1  0.12033611  0.50173708  0.73751127  1
  O  O269  1  0.12495369  0.99832282  0.24709932  1
  O  O270  1  0.12348703  0.98588756  0.74462130  1
  O  O271  1  0.62549659  0.49171156  0.24259740  1
  O  O272  1  0.60373655  0.49361122  0.73806864  1
  O  O273  1  0.62030004  0.99415827  0.23851691  1
  O  O274  1  0.63865761  0.99792837  0.75157782  1
  O  O275  1  0.37216686  -0.00120549  0.26545572  1
  O  O276  1  0.36135269  0.01008975  0.72277153  1
  O  O277  1  0.36996429  0.50464446  0.25851587  1
  O  O278  1  0.38278038  0.50967756  0.75787180  1
  O  O279  1  0.88187228  0.01552634  0.26139864  1
  O  O280  1  0.86373151  0.00070645  0.75784819  1
  O  O281  1  0.87653980  0.50710009  0.25948878  1
  O  O282  1  0.88076632  0.49538979  0.75735801  1
  O  O283  1  0.11978054  0.36491717  0.38072973  1
  O  O284  1  0.11465271  0.36997300  0.87763324  1
  O  O285  1  0.13141430  0.86659103  0.37229282  1
  O  O286  1  0.11559705  0.86486768  0.86890178  1
  O  O287  1  0.63166298  0.36301815  0.36663625  1
  O  O288  1  0.61832170  0.36693420  0.87668870  1
  O  O289  1  0.61402603  0.88092587  0.35746276  1
  O  O290  1  0.61687609  0.87561267  0.85984100  1
  O  O291  1  0.38449294  0.12960679  0.12741270  1
  O  O292  1  0.38988165  0.14257265  0.60457955  1
  O  O293  1  0.37728243  0.63182769  0.13054781  1
  O  O294  1  0.36915424  0.63314041  0.63622049  1
  O  O295  1  0.88623365  0.13187133  0.13435362  1
  O  O296  1  0.88199684  0.13327286  0.62477311  1
  O  O297  1  0.88110601  0.61596542  0.14039341  1
  O  O298  1  0.88582847  0.62891897  0.62238604  1
  O  O299  1  0.25853893  0.24700525  0.13189544  1
  O  O300  1  0.25889085  0.26731041  0.62017022  1
  O  O301  1  0.25455842  0.74857607  0.11641314  1
  O  O302  1  0.25640094  0.75620059  0.62031360  1
  O  O303  1  0.75846986  0.25465857  0.11819584  1
  O  O304  1  0.75645344  0.25742182  0.62342546  1
  O  O305  1  0.72788984  0.71470386  0.08165624  1
  O  O306  1  0.76301675  0.74131189  0.62870059  1
  O  O307  1  0.23745522  0.25474383  0.37681689  1
  O  O308  1  0.25092426  0.25593555  0.88141445  1
  O  O309  1  0.24128657  0.74378535  0.38098669  1
  O  O310  1  0.24790995  0.74052815  0.88025785  1
  O  O311  1  0.74173666  0.24013611  0.37638339  1
  O  O312  1  0.74767094  0.24538810  0.87596667  1
  O  O313  1  0.74529045  0.75252365  0.37909572  1
  O  O314  1  0.75138288  0.74943053  0.88539411  1
  O  O315  1  -0.00126753  0.11684196  0.00873745  1
  O  O316  1  0.00310930  0.11487339  0.51035334  1
  O  O317  1  0.01248911  0.60913478  -0.00204009  1
  O  O318  1  0.00408020  0.61918404  0.50841770  1
  O  O319  1  0.50742652  0.12518415  0.01420172  1
  O  O320  1  0.50977658  0.11721886  0.50030300  1
  O  O321  1  0.48347886  0.61154472  0.01317978  1
  O  O322  1  0.49781634  0.60764682  0.49853739  1
  O  O323  1  0.48516903  0.38975520  0.50209158  1
  O  O324  1  0.49277348  0.38114443  0.99583204  1
  O  O325  1  0.49433923  0.88092402  0.49050621  1
  O  O326  1  0.48858497  0.88827290  1.00164767  1
  O  O327  1  0.99886895  0.38333444  0.49272557  1
  O  O328  1  0.99931006  0.38162983  0.99297752  1
  O  O329  1  0.99168159  0.88893625  0.50396169  1
  O  O330  1  1.00272404  0.88078074  0.98825285  1
  O  O331  1  0.48865931  0.50268355  0.38020283  1
  O  O332  1  0.49290276  0.49434188  0.88321426  1
  O  O333  1  0.48945172  0.99132431  0.38014382  1
  O  O334  1  0.50725900  1.00572455  0.89298188  1
  O  O335  1  0.99422396  0.49400001  0.38265919  1
  O  O336  1  0.99499614  0.49122969  0.87997565  1
  O  O337  1  0.98938975  1.00973890  0.38577894  1
  O  O338  1  0.99316471  0.99164728  0.88183206  1
  O  O339  1  0.00457791  0.00880797  0.11991086  1
  O  O340  1  0.00281296  0.00580676  0.62099136  1
  O  O341  1  0.01018545  0.49856448  0.11658051  1
  O  O342  1  0.00537762  0.50498209  0.61877778  1
  O  O343  1  0.50463651  0.01028331  0.11856666  1
  O  O344  1  0.49466240  0.00814891  0.60548511  1
  O  O345  1  0.50568086  0.50512417  0.11810379  1
  O  O346  1  0.51095900  0.49492258  0.61312779  1
  O  O347  1  0.24964644  0.38877013  0.24948258  1
  O  O348  1  0.25787698  0.37603822  0.73449175  1
  O  O349  1  0.23642662  0.87982690  0.24676366  1
  O  O350  1  0.24158054  0.87194945  0.74243941  1
  O  O351  1  0.73963123  0.37511618  0.24312289  1
  O  O352  1  0.75369069  0.36949671  0.73356001  1
  O  O353  1  0.74161289  0.88038585  0.25194290  1
  O  O354  1  0.74197434  0.89025946  0.75019327  1
  O  O355  1  0.26070688  0.13156030  0.23881119  1
  O  O356  1  0.25752417  0.11531795  0.72274807  1
  O  O357  1  0.25482105  0.61613394  0.25493438  1
  O  O358  1  0.25944482  0.63098013  0.76100936  1
  O  O359  1  0.76057731  0.13061092  0.25865534  1
  O  O360  1  0.75083473  0.11591963  0.75924875  1
  O  O361  1  0.76055071  0.62479400  0.25228250  1
  O  O362  1  0.69930180  0.61445355  0.77666267  1
  O  O363  1  0.37916235  0.11241496  0.38083030  1
  O  O364  1  0.38168675  0.12691174  0.87942842  1
  O  O365  1  0.37081100  0.62099030  0.36965827  1
  O  O366  1  0.37205440  0.61750130  0.86727062  1
  O  O367  1  0.86802435  0.12177020  0.37080126  1
  O  O368  1  0.86860774  0.11406620  0.87233029  1
  O  O369  1  0.87751587  0.61577394  0.36561460  1
  O  O370  1  0.87711030  0.60349556  0.87103257  1
  O  O371  1  0.13012862  0.38633417  0.12984412  1
  O  O372  1  0.14026962  0.38188759  0.61778549  1
  O  O373  1  0.12158060  0.89265933  0.13719433  1
  O  O374  1  0.12805123  0.87283966  0.63329475  1
  O  O375  1  0.63065255  0.37862049  0.13136314  1
  O  O376  1  0.63441346  0.38243402  0.62186733  1
  O  O377  1  0.62148953  0.89034999  0.13797688  1
  O  O378  1  0.61709675  0.87924695  0.63745742  1
  O  O379  1  0.12010055  0.25389806  0.26711191  1
  O  O380  1  0.11226823  0.24857806  0.74423616  1
  O  O381  1  0.12222494  0.75750501  0.25989230  1
  O  O382  1  0.11675026  0.75772583  0.75322853  1
  O  O383  1  0.62005073  0.25608924  0.25506047  1
  O  O384  1  0.62807756  0.24574293  0.75965720  1
  O  O385  1  0.62909463  0.76939201  0.24431569  1
  O  O386  1  0.61418898  0.76165408  0.74851057  1
  O  O387  1  0.38066124  0.25208057  0.25043078  1
  O  O388  1  0.37489141  0.24393324  0.73492637  1
  O  O389  1  0.36530007  0.74613695  0.23727036  1
  O  O390  1  0.38007142  0.74486465  0.74198803  1
  O  O391  1  0.87813405  0.24194845  0.24586697  1
  O  O392  1  0.88546256  0.24640433  0.73691486  1
  O  O393  1  0.88837447  0.74249004  0.25766072  1
  O  O394  1  0.88456857  0.75730557  0.74365097  1
  O  O395  1  0.38358253  0.49723461  0.49509378  1
  O  O396  1  0.38237253  0.49122112  0.99261243  1
  O  O397  1  0.38097880  0.98443228  0.48747892  1
  O  O398  1  0.38099525  0.99218112  1.00707185  1
  O  O399  1  0.88705628  0.50089636  0.49434457  1
  O  O400  1  0.88763382  0.49315664  0.99890535  1
  O  O401  1  0.88050090  0.99531010  0.49536276  1
  O  O402  1  0.88652154  1.00084525  0.99258883  1
  O  O403  1  0.11201811  -0.00080993  0.01342028  1
  O  O404  1  0.11646868  0.00413357  0.50305197  1
  O  O405  1  0.12299139  0.49959673  0.00623098  1
  O  O406  1  0.11415233  0.50481341  0.50412740  1
  O  O407  1  0.61646384  0.00824992  0.01349404  1
  O  O408  1  0.61607099  0.00927554  0.48961157  1
  O  O409  1  0.61124589  0.48988371  0.00446811  1
  O  O410  1  0.61089213  0.49627545  0.49839146  1
  O  O411  1  0.37488702  0.38178584  0.11397673  1
  O  O412  1  0.36988646  0.37175968  0.61730221  1
  O  O413  1  0.37112462  0.86827790  0.11711427  1
  O  O414  1  0.36734756  0.86654185  0.61541136  1
  O  O415  1  0.87288275  0.37011269  0.12035831  1
  O  O416  1  0.86528454  0.36915588  0.62143355  1
  O  O417  1  0.88339057  0.88189575  0.13051829  1
  O  O418  1  0.88012911  0.86439369  0.61663062  1
  O  O419  1  0.12505710  0.13767369  0.38472954  1
  O  O420  1  0.11611823  0.13333243  0.88063851  1
  O  O421  1  0.13068604  0.63104384  0.38312668  1
  O  O422  1  0.13467765  0.62558482  0.87667010  1
  O  O423  1  0.63143159  0.13112052  0.37852245  1
  O  O424  1  0.63173145  0.13445721  0.87902163  1
  O  O425  1  0.62637575  0.62881383  0.37593318  1
  O  O426  1  0.61219494  0.64084614  0.91500142  1
