# generated using pymatgen
data_V85Zn86O256
_symmetry_space_group_name_H-M   'P 1'
_cell_length_a   16.93340102
_cell_length_b   16.93707870
_cell_length_c   16.93381291
_cell_angle_alpha   90.06498548
_cell_angle_beta   89.97280019
_cell_angle_gamma   90.02469286
_symmetry_Int_Tables_number   1
_chemical_formula_structural   V85Zn86O256
_chemical_formula_sum   'V85 Zn86 O256'
_cell_volume   4856.65314203
_cell_formula_units_Z   1
loop_
 _symmetry_equiv_pos_site_id
 _symmetry_equiv_pos_as_xyz
  1  'x, y, z'
loop_
 _atom_site_type_symbol
 _atom_site_label
 _atom_site_symmetry_multiplicity
 _atom_site_fract_x
 _atom_site_fract_y
 _atom_site_fract_z
 _atom_site_occupancy
  V  V0  1  0.37092622  0.74947081  0.62550636  1
  V  V1  1  0.11670738  0.11404285  0.49405094  1
  V  V2  1  0.37559370  0.87318345  0.49741531  1
  V  V3  1  0.24835813  -0.00518819  0.75111264  1
  V  V4  1  0.24927199  -0.00349988  0.24768751  1
  V  V5  1  0.60462892  0.12325223  0.00396197  1
  V  V6  1  0.12310781  0.37838174  0.24566243  1
  V  V7  1  0.62826224  0.88341177  0.25726108  1
  V  V8  1  0.88312694  0.00249069  0.37803765  1
  V  V9  1  0.88813453  0.75147485  0.63002232  1
  V  V10  1  0.87346811  0.24810693  0.12576040  1
  V  V11  1  0.38832784  -0.00416222  0.87554325  1
  V  V12  1  0.63118971  0.50172551  0.62719992  1
  V  V13  1  -0.00165952  0.13397199  0.62536364  1
  V  V14  1  0.88088910  0.75478809  0.12859651  1
  V  V15  1  0.37494025  0.37459333  0.00058311  1
  V  V16  1  0.50234506  0.24551658  0.24828561  1
  V  V17  1  0.39085703  0.87657367  -0.00443653  1
  V  V18  1  0.10742702  0.87337364  0.75907581  1
  V  V19  1  0.88265634  0.62856218  0.75064170  1
  V  V20  1  0.75071690  0.87495220  0.62632816  1
  V  V21  1  0.74731195  0.62432541  0.87992386  1
  V  V22  1  0.24604455  0.50365940  0.24641285  1
  V  V23  1  0.62703478  0.36934959  0.24732377  1
  V  V24  1  0.12487568  0.24717477  0.37424862  1
  V  V25  1  0.37335726  0.12389104  0.74642747  1
  V  V26  1  0.88556718  0.63026152  0.25081783  1
  V  V27  1  0.49728212  0.62450236  0.62769024  1
  V  V28  1  0.38009772  0.12132082  0.24101354  1
  V  V29  1  -0.00074735  0.37932284  0.38809142  1
  V  V30  1  0.49623438  0.25263309  0.74820021  1
  V  V31  1  0.23188057  0.40783636  0.60544553  1
  V  V32  1  0.74657105  0.24814718  0.00141680  1
  V  V33  1  0.00604354  0.50054081  0.00943562  1
  V  V34  1  0.37513481  0.50093592  0.37274571  1
  V  V35  1  0.49583725  0.50220037  0.50178653  1
  V  V36  1  0.24499586  0.12743420  0.88086903  1
  V  V37  1  0.62295182  0.00124142  0.62359866  1
  V  V38  1  0.74923967  0.63242124  0.37305834  1
  V  V39  1  0.11596696  -0.00532517  0.62115391  1
  V  V40  1  0.24790234  0.62936961  0.37811511  1
  V  V41  1  0.62353187  0.51338429  0.12362473  1
  V  V42  1  0.00475066  0.12610649  0.11841187  1
  V  V43  1  0.11478630  0.74900391  0.37327418  1
  V  V44  1  0.00116298  0.24979311  0.24974145  1
  V  V45  1  0.49741317  0.37875734  0.87487217  1
  V  V46  1  0.01066726  0.60983379  0.61405304  1
  V  V47  1  0.87907402  0.49931215  0.38750427  1
  V  V48  1  0.87490688  0.37529786  -0.00013543  1
  V  V49  1  0.74989453  0.75255934  0.50411404  1
  V  V50  1  0.50122345  -0.00227652  0.49423836  1
  V  V51  1  0.74228592  0.11555790  0.37626436  1
  V  V52  1  0.10860494  0.74468837  0.87523978  1
  V  V53  1  0.24891862  0.37529612  0.12545511  1
  V  V54  1  0.23838602  0.50881160  0.76100627  1
  V  V55  1  0.62152546  0.87613187  0.75929218  1
  V  V56  1  0.50399392  0.74721835  0.25537549  1
  V  V57  1  0.38225341  0.74283154  0.12398213  1
  V  V58  1  0.87835244  0.13356275  0.75090654  1
  V  V59  1  0.37285685  0.36994985  0.49935586  1
  V  V60  1  0.00088543  -0.00393275  -0.00677187  1
  V  V61  1  0.74969922  0.00143931  0.75060763  1
  V  V62  1  0.68307349  0.29931031  0.43363090  1
  V  V63  1  0.88532204  0.88024438  0.50095211  1
  V  V64  1  0.37837839  -0.00629402  0.37107267  1
  V  V65  1  0.74953190  0.37562813  0.12461752  1
  V  V66  1  0.87702620  0.49882345  0.87387146  1
  V  V67  1  0.61874614  -0.00013948  0.11845949  1
  V  V68  1  0.50031869  0.37118134  0.37551605  1
  V  V69  1  0.63190638  0.37603555  0.74715645  1
  V  V70  1  0.62313751  0.74765581  0.88398247  1
  V  V71  1  0.25054847  0.23929143  0.50264773  1
  V  V72  1  0.25203632  0.87085618  0.11960021  1
  V  V73  1  0.12697592  0.00183680  0.11658298  1
  V  V74  1  0.25264065  0.74543382  -0.01366383  1
  V  V75  1  0.12481620  0.36064920  0.75152541  1
  V  V76  1  0.49916766  0.75342006  0.75429573  1
  V  V77  1  0.62336265  0.25092459  0.87580012  1
  V  V78  1  0.75244379  0.50213094  0.24855299  1
  V  V79  1  0.74978015  0.12199941  0.87904317  1
  V  V80  1  0.50360901  0.51338833  0.00550840  1
  V  V81  1  0.85945494  0.26096064  0.61380660  1
  V  V82  1  0.86996917  0.11733732  0.24855463  1
  V  V83  1  0.87420609  0.87359053  -0.00872925  1
  V  V84  1  0.37298937  0.51024982  0.87746542  1
  Zn  Zn85  1  0.74769872  0.74900931  0.00425982  1
  Zn  Zn86  1  -0.00308757  0.36693153  0.86733363  1
  Zn  Zn87  1  0.01222910  0.62913681  0.13131056  1
  Zn  Zn88  1  0.38256020  0.62159795  0.24456649  1
  Zn  Zn89  1  0.37885603  0.24568849  0.12193341  1
  Zn  Zn90  1  0.36858806  0.25350284  0.62582019  1
  Zn  Zn91  1  0.49740097  0.12642561  0.62047973  1
  Zn  Zn92  1  0.88011535  -0.00370511  0.87095762  1
  Zn  Zn93  1  0.36709122  0.62742962  0.75400992  1
  Zn  Zn94  1  0.11443457  0.86764711  0.24371659  1
  Zn  Zn95  1  0.62182256  0.63247290  0.50238378  1
  Zn  Zn96  1  0.62495745  0.12872008  0.49870635  1
  Zn  Zn97  1  0.75495118  0.49781477  0.74628619  1
  Zn  Zn98  1  0.24559563  0.74849184  0.50137011  1
  Zn  Zn99  1  0.24456615  0.87151362  0.62599707  1
  Zn  Zn100  1  0.24371201  0.24688923  0.00388566  1
  Zn  Zn101  1  0.13276768  0.61813730  0.00215832  1
  Zn  Zn102  1  0.61959207  0.75966049  0.38100622  1
  Zn  Zn103  1  0.24896797  0.12001723  0.37170601  1
  Zn  Zn104  1  0.10802875  0.23934879  0.88364282  1
  Zn  Zn105  1  0.75174886  0.88148126  0.12724887  1
  Zn  Zn106  1  -0.00030117  0.87631870  0.36946865  1
  Zn  Zn107  1  0.18956861  0.18665518  0.18484272  1
  Zn  Zn108  1  0.18673944  0.18073874  0.68499843  1
  Zn  Zn109  1  0.18662636  0.68699395  0.18728752  1
  Zn  Zn110  1  0.18233675  0.68801369  0.69268098  1
  Zn  Zn111  1  0.68541401  0.18152280  0.18806172  1
  Zn  Zn112  1  0.68760155  0.18758039  0.68675361  1
  Zn  Zn113  1  0.69321033  0.69509005  0.18950865  1
  Zn  Zn114  1  0.69062505  0.68622033  0.69357242  1
  Zn  Zn115  1  0.31199954  0.30849024  0.31215601  1
  Zn  Zn116  1  0.30695548  0.31701540  0.80927748  1
  Zn  Zn117  1  0.31259100  0.81183034  0.30924329  1
  Zn  Zn118  1  0.31275536  0.81572326  0.81216618  1
  Zn  Zn119  1  0.81982266  0.31322298  0.31161158  1
  Zn  Zn120  1  0.81432612  0.31005462  0.81159255  1
  Zn  Zn121  1  0.81331643  0.81552472  0.31177583  1
  Zn  Zn122  1  0.81138427  0.81075416  0.81313169  1
  Zn  Zn123  1  0.18910765  0.43486501  0.43310705  1
  Zn  Zn124  1  0.18515764  0.43001370  0.93573774  1
  Zn  Zn125  1  0.18847666  0.93038293  0.43544283  1
  Zn  Zn126  1  0.19186672  0.93567234  0.93610493  1
  Zn  Zn127  1  0.68780208  0.46161147  0.43939339  1
  Zn  Zn128  1  0.68677053  0.44024380  0.93765007  1
  Zn  Zn129  1  0.69299184  0.93929465  0.43650472  1
  Zn  Zn130  1  0.68675383  0.93777515  0.94234106  1
  Zn  Zn131  1  0.31898881  0.05782961  0.05930116  1
  Zn  Zn132  1  0.30769661  0.05785517  0.56289011  1
  Zn  Zn133  1  0.30978544  0.56229498  0.06256831  1
  Zn  Zn134  1  0.30074325  0.56106358  0.56095554  1
  Zn  Zn135  1  0.80844347  0.05630760  0.06412247  1
  Zn  Zn136  1  0.81173827  0.06718542  0.55995808  1
  Zn  Zn137  1  0.81595581  0.56583589  0.06376415  1
  Zn  Zn138  1  0.81504309  0.56823001  0.56439503  1
  Zn  Zn139  1  0.43900050  0.43600668  0.18614076  1
  Zn  Zn140  1  0.42853560  0.43794137  0.68720824  1
  Zn  Zn141  1  0.44332462  0.92978816  0.18578501  1
  Zn  Zn142  1  0.43818063  0.93611838  0.68575187  1
  Zn  Zn143  1  0.93642429  0.43944920  0.19206730  1
  Zn  Zn144  1  0.94035470  0.43602044  0.68417132  1
  Zn  Zn145  1  0.93832102  0.93674358  0.18428008  1
  Zn  Zn146  1  0.93596735  0.94398360  0.68595892  1
  Zn  Zn147  1  0.06112412  0.05741956  0.30429209  1
  Zn  Zn148  1  0.06195277  0.06346026  0.80884507  1
  Zn  Zn149  1  0.06452877  0.56278124  0.31865683  1
  Zn  Zn150  1  0.05801669  0.56340165  0.81412790  1
  Zn  Zn151  1  0.56097304  0.05827423  0.30916342  1
  Zn  Zn152  1  0.56331114  0.06701764  0.81081825  1
  Zn  Zn153  1  0.56468971  0.56466119  0.31012743  1
  Zn  Zn154  1  0.56006797  0.56449979  0.81287340  1
  Zn  Zn155  1  0.43864898  0.18155165  0.43049591  1
  Zn  Zn156  1  0.42851077  0.19068755  0.93114063  1
  Zn  Zn157  1  0.43546066  0.68749304  0.43595190  1
  Zn  Zn158  1  0.43968499  0.69018391  0.93899095  1
  Zn  Zn159  1  0.93648020  0.18922050  0.43850704  1
  Zn  Zn160  1  0.93687227  0.18741617  0.93779239  1
  Zn  Zn161  1  0.93659535  0.68725488  0.44212172  1
  Zn  Zn162  1  0.93535834  0.68522584  0.94265912  1
  Zn  Zn163  1  0.06365485  0.31303014  0.05849993  1
  Zn  Zn164  1  0.06422550  0.30703299  0.56385184  1
  Zn  Zn165  1  0.06222158  0.81245313  0.06012612  1
  Zn  Zn166  1  0.06565431  0.80830646  0.55907110  1
  Zn  Zn167  1  0.56020791  0.31561430  0.06455171  1
  Zn  Zn168  1  0.55677261  0.31733358  0.56983065  1
  Zn  Zn169  1  0.56368924  0.81231100  0.06933748  1
  Zn  Zn170  1  0.56020183  0.81577614  0.56601050  1
  O  O171  1  0.11655996  0.11587276  0.12774869  1
  O  O172  1  0.11667725  0.11577444  0.61767148  1
  O  O173  1  0.12418707  0.63026115  0.11593920  1
  O  O174  1  0.10890711  0.63002621  0.62948824  1
  O  O175  1  0.62572147  0.11522309  0.11493825  1
  O  O176  1  0.62323879  0.11250227  0.62363883  1
  O  O177  1  0.63345945  0.61184866  0.13398312  1
  O  O178  1  0.61475554  0.61994578  0.62869439  1
  O  O179  1  0.37725755  0.38395601  0.37887938  1
  O  O180  1  0.37763800  0.38252279  0.88230173  1
  O  O181  1  0.37168062  0.88499557  0.38156743  1
  O  O182  1  0.37234246  0.88414061  0.88233068  1
  O  O183  1  0.88709311  0.38614896  0.36924128  1
  O  O184  1  0.87303213  0.38240633  0.88031013  1
  O  O185  1  0.87266240  0.88502843  0.38352480  1
  O  O186  1  0.87143662  0.87694716  0.88584281  1
  O  O187  1  0.25610332  -0.00337392  0.36250083  1
  O  O188  1  0.25645605  0.00856403  0.86761328  1
  O  O189  1  0.25803390  0.50474412  0.36561407  1
  O  O190  1  0.25767553  0.49417378  0.86772115  1
  O  O191  1  0.76034775  0.01110642  0.37256862  1
  O  O192  1  0.74834318  0.00843421  0.86984845  1
  O  O193  1  0.75748120  0.51168511  0.36707741  1
  O  O194  1  0.75973983  0.50560606  0.87399701  1
  O  O195  1  0.25576776  0.48839960  0.13491660  1
  O  O196  1  0.27024852  0.50104681  0.65512444  1
  O  O197  1  0.24532275  0.99266794  0.12526692  1
  O  O198  1  0.23607544  0.99868064  0.63448252  1
  O  O199  1  0.74599305  0.49454190  0.12901877  1
  O  O200  1  0.73513235  0.50852824  0.62562796  1
  O  O201  1  0.73157392  0.99945887  0.12457494  1
  O  O202  1  0.74246460  0.99650057  0.62931728  1
  O  O203  1  0.00862971  0.37053558  0.25406180  1
  O  O204  1  0.02251252  0.38206352  0.74664593  1
  O  O205  1  0.00224591  0.88320709  0.25563466  1
  O  O206  1  0.00906610  0.88145683  0.75280141  1
  O  O207  1  0.51014449  0.37238015  0.25756037  1
  O  O208  1  0.50215755  0.36942807  0.75442622  1
  O  O209  1  0.51578003  0.86249577  0.24694486  1
  O  O210  1  0.50939138  0.86536762  0.74425356  1
  O  O211  1  0.49338311  0.13343484  0.25493440  1
  O  O212  1  0.49145383  0.13512735  0.74802198  1
  O  O213  1  0.50134390  0.63967104  0.25057273  1
  O  O214  1  0.49437942  0.63170986  0.74022488  1
  O  O215  1  0.99227967  0.12900312  0.23855956  1
  O  O216  1  0.98873175  0.11860605  0.74002222  1
  O  O217  1  0.98865944  0.61899462  0.25089770  1
  O  O218  1  0.98758231  0.62072027  0.74237229  1
  O  O219  1  0.37015535  0.26257212  0.00043057  1
  O  O220  1  0.36812839  0.24875045  0.49824610  1
  O  O221  1  0.36902058  0.75566688  0.00356868  1
  O  O222  1  0.37598471  0.75794704  0.50721611  1
  O  O223  1  0.86614084  0.25510294  0.00752083  1
  O  O224  1  0.87756435  0.24893380  0.51469457  1
  O  O225  1  0.87337125  0.75853236  0.00575057  1
  O  O226  1  0.86747651  0.75876029  0.50857912  1
  O  O227  1  0.13154476  0.23724213  0.49305166  1
  O  O228  1  0.13144797  0.25348872  0.99513012  1
  O  O229  1  0.13132667  0.75649177  0.48211007  1
  O  O230  1  0.13496452  0.75622880  0.98543490  1
  O  O231  1  0.61899397  0.24901442  0.49793438  1
  O  O232  1  0.62785695  0.24419286  0.99709592  1
  O  O233  1  0.63227603  0.75286649  0.50063200  1
  O  O234  1  0.62367412  0.75484256  0.98708476  1
  O  O235  1  0.49619732  0.25905187  0.14203478  1
  O  O236  1  0.49217639  0.24868464  0.63598678  1
  O  O237  1  0.49287817  0.75143551  0.13610986  1
  O  O238  1  0.49414374  0.74361002  0.63425527  1
  O  O239  1  0.99472262  0.24352122  0.12909913  1
  O  O240  1  0.99573809  0.23701649  0.62469285  1
  O  O241  1  0.98647112  0.74795583  0.11860130  1
  O  O242  1  0.98965864  0.74845544  0.62315164  1
  O  O243  1  0.00488534  0.25603119  0.36791605  1
  O  O244  1  -0.00488333  0.25243335  0.87117840  1
  O  O245  1  0.01174770  0.74709572  0.37679727  1
  O  O246  1  0.01024075  0.75194987  0.88142729  1
  O  O247  1  0.49539732  0.25849771  0.36268844  1
  O  O248  1  0.50232344  0.25619077  0.86410566  1
  O  O249  1  0.50089557  0.74885106  0.36202008  1
  O  O250  1  0.50679237  0.74321967  0.86179655  1
  O  O251  1  0.23908385  0.12377747  0.49474131  1
  O  O252  1  0.25907269  0.12403579  0.98366641  1
  O  O253  1  0.25897379  0.63018730  0.48214838  1
  O  O254  1  0.25148660  0.64090077  1.00087232  1
  O  O255  1  0.74597584  0.12441727  0.48218133  1
  O  O256  1  0.74547468  0.12852087  0.98995600  1
  O  O257  1  0.74997752  0.63952149  0.49526905  1
  O  O258  1  0.75697835  0.62682451  0.98437932  1
  O  O259  1  0.25740138  0.37801976  0.00966663  1
  O  O260  1  0.25533506  0.35538799  0.49998109  1
  O  O261  1  0.25833183  0.86561403  0.00471149  1
  O  O262  1  0.26402512  0.87494104  0.50556279  1
  O  O263  1  0.75503499  0.36945831  0.00448531  1
  O  O264  1  0.73458425  0.36501022  0.48643812  1
  O  O265  1  0.75939839  0.87280103  0.00285600  1
  O  O266  1  0.75635688  0.86741063  0.50621570  1
  O  O267  1  0.13703679  0.49218188  0.25651696  1
  O  O268  1  0.13655355  0.49529443  0.75903714  1
  O  O269  1  0.13499235  0.99733409  0.23595997  1
  O  O270  1  0.12875108  0.98891185  0.74572906  1
  O  O271  1  0.63114115  0.48894947  0.24613853  1
  O  O272  1  0.62398814  0.49273577  0.74440304  1
  O  O273  1  0.62316930  0.98833705  0.24278029  1
  O  O274  1  0.62827979  0.99455018  0.74453880  1
  O  O275  1  0.37299620  0.00041861  0.25316464  1
  O  O276  1  0.36748310  0.00401839  0.75264357  1
  O  O277  1  0.36872130  0.49857060  0.25663924  1
  O  O278  1  0.37106295  0.50112249  0.76588702  1
  O  O279  1  0.87562480  0.01305103  0.25480386  1
  O  O280  1  0.86563949  0.01033531  0.75049111  1
  O  O281  1  0.86816921  0.50950446  0.25638306  1
  O  O282  1  0.87416226  0.50431863  0.75780807  1
  O  O283  1  0.12137948  0.37053401  0.36496358  1
  O  O284  1  0.12594615  0.36724128  0.86056030  1
  O  O285  1  0.12282517  0.86378898  0.37011200  1
  O  O286  1  0.12630946  0.87037802  0.86380172  1
  O  O287  1  0.62623879  0.36989519  0.37244768  1
  O  O288  1  0.61705674  0.37037348  0.86896183  1
  O  O289  1  0.62793247  0.87859392  0.36248061  1
  O  O290  1  0.62995999  0.86842739  0.86403112  1
  O  O291  1  0.37239017  0.12401122  0.13645591  1
  O  O292  1  0.37387526  0.12220185  0.63704248  1
  O  O293  1  0.37002552  0.63901182  0.12587167  1
  O  O294  1  0.37905894  0.63571763  0.62537751  1
  O  O295  1  0.87778408  0.12834887  0.13180606  1
  O  O296  1  0.88105726  0.12875336  0.63061498  1
  O  O297  1  0.87788672  0.63271890  0.13572730  1
  O  O298  1  0.88073704  0.63384654  0.63259171  1
  O  O299  1  0.25550125  0.26245499  0.12693922  1
  O  O300  1  0.24997724  0.24114320  0.60959619  1
  O  O301  1  0.25818606  0.75959187  0.11837877  1
  O  O302  1  0.25733298  0.74971140  0.62550170  1
  O  O303  1  0.75291806  0.25410582  0.12071755  1
  O  O304  1  0.75940187  0.24565862  0.62142797  1
  O  O305  1  0.76365309  0.75248957  0.12119149  1
  O  O306  1  0.75615096  0.75493073  0.62037859  1
  O  O307  1  0.24324463  0.24353777  0.38239631  1
  O  O308  1  0.25543788  0.23233918  0.87218062  1
  O  O309  1  0.24944402  0.74233604  0.37509431  1
  O  O310  1  0.24648337  0.75347281  0.88409986  1
  O  O311  1  0.74909958  0.24379625  0.37655811  1
  O  O312  1  0.74230791  0.24259324  0.87998820  1
  O  O313  1  0.74889957  0.74654211  0.38498805  1
  O  O314  1  0.73981995  0.74209060  0.87538151  1
  O  O315  1  -0.00952981  0.11715668  0.01415729  1
  O  O316  1  0.01113872  0.12609266  0.50551233  1
  O  O317  1  -0.00227125  0.60748431  0.00109224  1
  O  O318  1  -0.00388056  0.62499772  0.51473814  1
  O  O319  1  0.50622405  0.13361271  -0.00577588  1
  O  O320  1  0.50289259  0.11278380  0.50016135  1
  O  O321  1  0.49806608  0.61274980  0.00029168  1
  O  O322  1  0.49891235  0.62296892  0.51205317  1
  O  O323  1  0.49220086  0.38034510  0.49505157  1
  O  O324  1  0.49147061  0.38044919  0.99406745  1
  O  O325  1  0.48738652  0.88541215  0.50616922  1
  O  O326  1  0.48975214  0.86730115  0.99975255  1
  O  O327  1  1.01209804  0.37230572  0.48679041  1
  O  O328  1  0.99003456  0.38491504  1.00022137  1
  O  O329  1  0.98762939  0.87209213  0.49624338  1
  O  O330  1  0.99000866  0.88619014  1.00518333  1
  O  O331  1  0.49449718  0.49498862  0.37937949  1
  O  O332  1  0.49355403  0.49627849  0.88284218  1
  O  O333  1  0.49242212  0.99969920  0.38328197  1
  O  O334  1  0.48741100  1.00278840  0.86528498  1
  O  O335  1  0.99226629  0.49224589  0.37375890  1
  O  O336  1  0.98779699  0.49526238  0.88248042  1
  O  O337  1  0.98643301  1.00440421  0.37511144  1
  O  O338  1  1.00028355  1.00964204  0.88969554  1
  O  O339  1  0.00890590  0.00751984  0.11678270  1
  O  O340  1  0.01098984  0.00840381  0.62584498  1
  O  O341  1  -0.00534140  0.49977437  0.11190702  1
  O  O342  1  -0.00029394  0.51019734  0.62222531  1
  O  O343  1  0.51715956  -0.00201924  0.13045453  1
  O  O344  1  0.50734550  0.00161623  0.61754353  1
  O  O345  1  0.51046751  0.49542570  0.11776922  1
  O  O346  1  0.50123336  0.50832890  0.62282394  1
  O  O347  1  0.24425216  0.38053598  0.24581054  1
  O  O348  1  0.23847486  0.38507779  0.74184230  1
  O  O349  1  0.25407801  0.88499285  0.23682715  1
  O  O350  1  0.24461063  0.88603357  0.74862612  1
  O  O351  1  0.74437485  0.37874887  0.24646270  1
  O  O352  1  0.73476314  0.37611680  0.75599570  1
  O  O353  1  0.73220425  0.86745818  0.24714233  1
  O  O354  1  0.74289921  0.88095234  0.74461087  1
  O  O355  1  0.25719386  0.11108181  0.24802048  1
  O  O356  1  0.25543619  0.11386635  0.75483927  1
  O  O357  1  0.25616990  0.61645457  0.25766488  1
  O  O358  1  0.24783360  0.61331788  0.75583642  1
  O  O359  1  0.75891353  0.13389104  0.26383436  1
  O  O360  1  0.75153761  0.12099257  0.76128021  1
  O  O361  1  0.75836591  0.62368440  0.25890955  1
  O  O362  1  0.76217857  0.62152381  0.75977287  1
  O  O363  1  0.37189165  0.10945114  0.36316045  1
  O  O364  1  0.36756216  0.11732090  0.86244377  1
  O  O365  1  0.37264257  0.61260943  0.37049485  1
  O  O366  1  0.37715337  0.61351128  0.87689032  1
  O  O367  1  0.86825624  0.12107944  0.36937683  1
  O  O368  1  0.86483838  0.12242076  0.86796852  1
  O  O369  1  0.86716219  0.62299500  0.37045963  1
  O  O370  1  0.87184882  0.61872939  0.86864110  1
  O  O371  1  0.13177677  0.37245541  0.13833149  1
  O  O372  1  0.13633864  0.36718176  0.63232967  1
  O  O373  1  0.13626383  0.87969195  0.12384339  1
  O  O374  1  0.12265696  0.87794765  0.63628430  1
  O  O375  1  0.63182364  0.38122809  0.13291394  1
  O  O376  1  0.61741234  0.38814754  0.63576373  1
  O  O377  1  0.62819615  0.88427058  0.13140065  1
  O  O378  1  0.62948459  0.88509829  0.63413501  1
  O  O379  1  0.12150711  0.25554916  0.25535007  1
  O  O380  1  0.13268125  0.25851219  0.75113438  1
  O  O381  1  0.13550303  0.75315981  0.26683108  1
  O  O382  1  0.12750771  0.76290643  0.76466479  1
  O  O383  1  0.62010212  0.26118646  0.24623130  1
  O  O384  1  0.61579073  0.25656746  0.75272010  1
  O  O385  1  0.61696474  0.75717970  0.25299888  1
  O  O386  1  0.61825944  0.75806651  0.75555111  1
  O  O387  1  0.38146096  0.23808542  0.25033943  1
  O  O388  1  0.37859932  0.24323313  0.74907294  1
  O  O389  1  0.38756033  0.75210603  0.24201226  1
  O  O390  1  0.38125801  0.74950791  0.74469083  1
  O  O391  1  0.88250408  0.24147753  0.24424880  1
  O  O392  1  0.86682669  0.23686688  0.74038277  1
  O  O393  1  0.87164669  0.74172382  0.24375723  1
  O  O394  1  0.87074340  0.74264004  0.74136537  1
  O  O395  1  0.37788364  0.49395469  0.49160764  1
  O  O396  1  0.38066159  0.49241081  0.99668396  1
  O  O397  1  0.38005791  0.99518422  0.49238635  1
  O  O398  1  0.37542718  0.98938427  0.98858816  1
  O  O399  1  0.86473225  0.50198704  0.48636279  1
  O  O400  1  0.88004577  0.49392072  0.99380101  1
  O  O401  1  0.86880419  0.99176076  0.49224416  1
  O  O402  1  0.88253841  0.99199625  0.99882763  1
  O  O403  1  0.11983457  -0.00644376  0.00909287  1
  O  O404  1  0.12969319  0.00289629  0.50737326  1
  O  O405  1  0.10930262  0.49710067  -0.00782139  1
  O  O406  1  0.19719923  0.48311676  0.53519191  1
  O  O407  1  0.62074037  0.00805984  0.00808804  1
  O  O408  1  0.61788151  -0.00304562  0.50671302  1
  O  O409  1  0.61587680  0.49493714  0.01082560  1
  O  O410  1  0.61365056  0.50786092  0.51058669  1
  O  O411  1  0.36829327  0.37394123  0.11680786  1
  O  O412  1  0.35741736  0.37581442  0.61438855  1
  O  O413  1  0.37012685  0.86760609  0.11593157  1
  O  O414  1  0.37348925  0.86346546  0.61983733  1
  O  O415  1  0.86851586  0.36905599  0.12195405  1
  O  O416  1  0.87416337  0.35918413  0.63332172  1
  O  O417  1  0.87172820  0.87051700  0.11668361  1
  O  O418  1  0.87089893  0.87109915  0.62044516  1
  O  O419  1  0.12351435  0.12511947  0.37907232  1
  O  O420  1  0.14158484  0.12356628  0.86713454  1
  O  O421  1  0.13412810  0.63614450  0.37229748  1
  O  O422  1  0.11942722  0.64052713  0.87879249  1
  O  O423  1  0.63857339  0.11966645  0.37257381  1
  O  O424  1  0.62982849  0.13146584  0.88215715  1
  O  O425  1  0.63928086  0.62585174  0.37849747  1
  O  O426  1  0.63450466  0.63455801  0.86657657  1
