# generated using pymatgen
data_V85Zn86O256
_symmetry_space_group_name_H-M   'P 1'
_cell_length_a   16.90950484
_cell_length_b   16.91384202
_cell_length_c   16.90470010
_cell_angle_alpha   89.99618687
_cell_angle_beta   89.95484309
_cell_angle_gamma   89.96254371
_symmetry_Int_Tables_number   1
_chemical_formula_structural   V85Zn86O256
_chemical_formula_sum   'V85 Zn86 O256'
_cell_volume   4834.82102506
_cell_formula_units_Z   1
loop_
 _symmetry_equiv_pos_site_id
 _symmetry_equiv_pos_as_xyz
  1  'x, y, z'
loop_
 _atom_site_type_symbol
 _atom_site_label
 _atom_site_symmetry_multiplicity
 _atom_site_fract_x
 _atom_site_fract_y
 _atom_site_fract_z
 _atom_site_occupancy
  V  V0  1  0.37406017  0.62452024  0.24806512  1
  V  V1  1  0.37599627  0.24886987  0.13744610  1
  V  V2  1  0.87445279  0.12390825  0.75545061  1
  V  V3  1  0.62656307  0.74634652  0.37241009  1
  V  V4  1  0.49597388  -0.00035914  0.00301415  1
  V  V5  1  0.62516410  0.62234119  -0.00086649  1
  V  V6  1  0.49150780  0.87429425  0.87796565  1
  V  V7  1  0.37461981  0.49968410  0.37393515  1
  V  V8  1  0.49413547  0.25215497  0.74592661  1
  V  V9  1  0.62649439  0.87665817  0.75107477  1
  V  V10  1  0.75789598  0.00470131  0.24849509  1
  V  V11  1  0.11806548  0.51351099  0.12527197  1
  V  V12  1  0.87491011  0.62330310  0.74701871  1
  V  V13  1  -0.00191267  0.87410567  0.37873157  1
  V  V14  1  0.25580260  0.49878362  0.75724080  1
  V  V15  1  0.75092290  0.75041174  -0.00250755  1
  V  V16  1  0.62368461  0.50295113  0.62484646  1
  V  V17  1  0.74955585  0.26327738  0.00532607  1
  V  V18  1  0.87307435  0.49906190  0.36427625  1
  V  V19  1  -0.00275978  0.25368765  0.75671585  1
  V  V20  1  0.37201342  0.37565108  -0.00695031  1
  V  V21  1  -0.00177941  0.12718806  0.62350539  1
  V  V22  1  0.62736164  0.00163777  0.62557019  1
  V  V23  1  0.25015870  0.86964659  0.61950478  1
  V  V24  1  0.12756632  0.49789503  0.62375672  1
  V  V25  1  0.49955306  0.50017183  0.50162057  1
  V  V26  1  0.37892222  0.62258859  0.75356623  1
  V  V27  1  0.12827875  0.75707311  0.38204999  1
  V  V28  1  0.49930625  0.62206740  0.12272022  1
  V  V29  1  0.86976486  0.76321379  0.61799312  1
  V  V30  1  0.75331738  -0.00233996  0.75276018  1
  V  V31  1  0.12415888  0.12072584  0.00827896  1
  V  V32  1  0.25837328  0.36852798  0.62654808  1
  V  V33  1  0.50030706  0.74825234  0.73863968  1
  V  V34  1  0.75262200  0.87540049  0.12327289  1
  V  V35  1  0.87466995  0.23981432  0.13160616  1
  V  V36  1  0.89551078  0.37209438  0.00172457  1
  V  V37  1  -0.00011855  0.62526715  0.62125212  1
  V  V38  1  0.75855182  0.12988389  0.37211505  1
  V  V39  1  0.49920774  0.74989405  0.24603889  1
  V  V40  1  0.37499441  0.75905710  0.11655841  1
  V  V41  1  0.37108731  0.12683287  0.75449565  1
  V  V42  1  0.75222381  0.62208428  0.87258681  1
  V  V43  1  0.64113796  0.37797897  0.24585819  1
  V  V44  1  0.75330551  0.49409467  0.74346660  1
  V  V45  1  0.62920814  0.37140762  0.74315444  1
  V  V46  1  0.24579506  0.62217313  0.88152935  1
  V  V47  1  0.87074546  0.37722949  0.50857309  1
  V  V48  1  0.49710607  0.37346625  0.36148425  1
  V  V49  1  0.26105847  0.12151208  0.36725163  1
  V  V50  1  0.25766918  -0.01055300  0.25319099  1
  V  V51  1  0.49504486  0.49851732  -0.00619265  1
  V  V52  1  0.37466842  0.74347171  0.61907183  1
  V  V53  1  0.62255467  0.25183604  0.87568714  1
  V  V54  1  0.75108820  0.12134697  0.87952184  1
  V  V55  1  0.12445658  -0.00135068  0.62291297  1
  V  V56  1  0.24492297  0.75689369  -0.00191759  1
  V  V57  1  0.12663834  0.24221335  0.87659641  1
  V  V58  1  -0.00737692  0.00401725  0.01208755  1
  V  V59  1  0.87863699  0.74328716  0.12421938  1
  V  V60  1  0.25444476  0.24572942  0.50331764  1
  V  V61  1  0.49308493  0.12768059  0.62515851  1
  V  V62  1  0.25313543  0.24139161  -0.00290529  1
  V  V63  1  0.62047365  0.24996095  0.36811582  1
  V  V64  1  0.62363680  0.74982768  0.87351066  1
  V  V65  1  0.12250792  0.37456599  0.75737539  1
  V  V66  1  0.62440329  0.87563763  0.24862611  1
  V  V67  1  0.00720463  0.51863849  -0.00545933  1
  V  V68  1  0.36663117  -0.00049062  0.88215091  1
  V  V69  1  0.25009929  0.00108464  0.75216360  1
  V  V70  1  0.63819369  0.49686831  0.12542182  1
  V  V71  1  0.62422740  0.13021549  0.49961496  1
  V  V72  1  0.24899086  0.62775206  0.38301295  1
  V  V73  1  -0.00434313  0.88701164  0.87272286  1
  V  V74  1  0.87325279  -0.00526966  0.38470189  1
  V  V75  1  0.00238662  0.75123941  0.75042336  1
  V  V76  1  0.24723327  0.49939707  0.24854724  1
  V  V77  1  0.62792572  0.62395683  0.50001197  1
  V  V78  1  0.00058450  0.23331774  0.24843627  1
  V  V79  1  0.49604245  0.12817523  0.13824252  1
  V  V80  1  0.62280649  0.12772138  0.00270862  1
  V  V81  1  0.49625544  0.00179730  0.49195368  1
  V  V82  1  0.37721253  0.87493046  0.49775197  1
  V  V83  1  0.00868432  0.74903702  0.24355287  1
  V  V84  1  0.11872439  0.37381879  0.24829537  1
  Zn  Zn85  1  0.12486732  0.24771590  0.37714651  1
  Zn  Zn86  1  0.62393885  0.00375940  0.12630769  1
  Zn  Zn87  1  0.00013360  0.37377447  0.37633975  1
  Zn  Zn88  1  0.75776923  0.76522208  0.49666744  1
  Zn  Zn89  1  0.87089559  0.88017146  -0.00742625  1
  Zn  Zn90  1  0.24614559  0.87809718  0.12460609  1
  Zn  Zn91  1  0.87489625  0.62175998  0.24386259  1
  Zn  Zn92  1  0.86572077  0.25478828  0.62919302  1
  Zn  Zn93  1  0.24786410  0.37438244  0.12336977  1
  Zn  Zn94  1  0.37876465  0.37129429  0.50302713  1
  Zn  Zn95  1  0.00171520  0.49754375  0.49746880  1
  Zn  Zn96  1  0.12774108  0.87312442  0.75232738  1
  Zn  Zn97  1  0.11936089  -0.00412136  0.13932775  1
  Zn  Zn98  1  0.49500301  0.87946892  0.36993868  1
  Zn  Zn99  1  0.12514162  0.12677769  0.49942363  1
  Zn  Zn100  1  0.13101143  0.62794721  0.50307736  1
  Zn  Zn101  1  0.88308070  0.49063397  0.87189341  1
  Zn  Zn102  1  0.75129259  0.62145987  0.36652342  1
  Zn  Zn103  1  0.11838628  0.74630509  0.88240004  1
  Zn  Zn104  1  -0.00658844  -0.00430950  0.50402694  1
  Zn  Zn105  1  0.74752040  0.25597305  0.50478835  1
  Zn  Zn106  1  0.49553172  0.37965983  0.87042600  1
  Zn  Zn107  1  0.18917268  0.18382057  0.18835389  1
  Zn  Zn108  1  0.18693203  0.18622734  0.68721791  1
  Zn  Zn109  1  0.18888215  0.69090059  0.18959426  1
  Zn  Zn110  1  0.18957215  0.68577568  0.68928160  1
  Zn  Zn111  1  0.68720220  0.19066311  0.18763668  1
  Zn  Zn112  1  0.68668179  0.18713526  0.68708024  1
  Zn  Zn113  1  0.69214494  0.68310419  0.18687228  1
  Zn  Zn114  1  0.68807962  0.68543046  0.68406808  1
  Zn  Zn115  1  0.30649077  0.31330670  0.31569597  1
  Zn  Zn116  1  0.31037786  0.31013855  0.81529651  1
  Zn  Zn117  1  0.31382510  0.80983582  0.31371352  1
  Zn  Zn118  1  0.31196660  0.81204207  0.81144505  1
  Zn  Zn119  1  0.81654721  0.31338965  0.31586992  1
  Zn  Zn120  1  0.81237409  0.31221215  0.81872972  1
  Zn  Zn121  1  0.81428927  0.81120923  0.30993551  1
  Zn  Zn122  1  0.81553054  0.81213626  0.80878506  1
  Zn  Zn123  1  0.18791950  0.43349207  0.43724225  1
  Zn  Zn124  1  0.18450186  0.43431652  0.93920121  1
  Zn  Zn125  1  0.18779063  0.93968642  0.43606295  1
  Zn  Zn126  1  0.18030937  0.93370788  0.94007751  1
  Zn  Zn127  1  0.69104358  0.43654593  0.43393156  1
  Zn  Zn128  1  0.68549746  0.43835007  0.93220365  1
  Zn  Zn129  1  0.68811067  0.93864577  0.43525506  1
  Zn  Zn130  1  0.68233137  0.93993842  0.93788494  1
  Zn  Zn131  1  0.31089759  0.06465678  0.06742226  1
  Zn  Zn132  1  0.31290439  0.06187565  0.56262207  1
  Zn  Zn133  1  0.30985015  0.56276276  0.06287201  1
  Zn  Zn134  1  0.31564557  0.55943309  0.56633076  1
  Zn  Zn135  1  0.81308912  0.06379139  0.06184291  1
  Zn  Zn136  1  0.80892950  0.06930035  0.56440016  1
  Zn  Zn137  1  0.81808167  0.56019356  0.05881397  1
  Zn  Zn138  1  0.81186227  0.56293116  0.55777695  1
  Zn  Zn139  1  0.43804489  0.43631329  0.18125086  1
  Zn  Zn140  1  0.43909908  0.44026944  0.68729530  1
  Zn  Zn141  1  0.43092601  0.94242486  0.19059599  1
  Zn  Zn142  1  0.43774126  0.93693802  0.68590864  1
  Zn  Zn143  1  0.93913618  0.43155348  0.18188559  1
  Zn  Zn144  1  0.94105640  0.43687105  0.68628662  1
  Zn  Zn145  1  0.93659560  0.93041183  0.19302097  1
  Zn  Zn146  1  0.93631567  0.93921080  0.68951180  1
  Zn  Zn147  1  0.07067811  0.05957500  0.31927478  1
  Zn  Zn148  1  0.06566511  0.06458553  0.81252659  1
  Zn  Zn149  1  0.05821263  0.56617405  0.31372058  1
  Zn  Zn150  1  0.06479902  0.56294802  0.81167125  1
  Zn  Zn151  1  0.56720092  0.06228938  0.31182548  1
  Zn  Zn152  1  0.55999131  0.06379765  0.81542114  1
  Zn  Zn153  1  0.56416759  0.55946755  0.31013534  1
  Zn  Zn154  1  0.56272916  0.56258907  0.81136551  1
  Zn  Zn155  1  0.43533930  0.19275993  0.43696534  1
  Zn  Zn156  1  0.43611991  0.18589632  0.93650197  1
  Zn  Zn157  1  0.44360012  0.68638049  0.43680181  1
  Zn  Zn158  1  0.43341574  0.68629915  0.93526979  1
  Zn  Zn159  1  0.93699201  0.19058477  0.43715198  1
  Zn  Zn160  1  0.93772535  0.18586642  0.93840813  1
  Zn  Zn161  1  0.93962003  0.68558882  0.43670423  1
  Zn  Zn162  1  0.93353146  0.69092503  0.93411958  1
  Zn  Zn163  1  0.06469376  0.30841899  0.06944848  1
  Zn  Zn164  1  0.06228061  0.31240569  0.56400380  1
  Zn  Zn165  1  0.06575105  0.81806419  0.06222439  1
  Zn  Zn166  1  0.06153814  0.81306748  0.55943804  1
  Zn  Zn167  1  0.55866558  0.31427943  0.06649213  1
  Zn  Zn168  1  0.56270862  0.31527467  0.56084917  1
  Zn  Zn169  1  0.56285585  0.81414324  0.06131477  1
  Zn  Zn170  1  0.59266770  0.83128146  0.54644418  1
  O  O171  1  0.12685229  0.12113962  0.11207357  1
  O  O172  1  0.11481496  0.11675208  0.62677541  1
  O  O173  1  0.12591385  0.61214113  0.13057292  1
  O  O174  1  0.12077004  0.61661895  0.62541094  1
  O  O175  1  0.61548649  0.12766766  0.11904626  1
  O  O176  1  0.61121626  0.11941521  0.62358214  1
  O  O177  1  0.61954799  0.61840356  0.11746377  1
  O  O178  1  0.62578311  0.61282356  0.61720835  1
  O  O179  1  0.38167762  0.38112629  0.37571997  1
  O  O180  1  0.37645514  0.37176948  0.88762043  1
  O  O181  1  0.37799113  0.86380728  0.39315320  1
  O  O182  1  0.38506092  0.88232081  0.87111572  1
  O  O183  1  0.87837967  0.38512834  0.38257101  1
  O  O184  1  0.87054452  0.37489758  0.89630005  1
  O  O185  1  0.88014565  0.88328538  0.37416549  1
  O  O186  1  0.89034987  0.87139300  0.87414853  1
  O  O187  1  0.24960357  0.01140189  0.36916566  1
  O  O188  1  0.25669703  -0.00972146  0.86720304  1
  O  O189  1  0.25525045  0.50492180  0.36848347  1
  O  O190  1  0.24402429  0.50500981  0.86554659  1
  O  O191  1  0.75404311  0.00539263  0.36859048  1
  O  O192  1  0.74302192  0.01326213  0.86950865  1
  O  O193  1  0.76782224  0.50060237  0.37691693  1
  O  O194  1  0.75078605  0.50632545  0.86287289  1
  O  O195  1  0.23704728  0.49860183  0.12930349  1
  O  O196  1  0.24431605  0.49449408  0.63663950  1
  O  O197  1  0.25451590  0.99925356  0.14011608  1
  O  O198  1  0.24382693  0.99293495  0.63205821  1
  O  O199  1  0.73752988  0.50211647  0.11521815  1
  O  O200  1  0.74349143  0.50444452  0.63682042  1
  O  O201  1  0.74955318  0.99397531  0.13053065  1
  O  O202  1  0.73498704  1.00995136  0.63611153  1
  O  O203  1  0.00676026  0.36608824  0.25069059  1
  O  O204  1  0.00933910  0.36621060  0.74734418  1
  O  O205  1  -0.00342785  0.86104509  0.26337959  1
  O  O206  1  0.00060772  0.87007031  0.75788002  1
  O  O207  1  0.50593388  0.38050682  0.25893267  1
  O  O208  1  0.50517402  0.36764335  0.75002124  1
  O  O209  1  0.50727615  0.87155595  0.24720265  1
  O  O210  1  0.50385686  0.86918116  0.75955080  1
  O  O211  1  0.50388710  0.12037681  0.23755355  1
  O  O212  1  0.49332263  0.13124629  0.74486986  1
  O  O213  1  0.49530658  0.62854665  0.24219112  1
  O  O214  1  0.49257084  0.63537685  0.75650349  1
  O  O215  1  1.00508117  0.13479804  0.25251059  1
  O  O216  1  0.99166364  0.12918173  0.74577393  1
  O  O217  1  0.99372319  0.64453230  0.25394321  1
  O  O218  1  0.99605106  0.63120812  0.74126181  1
  O  O219  1  0.36750032  0.25393265  0.00209896  1
  O  O220  1  0.36165167  0.25427520  0.50175896  1
  O  O221  1  0.36477426  0.74530757  0.00733304  1
  O  O222  1  0.38664295  0.75312629  0.51399518  1
  O  O223  1  0.87209207  0.25693361  0.00707583  1
  O  O224  1  0.87426753  0.26499632  0.49989615  1
  O  O225  1  0.86844777  0.75632564  0.00495076  1
  O  O226  1  0.87415303  0.74760703  0.51282614  1
  O  O227  1  0.13695070  0.24996126  0.50086517  1
  O  O228  1  0.12958512  0.24317000  0.99575632  1
  O  O229  1  0.12407293  0.74652669  0.48773262  1
  O  O230  1  0.14005858  0.74726192  1.00082051  1
  O  O231  1  0.62455190  0.24791159  0.48747530  1
  O  O232  1  0.63081965  0.24835661  0.99828825  1
  O  O233  1  0.60864175  0.73440546  0.48576722  1
  O  O234  1  0.63004239  0.74381179  0.99322236  1
  O  O235  1  0.48573256  0.24262912  0.12066712  1
  O  O236  1  0.50367301  0.24339039  0.63605771  1
  O  O237  1  0.49356168  0.74412389  0.12539310  1
  O  O238  1  0.49547288  0.75577545  0.63713993  1
  O  O239  1  0.98915345  0.25028387  0.13686078  1
  O  O240  1  0.99846777  0.24194666  0.63837898  1
  O  O241  1  0.99455086  0.75906594  0.13537566  1
  O  O242  1  0.99246372  0.74435233  0.62925330  1
  O  O243  1  0.00055925  0.25076618  0.36068640  1
  O  O244  1  0.00664335  0.24562259  0.86406798  1
  O  O245  1  0.00710015  0.75517697  0.36955924  1
  O  O246  1  -0.00008751  0.75695899  0.86605162  1
  O  O247  1  0.50814101  0.26001873  0.37748769  1
  O  O248  1  0.50540564  0.24945771  0.86313151  1
  O  O249  1  0.50974317  0.75083776  0.36302149  1
  O  O250  1  0.50408182  0.75819379  0.87030897  1
  O  O251  1  0.24929365  0.13105889  0.49820772  1
  O  O252  1  0.24247064  0.13354680  1.00082090  1
  O  O253  1  0.25334509  0.61869810  0.48703206  1
  O  O254  1  0.25656881  0.63226778  0.98785990  1
  O  O255  1  0.73941389  0.12508549  0.48873526  1
  O  O256  1  0.74441801  0.13213260  0.99486800  1
  O  O257  1  0.73678528  0.63033764  0.49629502  1
  O  O258  1  0.74703302  0.62824935  0.99068358  1
  O  O259  1  0.25517961  0.36470258  0.00200010  1
  O  O260  1  0.25124828  0.36808623  0.51049857  1
  O  O261  1  0.25297718  0.86010917  -0.00349827  1
  O  O262  1  0.25980548  0.88141169  0.51203988  1
  O  O263  1  0.75009569  0.36465767  -0.00346634  1
  O  O264  1  0.76540255  0.37518496  0.49665206  1
  O  O265  1  0.74816952  0.87215907  0.00561459  1
  O  O266  1  0.70211440  0.86251537  0.51341794  1
  O  O267  1  0.12364933  0.49538815  0.24075503  1
  O  O268  1  0.13155499  0.49191860  0.74357834  1
  O  O269  1  0.14690776  1.01070568  0.25082792  1
  O  O270  1  0.13298584  0.99887306  0.74153342  1
  O  O271  1  0.62380958  0.48773786  0.24087725  1
  O  O272  1  0.62984708  0.49389129  0.74266275  1
  O  O273  1  0.63532039  0.99052049  0.24768617  1
  O  O274  1  0.63062841  0.99643494  0.74845607  1
  O  O275  1  0.36004651  0.00243419  0.25562240  1
  O  O276  1  0.36918262  0.00426316  0.75813157  1
  O  O277  1  0.36939621  0.50479567  0.25130627  1
  O  O278  1  0.36766223  0.50803936  0.74792662  1
  O  O279  1  0.86222348  -0.00507830  0.25885874  1
  O  O280  1  0.86122400  0.00691794  0.74726206  1
  O  O281  1  0.88374284  0.49819087  0.26031180  1
  O  O282  1  0.86901633  0.50163067  0.75143456  1
  O  O283  1  0.12403593  0.37236098  0.36187064  1
  O  O284  1  0.12957522  0.36416318  0.86342163  1
  O  O285  1  0.11807897  0.86714467  0.37801009  1
  O  O286  1  0.11062944  0.86867273  0.87187300  1
  O  O287  1  0.62031440  0.37217843  0.36365469  1
  O  O288  1  0.62095968  0.36972860  0.86173515  1
  O  O289  1  0.62119372  0.86809885  0.35977641  1
  O  O290  1  0.61373643  0.87277820  0.86716156  1
  O  O291  1  0.38183227  0.14021130  0.12127910  1
  O  O292  1  0.38629334  0.11776222  0.63770556  1
  O  O293  1  0.38011641  0.63101861  0.13045548  1
  O  O294  1  0.37002372  0.63317095  0.63758700  1
  O  O295  1  0.87514325  0.14086438  0.12075358  1
  O  O296  1  0.88235582  0.12468261  0.63788277  1
  O  O297  1  0.87472175  0.63965668  0.11940292  1
  O  O298  1  0.88366984  0.62692588  0.62955886  1
  O  O299  1  0.26059809  0.24972986  0.11776910  1
  O  O300  1  0.24644595  0.25831369  0.62066758  1
  O  O301  1  0.25725782  0.74748583  0.11344102  1
  O  O302  1  0.26036931  0.75827235  0.63063861  1
  O  O303  1  0.76231575  0.24814019  0.11866140  1
  O  O304  1  0.75295954  0.24028725  0.61800265  1
  O  O305  1  0.75569466  0.75786618  0.11674916  1
  O  O306  1  0.76729313  0.74647370  0.62771913  1
  O  O307  1  0.24835944  0.24129317  0.38389778  1
  O  O308  1  0.24017869  0.25036037  0.88448682  1
  O  O309  1  0.24015479  0.74015728  0.36804812  1
  O  O310  1  0.24944420  0.74484289  0.88441386  1
  O  O311  1  0.74304795  0.24358269  0.37557350  1
  O  O312  1  0.74312853  0.24002007  0.88333453  1
  O  O313  1  0.73692917  0.75182510  0.37657468  1
  O  O314  1  0.74475468  0.74420675  0.87689084  1
  O  O315  1  0.00518947  0.11028574  -0.00528333  1
  O  O316  1  -0.00175951  0.12454896  0.51341419  1
  O  O317  1  -0.00037531  0.61698741  -0.00316721  1
  O  O318  1  0.00460498  0.62236651  0.51274005  1
  O  O319  1  0.50350116  0.11578573  0.00397927  1
  O  O320  1  0.50140120  0.12206338  0.50785799  1
  O  O321  1  0.50372283  0.61868523  0.00253431  1
  O  O322  1  0.51086308  0.60778356  0.49171619  1
  O  O323  1  0.50136261  0.38506374  0.48923405  1
  O  O324  1  0.49229919  0.38156136  0.99741752  1
  O  O325  1  0.49687619  0.88599523  0.50012494  1
  O  O326  1  0.50505012  0.88908721  0.99297707  1
  O  O327  1  0.99057417  0.37641745  0.49882043  1
  O  O328  1  0.99638989  0.37341871  0.99891157  1
  O  O329  1  1.00026680  0.87718175  0.48602501  1
  O  O330  1  0.99822363  0.88755043  0.98910861  1
  O  O331  1  0.49401907  0.49294341  0.37875646  1
  O  O332  1  0.50428799  0.49982927  0.88871657  1
  O  O333  1  0.50588745  1.00044202  0.38798584  1
  O  O334  1  0.49149914  0.99398941  0.88167353  1
  O  O335  1  0.99069407  0.49801087  0.37865900  1
  O  O336  1  1.00360879  0.50210848  0.88920306  1
  O  O337  1  0.99035870  0.99362935  0.37514145  1
  O  O338  1  1.00174693  0.98973417  0.87606490  1
  O  O339  1  -0.00291544  -0.00452534  0.11511270  1
  O  O340  1  0.00655916  0.00643767  0.62641494  1
  O  O341  1  0.01069525  0.49852799  0.11366626  1
  O  O342  1  0.01065197  0.50859478  0.62656250  1
  O  O343  1  0.49706993  0.00707728  0.11764153  1
  O  O344  1  0.50835267  0.00816923  0.62178435  1
  O  O345  1  0.50801362  0.50453438  0.11401579  1
  O  O346  1  0.51031507  0.49557664  0.61499088  1
  O  O347  1  0.24086544  0.38286893  0.24772168  1
  O  O348  1  0.24559855  0.38035134  0.74642124  1
  O  O349  1  0.25407592  0.88544995  0.25242885  1
  O  O350  1  0.25122479  0.88396550  0.73988058  1
  O  O351  1  0.73958262  0.37537360  0.25211723  1
  O  O352  1  0.74216106  0.38181534  0.75489628  1
  O  O353  1  0.74352619  0.87977392  0.24147626  1
  O  O354  1  0.74061562  0.88573399  0.75919465  1
  O  O355  1  0.25451358  0.12680547  0.26376085  1
  O  O356  1  0.25780703  0.11179592  0.74425463  1
  O  O357  1  0.25560329  0.61880401  0.25796413  1
  O  O358  1  0.25719162  0.61628675  0.75631695  1
  O  O359  1  0.74185527  0.11572594  0.25870506  1
  O  O360  1  0.75455963  0.11941790  0.75975952  1
  O  O361  1  0.76090559  0.62881000  0.25259567  1
  O  O362  1  0.75452329  0.61755137  0.75416621  1
  O  O363  1  0.36025804  0.12677452  0.38220889  1
  O  O364  1  0.37850045  0.11406613  0.86285966  1
  O  O365  1  0.37039416  0.62117240  0.36790504  1
  O  O366  1  0.36383898  0.63005241  0.86110214  1
  O  O367  1  0.86297990  0.11943612  0.37759658  1
  O  O368  1  0.86630261  0.12898775  0.86471993  1
  O  O369  1  0.87524034  0.60993916  0.37836079  1
  O  O370  1  0.86840943  0.62114992  0.86595615  1
  O  O371  1  0.12649093  0.38174600  0.13501032  1
  O  O372  1  0.13312548  0.38046989  0.63694500  1
  O  O373  1  0.13276492  0.88390020  0.11983491  1
  O  O374  1  0.13268782  0.87995741  0.62649510  1
  O  O375  1  0.62169472  0.38038783  0.13814273  1
  O  O376  1  0.62275041  0.38405962  0.63574610  1
  O  O377  1  0.63495685  0.87480134  0.13273910  1
  O  O378  1  0.61323725  0.88827354  0.64537164  1
  O  O379  1  0.11445204  0.25503974  0.24605065  1
  O  O380  1  0.11978411  0.25356387  0.75778796  1
  O  O381  1  0.11379233  0.74733439  0.25778357  1
  O  O382  1  0.11100874  0.75153440  0.74610025  1
  O  O383  1  0.62676762  0.26344268  0.25803857  1
  O  O384  1  0.61783481  0.25646310  0.75344453  1
  O  O385  1  0.61982578  0.75558355  0.25170693  1
  O  O386  1  0.62008962  0.75679719  0.75291613  1
  O  O387  1  0.37189965  0.25835393  0.23568675  1
  O  O388  1  0.38149377  0.24037615  0.75500992  1
  O  O389  1  0.38058182  0.74342066  0.24157239  1
  O  O390  1  0.38189307  0.74452872  0.74250768  1
  O  O391  1  0.88278097  0.25389305  0.23906989  1
  O  O392  1  0.88101838  0.24464637  0.75173581  1
  O  O393  1  0.88480688  0.75171660  0.23945106  1
  O  O394  1  0.88506382  0.74452012  0.74043309  1
  O  O395  1  0.38388598  0.49734914  0.49495810  1
  O  O396  1  0.38248491  0.48943505  1.00805678  1
  O  O397  1  0.38628118  0.98886899  0.51038756  1
  O  O398  1  0.37918415  1.00662991  0.98963161  1
  O  O399  1  0.87785002  0.49031067  0.49512955  1
  O  O400  1  0.89302376  0.49032057  1.00130888  1
  O  O401  1  0.87083216  1.00344033  0.48926413  1
  O  O402  1  0.88768928  1.00012970  0.99961234  1
  O  O403  1  0.11268321  0.00736276  -0.00194860  1
  O  O404  1  0.12309376  0.00172142  0.51402598  1
  O  O405  1  0.11478710  0.49739738  0.00971059  1
  O  O406  1  0.12691768  0.49857214  0.51419907  1
  O  O407  1  0.61505754  0.00870419  0.00365661  1
  O  O408  1  0.61665681  0.01014689  0.50962256  1
  O  O409  1  0.61841599  0.50311012  0.00482933  1
  O  O410  1  0.62288200  0.50234498  0.50579124  1
  O  O411  1  0.37454416  0.36310461  0.11408295  1
  O  O412  1  0.36197861  0.37993858  0.62600994  1
  O  O413  1  0.37255734  0.86173419  0.12724401  1
  O  O414  1  0.37005526  0.86629223  0.61921775  1
  O  O415  1  0.87633771  0.36576984  0.10834490  1
  O  O416  1  0.87734393  0.37558749  0.61310656  1
  O  O417  1  0.86328001  0.86825195  0.12265215  1
  O  O418  1  0.87751583  0.86201157  0.62698590  1
  O  O419  1  0.13799310  0.12857463  0.38251718  1
  O  O420  1  0.12255896  0.13580412  0.88383201  1
  O  O421  1  0.13353731  0.63069234  0.37766438  1
  O  O422  1  0.14039424  0.63049198  0.86509445  1
  O  O423  1  0.63045101  0.13488956  0.37747244  1
  O  O424  1  0.62979058  0.13223325  0.88148285  1
  O  O425  1  0.62729982  0.62982267  0.37833984  1
  O  O426  1  0.63198035  0.62988111  0.87898583  1
