# generated using pymatgen
data_V85Zn86O256
_symmetry_space_group_name_H-M   'P 1'
_cell_length_a   16.91838791
_cell_length_b   16.91912832
_cell_length_c   16.91132970
_cell_angle_alpha   90.02775149
_cell_angle_beta   90.05676554
_cell_angle_gamma   90.01966546
_symmetry_Int_Tables_number   1
_chemical_formula_structural   V85Zn86O256
_chemical_formula_sum   'V85 Zn86 O256'
_cell_volume   4840.76978780
_cell_formula_units_Z   1
loop_
 _symmetry_equiv_pos_site_id
 _symmetry_equiv_pos_as_xyz
  1  'x, y, z'
loop_
 _atom_site_type_symbol
 _atom_site_label
 _atom_site_symmetry_multiplicity
 _atom_site_fract_x
 _atom_site_fract_y
 _atom_site_fract_z
 _atom_site_occupancy
  V  V0  1  0.49814730  0.74846871  0.25271010  1
  V  V1  1  0.62395685  0.25456817  0.37714471  1
  V  V2  1  0.62410375  0.87599148  0.25098289  1
  V  V3  1  0.00285825  0.74698214  0.25337333  1
  V  V4  1  0.74986207  0.87532194  0.12514955  1
  V  V5  1  0.49953749  0.25448432  0.25444998  1
  V  V6  1  0.24653462  0.25331731  0.49340157  1
  V  V7  1  0.37359919  0.62353779  0.74803956  1
  V  V8  1  0.12971354  0.89296015  0.74307325  1
  V  V9  1  0.87423127  -0.00299043  0.37485223  1
  V  V10  1  0.75045154  0.74802048  -0.00217079  1
  V  V11  1  0.25371125  0.62128522  0.87125267  1
  V  V12  1  0.00209473  0.87593915  0.87436757  1
  V  V13  1  0.87736257  0.37037863  -0.00759230  1
  V  V14  1  0.49806729  0.47865412  -0.00236111  1
  V  V15  1  0.84887344  0.66178933  0.73204528  1
  V  V16  1  0.49939151  0.88563669  0.88232832  1
  V  V17  1  0.12949800  0.50053792  0.12619294  1
  V  V18  1  0.75364744  0.12955243  0.37622631  1
  V  V19  1  0.62480057  0.87649252  0.74478841  1
  V  V20  1  0.63811087  0.75125054  0.38186927  1
  V  V21  1  0.23992960  0.00731238  0.25182932  1
  V  V22  1  0.37648610  0.25044168  0.12193548  1
  V  V23  1  0.49619198  0.62516539  0.61881883  1
  V  V24  1  0.37561118  0.48614060  0.87467823  1
  V  V25  1  0.38778802  0.38002738  0.50033512  1
  V  V26  1  0.01201424  0.12421837  0.62362609  1
  V  V27  1  0.13134455  0.38013459  0.75185319  1
  V  V28  1  0.75401643  0.38279410  0.13229819  1
  V  V29  1  0.13087999  0.50201952  0.62685853  1
  V  V30  1  0.00618396  -0.00202045  0.50455431  1
  V  V31  1  0.37035868  0.12709481  0.25694547  1
  V  V32  1  0.61826016  0.11718891  0.00395267  1
  V  V33  1  0.36834480  0.62032599  0.24912759  1
  V  V34  1  0.00893922  0.74959991  0.74603388  1
  V  V35  1  0.87621443  0.12729176  0.74699255  1
  V  V36  1  0.62286957  0.74979726  0.87524763  1
  V  V37  1  0.13032212  0.75068611  0.87356666  1
  V  V38  1  0.49924339  0.12602342  0.62653563  1
  V  V39  1  0.49632374  0.25082846  0.75288069  1
  V  V40  1  -0.00008720  0.62326360  0.12224101  1
  V  V41  1  0.00131275  0.49540553  -0.00846501  1
  V  V42  1  0.38829183  0.49886413  0.37605277  1
  V  V43  1  0.62027820  0.25273553  0.87880502  1
  V  V44  1  0.24728780  0.88171567  0.12745195  1
  V  V45  1  0.86872987  0.61127258  0.25064666  1
  V  V46  1  0.25352578  0.75339588  0.00192201  1
  V  V47  1  0.62712686  -0.00157560  0.62341561  1
  V  V48  1  -0.00798908  0.37835043  0.37183532  1
  V  V49  1  0.49903075  0.62469533  0.11943031  1
  V  V50  1  0.63129615  0.12845981  0.49870648  1
  V  V51  1  0.12938402  0.37754905  0.25274832  1
  V  V52  1  0.12190092  0.63324947  0.49517873  1
  V  V53  1  0.25523647  0.88731556  0.62517158  1
  V  V54  1  0.75347250  0.60934817  0.37915957  1
  V  V55  1  -0.00510185  0.50089241  0.49438539  1
  V  V56  1  0.24612980  0.62352073  0.37365600  1
  V  V57  1  0.25784471  0.74808583  0.50584561  1
  V  V58  1  0.75473870  0.49198277  0.74985913  1
  V  V59  1  0.36637814  -0.00190946  0.37642269  1
  V  V60  1  -0.00307800  0.62686507  0.62641189  1
  V  V61  1  0.49236163  0.75178408  0.74670878  1
  V  V62  1  0.49791089  0.00001343  0.49710115  1
  V  V63  1  0.00041345  0.86807971  0.37968665  1
  V  V64  1  0.74896028  0.36847621  0.61675339  1
  V  V65  1  0.25702198  0.37950110  0.12711689  1
  V  V66  1  0.75149211  0.00025392  0.74390022  1
  V  V67  1  -0.00475600  0.25032124  0.24580601  1
  V  V68  1  0.75435005  0.24758819  0.01238838  1
  V  V69  1  0.11909393  0.25736853  0.87686778  1
  V  V70  1  -0.00708886  0.12808229  0.12351749  1
  V  V71  1  0.87675127  0.87348978  -0.00300936  1
  V  V72  1  0.00447873  -0.00202661  0.00644731  1
  V  V73  1  -0.00274209  0.26061988  0.75094446  1
  V  V74  1  0.12438492  0.87215645  0.25191107  1
  V  V75  1  0.86175171  0.86344033  0.51471636  1
  V  V76  1  0.87599880  0.74876641  0.12519678  1
  V  V77  1  0.74866744  0.61964912  0.87532240  1
  V  V78  1  0.61993472  0.49944543  0.61840591  1
  V  V79  1  0.12672213  0.12360657  0.00537616  1
  V  V80  1  0.61974712  0.37497077  0.75348227  1
  V  V81  1  0.87351943  0.24798758  0.61083325  1
  V  V82  1  0.25227624  0.25385731  -0.00056877  1
  V  V83  1  0.36193873  0.00447295  0.87687815  1
  V  V84  1  0.75113890  0.12583272  0.87617785  1
  Zn  Zn85  1  0.49839057  0.87291904  0.37689710  1
  Zn  Zn86  1  0.61336803  -0.00854940  0.11881655  1
  Zn  Zn87  1  0.37233117  0.75130428  0.12804661  1
  Zn  Zn88  1  0.24197699  0.12537780  0.86389521  1
  Zn  Zn89  1  0.49359731  0.11574650  0.12485552  1
  Zn  Zn90  1  0.37245182  0.25277989  0.62374704  1
  Zn  Zn91  1  0.62305359  0.62125447  0.00040452  1
  Zn  Zn92  1  0.62638274  0.62691284  0.50056824  1
  Zn  Zn93  1  0.62490497  0.38040967  0.25495503  1
  Zn  Zn94  1  0.12545573  0.62390571  -0.00166620  1
  Zn  Zn95  1  0.12909380  0.23988489  0.37000652  1
  Zn  Zn96  1  0.87715162  0.00003449  0.87382741  1
  Zn  Zn97  1  0.36506886  0.11823795  0.74454512  1
  Zn  Zn98  1  0.88079199  0.49848643  0.86822999  1
  Zn  Zn99  1  0.86963090  0.37759336  0.49262401  1
  Zn  Zn100  1  0.37840706  0.86962222  0.50455045  1
  Zn  Zn101  1  0.25240276  0.38023223  0.62302458  1
  Zn  Zn102  1  0.74845052  0.00165169  0.24873357  1
  Zn  Zn103  1  0.38263165  0.88469467  0.01024440  1
  Zn  Zn104  1  0.13880396  0.11361583  0.49402530  1
  Zn  Zn105  1  0.62695344  0.50153445  0.12999534  1
  Zn  Zn106  1  0.87264625  0.12559105  0.24548958  1
  Zn  Zn107  1  0.18426697  0.18944412  0.18603056  1
  Zn  Zn108  1  0.19080804  0.19459717  0.68279410  1
  Zn  Zn109  1  0.18669104  0.68814287  0.18740891  1
  Zn  Zn110  1  0.19111151  0.68862377  0.68410880  1
  Zn  Zn111  1  0.68687689  0.18712054  0.19059270  1
  Zn  Zn112  1  0.68679560  0.18857042  0.68698225  1
  Zn  Zn113  1  0.68661530  0.68569286  0.18961598  1
  Zn  Zn114  1  0.67915193  0.68641160  0.69059531  1
  Zn  Zn115  1  0.31414482  0.31860683  0.31368752  1
  Zn  Zn116  1  0.30751677  0.30752073  0.81009466  1
  Zn  Zn117  1  0.30998817  0.80949735  0.31867760  1
  Zn  Zn118  1  0.31405687  0.81733605  0.80972262  1
  Zn  Zn119  1  0.81365467  0.30850339  0.31282960  1
  Zn  Zn120  1  0.81025411  0.31029244  0.81265979  1
  Zn  Zn121  1  0.81586256  0.81140985  0.31258843  1
  Zn  Zn122  1  0.80898874  0.81297000  0.80400061  1
  Zn  Zn123  1  0.18981286  0.44143305  0.43737361  1
  Zn  Zn124  1  0.19079946  0.43605713  0.93905947  1
  Zn  Zn125  1  0.18609646  0.93169108  0.43623970  1
  Zn  Zn126  1  0.18632815  0.93739565  0.93895623  1
  Zn  Zn127  1  0.68346858  0.43889346  0.43868638  1
  Zn  Zn128  1  0.68607928  0.43544245  0.94177569  1
  Zn  Zn129  1  0.68965771  0.93891302  0.43766468  1
  Zn  Zn130  1  0.68933434  0.93759134  0.93279529  1
  Zn  Zn131  1  0.31312283  0.06318503  0.06243087  1
  Zn  Zn132  1  0.31241510  0.06663306  0.56102012  1
  Zn  Zn133  1  0.31528958  0.56201360  0.05684840  1
  Zn  Zn134  1  0.31337530  0.56143110  0.55985436  1
  Zn  Zn135  1  0.81240694  0.05744518  0.06101363  1
  Zn  Zn136  1  0.81793599  0.05842153  0.55969530  1
  Zn  Zn137  1  0.81681503  0.55876187  0.06008085  1
  Zn  Zn138  1  0.81031730  0.56073574  0.56210686  1
  Zn  Zn139  1  0.44033266  0.43956635  0.18957691  1
  Zn  Zn140  1  0.43718347  0.43928823  0.68901987  1
  Zn  Zn141  1  0.43513270  0.93904652  0.18991731  1
  Zn  Zn142  1  0.43530089  0.93986158  0.69025339  1
  Zn  Zn143  1  0.93858629  0.43327804  0.17873319  1
  Zn  Zn144  1  0.93855759  0.43718266  0.68073489  1
  Zn  Zn145  1  0.93876574  0.93859101  0.18762083  1
  Zn  Zn146  1  0.93977540  0.93834408  0.68652527  1
  Zn  Zn147  1  0.06101346  0.06094712  0.31459012  1
  Zn  Zn148  1  0.06048889  0.06862921  0.81701842  1
  Zn  Zn149  1  0.06243825  0.56088736  0.31123121  1
  Zn  Zn150  1  0.06397699  0.56518378  0.81003227  1
  Zn  Zn151  1  0.55888790  0.06458044  0.31131006  1
  Zn  Zn152  1  0.56164984  0.06437967  0.81357286  1
  Zn  Zn153  1  0.56505942  0.56370649  0.30956616  1
  Zn  Zn154  1  0.55944146  0.55911731  0.81229420  1
  Zn  Zn155  1  0.43540796  0.18911059  0.43733101  1
  Zn  Zn156  1  0.43602429  0.18768460  0.93726356  1
  Zn  Zn157  1  0.43683067  0.68706446  0.43477240  1
  Zn  Zn158  1  0.43467883  0.69143187  0.93473208  1
  Zn  Zn159  1  0.94802471  0.18581140  0.43250003  1
  Zn  Zn160  1  0.93784955  0.18803766  0.93637010  1
  Zn  Zn161  1  0.92964439  0.68835370  0.43823930  1
  Zn  Zn162  1  0.93673930  0.68404671  0.93059742  1
  Zn  Zn163  1  0.06256750  0.31374268  0.06476774  1
  Zn  Zn164  1  0.06268012  0.31455901  0.56166381  1
  Zn  Zn165  1  0.06691409  0.81153876  0.06515467  1
  Zn  Zn166  1  0.06450389  0.81269386  0.56348390  1
  Zn  Zn167  1  0.56663098  0.30645737  0.06912960  1
  Zn  Zn168  1  0.56281840  0.31048393  0.56314311  1
  Zn  Zn169  1  0.56344031  0.80713294  0.06361801  1
  Zn  Zn170  1  0.56181655  0.81136185  0.56333770  1
  O  O171  1  0.11408703  0.12987892  0.11167822  1
  O  O172  1  0.11393346  0.13378038  0.61634170  1
  O  O173  1  0.12129301  0.61722642  0.12162522  1
  O  O174  1  0.11714695  0.62003019  0.61954097  1
  O  O175  1  0.62832467  0.12293967  0.11106466  1
  O  O176  1  0.61708840  0.12166122  0.61794886  1
  O  O177  1  0.61493724  0.62372506  0.12274605  1
  O  O178  1  0.61763820  0.61835672  0.62486401  1
  O  O179  1  0.37524299  0.39100669  0.38206754  1
  O  O180  1  0.36871015  0.38748273  0.87019596  1
  O  O181  1  0.37767622  0.88386994  0.37896870  1
  O  O182  1  0.38430139  0.88523813  0.87676165  1
  O  O183  1  0.88653393  0.37338683  0.37447356  1
  O  O184  1  0.86844493  0.37686151  0.88692887  1
  O  O185  1  0.88060172  0.88013186  0.38143307  1
  O  O186  1  0.88361193  0.87453430  0.87978044  1
  O  O187  1  0.25776568  -0.00447077  0.36868407  1
  O  O188  1  0.25885052  0.00075721  0.87434638  1
  O  O189  1  0.26087914  0.51681194  0.38170444  1
  O  O190  1  0.26434683  0.50878038  0.88386282  1
  O  O191  1  0.75775864  0.00903932  0.37358869  1
  O  O192  1  0.75054393  0.01248060  0.86622938  1
  O  O193  1  0.74669022  0.51052775  0.37297739  1
  O  O194  1  0.75003617  0.50454565  0.86949853  1
  O  O195  1  0.24380326  0.49091712  0.11544211  1
  O  O196  1  0.23509388  0.50143914  0.62069125  1
  O  O197  1  0.25281794  0.98995579  0.13541813  1
  O  O198  1  0.24869124  0.98665223  0.61596497  1
  O  O199  1  0.74777996  0.48639942  0.11779099  1
  O  O200  1  0.74237040  0.49172376  0.63306132  1
  O  O201  1  0.74729251  0.98532707  0.12613448  1
  O  O202  1  0.74371357  1.00903115  0.63635772  1
  O  O203  1  0.00514847  0.36987506  0.25164755  1
  O  O204  1  0.00621207  0.36506824  0.74446787  1
  O  O205  1  0.00434890  0.86775194  0.25566619  1
  O  O206  1  0.01432543  0.87144775  0.75190414  1
  O  O207  1  0.49980634  0.35835610  0.24463887  1
  O  O208  1  0.51223235  0.36733002  0.74561780  1
  O  O209  1  0.50649912  0.86517864  0.25322115  1
  O  O210  1  0.50433404  0.86990281  0.75826793  1
  O  O211  1  0.48931640  0.13395917  0.24799814  1
  O  O212  1  0.50148008  0.13308566  0.74194070  1
  O  O213  1  0.49027823  0.63023712  0.23969584  1
  O  O214  1  0.49346653  0.63345957  0.74642821  1
  O  O215  1  1.00101428  0.13088049  0.23946362  1
  O  O216  1  0.99656990  0.13430971  0.74214334  1
  O  O217  1  0.99185823  0.63086675  0.24607033  1
  O  O218  1  0.99663425  0.63359438  0.74178195  1
  O  O219  1  0.36716303  0.24414491  0.01163435  1
  O  O220  1  0.36927675  0.26453372  0.49714072  1
  O  O221  1  0.36228467  0.75669282  -0.00010011  1
  O  O222  1  0.36451804  0.75091205  0.49804977  1
  O  O223  1  0.86517723  0.25544678  -0.00581892  1
  O  O224  1  0.88232805  0.25201820  0.50865486  1
  O  O225  1  0.87092871  0.75305624  0.00332825  1
  O  O226  1  0.87414567  0.76378692  0.50146122  1
  O  O227  1  0.13880294  0.25817156  0.49615939  1
  O  O228  1  0.12910426  0.24708319  0.99401622  1
  O  O229  1  0.12951042  0.73749027  0.50201433  1
  O  O230  1  0.13630861  0.75001564  0.99177982  1
  O  O231  1  0.61961869  0.23641957  0.49420946  1
  O  O232  1  0.63349688  0.24096744  0.99443145  1
  O  O233  1  0.62154458  0.74885005  0.48560627  1
  O  O234  1  0.63312926  0.74576507  0.99296188  1
  O  O235  1  0.49054831  0.24301666  0.13048486  1
  O  O236  1  0.49980264  0.24219497  0.63369993  1
  O  O237  1  0.49742890  0.74369917  0.13641590  1
  O  O238  1  0.50442968  0.74325738  0.63875319  1
  O  O239  1  1.00235943  0.24093214  0.13155945  1
  O  O240  1  0.99272661  0.24510916  0.63041102  1
  O  O241  1  0.99596177  0.74267589  0.13041279  1
  O  O242  1  1.00618846  0.73783462  0.63228581  1
  O  O243  1  0.00647580  0.26171693  0.36667063  1
  O  O244  1  0.00720440  0.24726162  0.86449546  1
  O  O245  1  -0.00709020  0.75963066  0.36818496  1
  O  O246  1  0.01699781  0.75400616  0.87367610  1
  O  O247  1  0.51071296  0.24187273  0.36735678  1
  O  O248  1  0.51108933  0.24465623  0.86885778  1
  O  O249  1  0.51076806  0.74651444  0.36472067  1
  O  O250  1  0.50401055  0.75853709  0.86618485  1
  O  O251  1  0.25281981  0.14588793  0.50447943  1
  O  O252  1  0.24101620  0.13560678  1.00132600  1
  O  O253  1  0.24199807  0.63116312  0.49736408  1
  O  O254  1  0.25100904  0.63468454  0.98846717  1
  O  O255  1  0.74072897  0.11772287  0.49303371  1
  O  O256  1  0.74608029  0.12985350  0.99414694  1
  O  O257  1  0.74997333  0.62231351  0.48503288  1
  O  O258  1  0.75100351  0.62755810  0.99072568  1
  O  O259  1  0.24528200  0.36153737  0.01075708  1
  O  O260  1  0.25954684  0.37085655  0.49984061  1
  O  O261  1  0.24793980  0.87098505  0.01099205  1
  O  O262  1  0.24866199  0.86686809  0.51032635  1
  O  O263  1  0.75556722  0.36509225  0.00590819  1
  O  O264  1  0.75063396  0.37855431  0.51234622  1
  O  O265  1  0.75430995  0.86919247  0.00424559  1
  O  O266  1  0.76226319  0.87953916  0.50160130  1
  O  O267  1  0.11971041  0.49421294  0.23416168  1
  O  O268  1  0.11750903  0.49191208  0.74140588  1
  O  O269  1  0.13422577  0.99110491  0.25392512  1
  O  O270  1  0.12175045  0.99077929  0.75432720  1
  O  O271  1  0.61413857  0.49201390  0.24275601  1
  O  O272  1  0.63182241  0.49052365  0.74577073  1
  O  O273  1  0.62495334  0.98491594  0.25303750  1
  O  O274  1  0.62980643  0.99609607  0.74490261  1
  O  O275  1  0.36337651  0.00641290  0.25842094  1
  O  O276  1  0.38429356  0.00279816  0.77054355  1
  O  O277  1  0.37882052  0.50721098  0.26314144  1
  O  O278  1  0.38265664  0.50761658  0.76658489  1
  O  O279  1  0.87507858  -0.00063444  0.26333692  1
  O  O280  1  0.86774505  0.00622325  0.75127695  1
  O  O281  1  0.88216284  0.51325574  0.24279217  1
  O  O282  1  0.86147614  0.49014155  0.75000894  1
  O  O283  1  0.11946223  0.38241531  0.36075626  1
  O  O284  1  0.12712535  0.36641266  0.86934645  1
  O  O285  1  0.11498935  0.87386913  0.36339512  1
  O  O286  1  0.12483327  0.86913992  0.86298005  1
  O  O287  1  0.63256251  0.35868295  0.37608300  1
  O  O288  1  0.63161674  0.36359476  0.86720566  1
  O  O289  1  0.62517071  0.86545593  0.36980530  1
  O  O290  1  0.61474706  0.87362919  0.86714237  1
  O  O291  1  0.37131575  0.13421023  0.13645100  1
  O  O292  1  0.38869875  0.12754438  0.62497290  1
  O  O293  1  0.37800486  0.62667614  0.13264080  1
  O  O294  1  0.38013936  0.61504324  0.63932212  1
  O  O295  1  0.88766125  0.11850182  0.12419556  1
  O  O296  1  0.88058606  0.13221382  0.62926569  1
  O  O297  1  0.87728554  0.62961912  0.13326935  1
  O  O298  1  0.88020166  0.62031095  0.63613567  1
  O  O299  1  0.25669501  0.25721188  0.12013766  1
  O  O300  1  0.25416983  0.26100202  0.61116934  1
  O  O301  1  0.24880909  0.75850697  0.11758702  1
  O  O302  1  0.24513789  0.76034370  0.61369560  1
  O  O303  1  0.74925171  0.25409458  0.11545644  1
  O  O304  1  0.75924801  0.25670072  0.62915959  1
  O  O305  1  0.75434078  0.75781779  0.11974455  1
  O  O306  1  0.78017350  0.73745658  0.69969398  1
  O  O307  1  0.24871697  0.25823299  0.38742897  1
  O  O308  1  0.24118888  0.24951106  0.88495576  1
  O  O309  1  0.25215357  0.73546504  0.38703011  1
  O  O310  1  0.24454616  0.74842764  0.87956470  1
  O  O311  1  0.74440799  0.23666492  0.37276979  1
  O  O312  1  0.74050880  0.23939485  0.87959763  1
  O  O313  1  0.73995998  0.74364479  0.36898866  1
  O  O314  1  0.74305767  0.74206291  0.87760075  1
  O  O315  1  0.00407874  0.11820367  0.00425189  1
  O  O316  1  -0.00352954  0.11396538  0.50916877  1
  O  O317  1  0.00030008  0.61865655  0.00495372  1
  O  O318  1  0.00309940  0.62229505  0.50416461  1
  O  O319  1  0.51631639  0.12987306  0.00071821  1
  O  O320  1  0.50567539  0.11617304  0.50546846  1
  O  O321  1  0.49701967  0.63067051  0.01214761  1
  O  O322  1  0.49963862  0.63258974  0.51595345  1
  O  O323  1  0.48725444  0.37180347  0.50094827  1
  O  O324  1  0.50133503  0.38057297  1.00405774  1
  O  O325  1  0.49950835  0.88740933  0.50055216  1
  O  O326  1  0.50000325  0.86579655  0.98571068  1
  O  O327  1  1.00112224  0.38367267  0.48905770  1
  O  O328  1  0.99086894  0.38263986  1.00554012  1
  O  O329  1  0.99538307  0.87753387  0.49481615  1
  O  O330  1  1.00004782  0.88042460  0.99665457  1
  O  O331  1  0.48652164  0.51353907  0.38072088  1
  O  O332  1  0.49056095  0.50084717  0.88788976  1
  O  O333  1  0.49033630  0.99958014  0.38233965  1
  O  O334  1  0.50048137  0.98782616  0.87614917  1
  O  O335  1  1.00268246  0.49270792  0.38244138  1
  O  O336  1  1.00012760  0.50781296  0.88694661  1
  O  O337  1  0.99236101  0.98659124  0.38039097  1
  O  O338  1  0.99943388  0.99394773  0.88518412  1
  O  O339  1  -0.00077076  0.00467190  0.11297798  1
  O  O340  1  -0.00363876  0.01119051  0.61728261  1
  O  O341  1  0.00768344  0.50482231  0.11340930  1
  O  O342  1  0.00718675  0.51155024  0.61996450  1
  O  O343  1  0.50081495  0.00230451  0.12677158  1
  O  O344  1  0.50554987  0.00668769  0.61918617  1
  O  O345  1  0.49482120  0.50606397  0.10961021  1
  O  O346  1  0.51005927  0.51164073  0.63599966  1
  O  O347  1  0.24116322  0.37237758  0.24083262  1
  O  O348  1  0.23555093  0.37179611  0.74532920  1
  O  O349  1  0.24181073  0.87792973  0.24776125  1
  O  O350  1  0.24038324  0.87357959  0.73786905  1
  O  O351  1  0.75406555  0.36882690  0.23449437  1
  O  O352  1  0.73866583  0.37503434  0.74196588  1
  O  O353  1  0.74352320  0.87357468  0.24180206  1
  O  O354  1  0.73703260  0.89068240  0.75991598  1
  O  O355  1  0.25358946  0.11671838  0.24526045  1
  O  O356  1  0.25312802  0.13451417  0.75123031  1
  O  O357  1  0.26038880  0.63126091  0.25658759  1
  O  O358  1  0.25745386  0.63073548  0.76184770  1
  O  O359  1  0.75307038  0.12087533  0.25791299  1
  O  O360  1  0.75313835  0.12103543  0.75723975  1
  O  O361  1  0.76187979  0.62775382  0.25711606  1
  O  O362  1  0.74705392  0.60683133  0.75589934  1
  O  O363  1  0.37583715  0.11759911  0.36401160  1
  O  O364  1  0.37261684  0.11318935  0.87626853  1
  O  O365  1  0.36969806  0.61756961  0.36866497  1
  O  O366  1  0.37054617  0.61941627  0.86728143  1
  O  O367  1  0.86998376  0.11684720  0.37605094  1
  O  O368  1  0.86666145  0.12466247  0.86731053  1
  O  O369  1  0.86224914  0.62702808  0.36509167  1
  O  O370  1  0.86041625  0.62762117  0.85591482  1
  O  O371  1  0.13305536  0.38149874  0.13283112  1
  O  O372  1  0.12213708  0.38604604  0.63265249  1
  O  O373  1  0.13164395  0.87146946  0.14050001  1
  O  O374  1  0.13171899  0.87507218  0.63765659  1
  O  O375  1  0.64255084  0.37307324  0.12385159  1
  O  O376  1  0.62993758  0.37945792  0.63091557  1
  O  O377  1  0.63246195  0.87176150  0.13233082  1
  O  O378  1  0.62148350  0.87958073  0.63738086  1
  O  O379  1  0.11630456  0.26048680  0.24944793  1
  O  O380  1  0.11643987  0.25893497  0.75672652  1
  O  O381  1  0.11053722  0.75348389  0.24793542  1
  O  O382  1  0.12203113  0.75454473  0.75617265  1
  O  O383  1  0.61697156  0.25009058  0.25858928  1
  O  O384  1  0.61721467  0.25428561  0.75773216  1
  O  O385  1  0.61984890  0.75797045  0.25777320  1
  O  O386  1  0.61568905  0.75998878  0.75668423  1
  O  O387  1  0.37780692  0.24398869  0.24670443  1
  O  O388  1  0.38787209  0.25142400  0.74937765  1
  O  O389  1  0.38297081  0.74157891  0.25330678  1
  O  O390  1  0.38268682  0.74078392  0.75625119  1
  O  O391  1  0.89065950  0.24557386  0.25305956  1
  O  O392  1  0.88135511  0.24666807  0.74323818  1
  O  O393  1  0.88543310  0.74432787  0.24340728  1
  O  O394  1  0.90440767  0.75533569  0.76838998  1
  O  O395  1  0.37431907  0.49018848  0.49112400  1
  O  O396  1  0.38805109  0.50093310  0.98820085  1
  O  O397  1  0.38104728  1.00060375  0.49231734  1
  O  O398  1  0.37322163  0.99913169  0.98547728  1
  O  O399  1  0.89029016  0.49774994  0.50771022  1
  O  O400  1  0.88417212  0.49235523  0.99367810  1
  O  O401  1  0.88465769  0.99083484  0.49067542  1
  O  O402  1  0.88305118  0.99074446  0.99606535  1
  O  O403  1  0.11712868  0.01020059  -0.00501301  1
  O  O404  1  0.11084702  -0.00463345  0.49711371  1
  O  O405  1  0.11938981  0.49912048  0.00797247  1
  O  O406  1  0.11478380  0.50994020  0.50687298  1
  O  O407  1  0.63186008  0.01401792  -0.00150630  1
  O  O408  1  0.61780607  0.00761872  0.50265004  1
  O  O409  1  0.60855625  0.50123613  0.00073874  1
  O  O410  1  0.62485617  0.50340568  0.51395949  1
  O  O411  1  0.36494393  0.36693711  0.13241051  1
  O  O412  1  0.37481653  0.37926632  0.61262952  1
  O  O413  1  0.36298163  0.87091847  0.12736626  1
  O  O414  1  0.36082715  0.87818353  0.62584636  1
  O  O415  1  0.86240480  0.37732641  0.11120403  1
  O  O416  1  0.86637596  0.36545050  0.62269376  1
  O  O417  1  0.86937166  0.86894953  0.11926198  1
  O  O418  1  0.87701449  0.87784673  0.61383272  1
  O  O419  1  0.11487727  0.12791979  0.38389091  1
  O  O420  1  0.12320081  0.13754564  0.88685167  1
  O  O421  1  0.13186129  0.61946456  0.38285203  1
  O  O422  1  0.13498873  0.63274487  0.87519757  1
  O  O423  1  0.63281581  0.12937693  0.38106593  1
  O  O424  1  0.63133628  0.13022547  0.88459425  1
  O  O425  1  0.63789450  0.63345841  0.37398583  1
  O  O426  1  0.63412391  0.62793435  0.87397489  1
