# generated using pymatgen
data_V85Zn86O256
_symmetry_space_group_name_H-M   'P 1'
_cell_length_a   16.91542794
_cell_length_b   16.92578378
_cell_length_c   16.91922308
_cell_angle_alpha   90.03680519
_cell_angle_beta   90.02760576
_cell_angle_gamma   90.01375605
_symmetry_Int_Tables_number   1
_chemical_formula_structural   V85Zn86O256
_chemical_formula_sum   'V85 Zn86 O256'
_cell_volume   4844.08819865
_cell_formula_units_Z   1
loop_
 _symmetry_equiv_pos_site_id
 _symmetry_equiv_pos_as_xyz
  1  'x, y, z'
loop_
 _atom_site_type_symbol
 _atom_site_label
 _atom_site_symmetry_multiplicity
 _atom_site_fract_x
 _atom_site_fract_y
 _atom_site_fract_z
 _atom_site_occupancy
  V  V0  1  0.74933724  0.24913724  0.00232285  1
  V  V1  1  0.12540905  0.88195322  0.24456360  1
  V  V2  1  0.49870228  0.86591546  0.87182552  1
  V  V3  1  0.38275048  0.00182773  0.38342503  1
  V  V4  1  0.75303025  0.36096710  0.62073010  1
  V  V5  1  0.38027888  0.75357045  0.13018271  1
  V  V6  1  0.24957494  0.24687985  -0.00279246  1
  V  V7  1  0.12348416  0.49985836  0.62544428  1
  V  V8  1  0.62135383  0.24722204  0.87386763  1
  V  V9  1  0.63008127  0.26228542  0.38082452  1
  V  V10  1  0.87625466  0.12750553  0.25249308  1
  V  V11  1  0.74765224  0.50162763  0.75304639  1
  V  V12  1  0.38147541  0.62719807  0.25378484  1
  V  V13  1  0.11347375  0.25383587  0.37606905  1
  V  V14  1  0.61745033  -0.00175336  0.61543136  1
  V  V15  1  0.13372316  0.87773306  0.75234878  1
  V  V16  1  0.62140857  0.36787608  0.74840216  1
  V  V17  1  0.37263460  0.00355650  0.85948596  1
  V  V18  1  0.87215302  0.76229209  0.62199649  1
  V  V19  1  0.62291728  0.48922137  0.12713603  1
  V  V20  1  0.25032603  0.62513687  0.87528673  1
  V  V21  1  -0.00027936  0.87429687  0.87615175  1
  V  V22  1  0.49756223  0.48876739  0.49922991  1
  V  V23  1  0.24955652  0.49978158  0.25255891  1
  V  V24  1  0.25060225  0.75160079  0.00494707  1
  V  V25  1  -0.00418119  0.62472177  0.62431252  1
  V  V26  1  0.75340223  -0.00486721  0.73628698  1
  V  V27  1  0.25694327  0.37676048  0.62247449  1
  V  V28  1  0.11046577  0.37327265  0.75232191  1
  V  V29  1  0.62633199  0.62418071  0.50065821  1
  V  V30  1  0.87613487  -0.00038309  0.87411271  1
  V  V31  1  0.87665782  0.37306491  -0.00444818  1
  V  V32  1  0.87274077  0.50050677  0.87564750  1
  V  V33  1  0.37651773  0.63941881  0.74568992  1
  V  V34  1  0.62980390  -0.00878602  0.12309128  1
  V  V35  1  0.25166061  0.12735768  0.37784939  1
  V  V36  1  0.49364778  0.13149811  0.62490825  1
  V  V37  1  0.25324068  0.12475066  0.85761899  1
  V  V38  1  0.49665678  0.63870614  0.62601461  1
  V  V39  1  0.86696469  0.87356875  0.00767134  1
  V  V40  1  0.75233042  0.76492539  0.50274408  1
  V  V41  1  0.00803612  0.11979510  0.12926739  1
  V  V42  1  0.37848243  0.48796107  0.37963540  1
  V  V43  1  0.37468613  0.37393427  -0.00034687  1
  V  V44  1  0.50203654  0.87543771  0.36475000  1
  V  V45  1  0.62642640  0.12158265  0.00028998  1
  V  V46  1  -0.00003803  0.87634911  0.38273972  1
  V  V47  1  0.11236442  0.25069924  0.87270323  1
  V  V48  1  0.26343329  0.25424452  0.49965406  1
  V  V49  1  0.50889824  0.26449935  0.25595476  1
  V  V50  1  0.62538981  0.87070179  0.74471013  1
  V  V51  1  0.10928229  0.37304937  0.25455802  1
  V  V52  1  0.62239866  0.74872025  0.36819631  1
  V  V53  1  0.13145960  0.00025604  0.63064485  1
  V  V54  1  0.38100223  0.86683575  0.50423206  1
  V  V55  1  0.24734886  0.37505913  0.12669981  1
  V  V56  1  0.62348021  0.49948567  0.62478861  1
  V  V57  1  0.12207847  0.62461156  0.00190644  1
  V  V58  1  0.13000343  0.75148791  0.37508322  1
  V  V59  1  0.87843941  0.13836822  0.74783344  1
  V  V60  1  -0.00095963  0.74944295  0.24965326  1
  V  V61  1  0.37670395  0.25111474  0.12675149  1
  V  V62  1  0.88041973  0.49494994  0.37977483  1
  V  V63  1  0.88075754  0.25055389  0.13014052  1
  V  V64  1  0.24732038  0.50153817  0.75007004  1
  V  V65  1  0.86911214  0.62681746  0.75294511  1
  V  V66  1  0.12469692  0.62467121  0.49914519  1
  V  V67  1  0.75052164  -0.00816583  0.24698936  1
  V  V68  1  -0.00146950  0.49583443  -0.00428755  1
  V  V69  1  0.75115220  0.12331017  0.87290284  1
  V  V70  1  0.49602099  0.36715886  0.86827755  1
  V  V71  1  0.49696810  0.00405799  -0.00212214  1
  V  V72  1  0.38237966  0.12610493  0.25182118  1
  V  V73  1  -0.00081135  0.13648709  0.63013861  1
  V  V74  1  -0.00077880  -0.00137677  0.50513383  1
  V  V75  1  0.63511234  0.74235785  0.87165646  1
  V  V76  1  0.37470130  0.50103530  0.87384224  1
  V  V77  1  0.12285778  0.74978148  0.87630996  1
  V  V78  1  0.12222812  0.49928552  0.12654823  1
  V  V79  1  0.87291440  -0.00329601  0.38000703  1
  V  V80  1  0.50457773  0.62759023  0.12305065  1
  V  V81  1  0.24975837  0.00364139  0.24289505  1
  V  V82  1  0.74390398  0.49163183  0.25398940  1
  V  V83  1  0.87272635  0.62184895  0.25131700  1
  V  V84  1  0.87846512  0.35879484  0.50071113  1
  Zn  Zn85  1  0.74727087  0.12921017  0.38139676  1
  Zn  Zn86  1  0.62904127  0.12979185  0.49915271  1
  Zn  Zn87  1  0.24830507  0.88078329  0.12292075  1
  Zn  Zn88  1  0.12872201  0.11869600  0.00148558  1
  Zn  Zn89  1  0.00001859  0.49292551  0.49645488  1
  Zn  Zn90  1  0.25440433  0.62566583  0.37784321  1
  Zn  Zn91  1  -0.00187286  0.75064890  0.74918366  1
  Zn  Zn92  1  0.62810671  0.86414566  0.24063251  1
  Zn  Zn93  1  0.74563243  0.36995327  0.12900025  1
  Zn  Zn94  1  0.25934773  0.87523659  0.63061209  1
  Zn  Zn95  1  0.86293854  0.75702912  0.13497784  1
  Zn  Zn96  1  0.50245545  0.49927986  -0.00192807  1
  Zn  Zn97  1  0.37458672  0.87900441  0.00172643  1
  Zn  Zn98  1  0.00782819  -0.00340977  0.00692016  1
  Zn  Zn99  1  0.37789878  0.25280047  0.63545722  1
  Zn  Zn100  1  -0.00379871  0.62743016  0.12373968  1
  Zn  Zn101  1  0.74799095  0.74303872  0.00873823  1
  Zn  Zn102  1  0.12662420  0.12628079  0.50262263  1
  Zn  Zn103  1  0.63264654  0.61845065  -0.00728311  1
  Zn  Zn104  1  0.50392522  0.12570419  0.12598861  1
  Zn  Zn105  1  0.75007933  0.62304859  0.37883861  1
  Zn  Zn106  1  0.25313163  0.75088288  0.50909269  1
  Zn  Zn107  1  0.18912358  0.19177931  0.19331631  1
  Zn  Zn108  1  0.18551612  0.19244632  0.68649140  1
  Zn  Zn109  1  0.18950283  0.68625367  0.18887412  1
  Zn  Zn110  1  0.18864187  0.69241586  0.68696093  1
  Zn  Zn111  1  0.69008055  0.18218999  0.19078721  1
  Zn  Zn112  1  0.68497552  0.18169640  0.68757247  1
  Zn  Zn113  1  0.69204207  0.68118817  0.18454536  1
  Zn  Zn114  1  0.68681460  0.68907448  0.68529175  1
  Zn  Zn115  1  0.31089234  0.31229710  0.31089536  1
  Zn  Zn116  1  0.30248326  0.31595946  0.81102753  1
  Zn  Zn117  1  0.31314553  0.81489574  0.31283946  1
  Zn  Zn118  1  0.31190826  0.81500451  0.81732016  1
  Zn  Zn119  1  0.81459451  0.31267247  0.31538205  1
  Zn  Zn120  1  0.80921984  0.31511005  0.81463899  1
  Zn  Zn121  1  0.81150491  0.81242896  0.31799471  1
  Zn  Zn122  1  0.81154683  0.81429376  0.80974523  1
  Zn  Zn123  1  0.18944563  0.43683187  0.43762798  1
  Zn  Zn124  1  0.18415015  0.43447752  0.93612781  1
  Zn  Zn125  1  0.19139741  0.93994524  0.43863266  1
  Zn  Zn126  1  0.18873016  0.94147358  0.93929838  1
  Zn  Zn127  1  0.68942151  0.43383216  0.43814069  1
  Zn  Zn128  1  0.68754595  0.43689589  0.93895496  1
  Zn  Zn129  1  0.68760210  0.93852393  0.43346976  1
  Zn  Zn130  1  0.68769709  0.93534239  0.93144299  1
  Zn  Zn131  1  0.31628567  0.06650785  0.05985501  1
  Zn  Zn132  1  0.31388309  0.06119214  0.56324570  1
  Zn  Zn133  1  0.31340886  0.56367216  0.06478667  1
  Zn  Zn134  1  0.31246159  0.56508848  0.56238611  1
  Zn  Zn135  1  0.81526551  0.06039421  0.06396418  1
  Zn  Zn136  1  0.81407509  0.06864612  0.55997041  1
  Zn  Zn137  1  0.80642670  0.56554266  0.06554247  1
  Zn  Zn138  1  0.81046286  0.55924649  0.56509686  1
  Zn  Zn139  1  0.43720992  0.44108787  0.18851922  1
  Zn  Zn140  1  0.43725115  0.44416199  0.68725734  1
  Zn  Zn141  1  0.43965274  0.93946392  0.18774907  1
  Zn  Zn142  1  0.44498581  0.93597737  0.68630283  1
  Zn  Zn143  1  0.93313997  0.43933862  0.18326024  1
  Zn  Zn144  1  0.93276995  0.43802506  0.68228076  1
  Zn  Zn145  1  0.93863673  0.93969279  0.19223815  1
  Zn  Zn146  1  0.94387873  0.94103769  0.69074543  1
  Zn  Zn147  1  0.06282537  0.06563001  0.31282479  1
  Zn  Zn148  1  0.06392817  0.06429453  0.81374847  1
  Zn  Zn149  1  0.06052365  0.56211413  0.31423929  1
  Zn  Zn150  1  0.05801411  0.56279304  0.81273501  1
  Zn  Zn151  1  0.56669815  0.06445113  0.31449970  1
  Zn  Zn152  1  0.56424779  0.05540388  0.80895021  1
  Zn  Zn153  1  0.56100531  0.56018896  0.31296643  1
  Zn  Zn154  1  0.55707533  0.55970686  0.80871310  1
  Zn  Zn155  1  0.44783983  0.18845703  0.44128266  1
  Zn  Zn156  1  0.43723446  0.18491509  0.80245226  1
  Zn  Zn157  1  0.44302940  0.68625097  0.43671864  1
  Zn  Zn158  1  0.43866422  0.68708134  0.94093229  1
  Zn  Zn159  1  0.93705776  0.18094897  0.44169885  1
  Zn  Zn160  1  0.93736914  0.18303364  0.94343750  1
  Zn  Zn161  1  0.93674604  0.68686739  0.43684437  1
  Zn  Zn162  1  0.93277339  0.68718986  0.93818228  1
  Zn  Zn163  1  0.06043787  0.31012345  0.06221684  1
  Zn  Zn164  1  0.06815841  0.31312165  0.55925996  1
  Zn  Zn165  1  0.05897585  0.81417502  0.06388287  1
  Zn  Zn166  1  0.06603091  0.81116590  0.56562008  1
  Zn  Zn167  1  0.55822621  0.30987179  0.06138023  1
  Zn  Zn168  1  0.56084324  0.30990474  0.56397607  1
  Zn  Zn169  1  0.56204813  0.81187427  0.05577632  1
  Zn  Zn170  1  0.56201750  0.81679085  0.55498066  1
  O  O171  1  0.11013538  0.13590092  0.13058350  1
  O  O172  1  0.11643512  0.11799345  0.62695015  1
  O  O173  1  0.12267361  0.61795769  0.11972175  1
  O  O174  1  0.11614630  0.62099032  0.61928895  1
  O  O175  1  0.62607323  0.11533868  0.11545130  1
  O  O176  1  0.61947551  0.11221819  0.62512977  1
  O  O177  1  0.61253468  0.61617188  0.12776005  1
  O  O178  1  0.61795324  0.61906223  0.62040864  1
  O  O179  1  0.37209852  0.38939636  0.37252603  1
  O  O180  1  0.37820895  0.37946633  0.88061026  1
  O  O181  1  0.38281409  0.88273670  0.37689821  1
  O  O182  1  0.38148853  0.88454729  0.87798544  1
  O  O183  1  0.86926417  0.37941025  0.39244921  1
  O  O184  1  0.87041864  0.38119438  0.88802941  1
  O  O185  1  0.88581066  0.88727678  0.37135620  1
  O  O186  1  0.88165513  0.88038110  0.87998339  1
  O  O187  1  0.25666252  0.01347135  0.36793074  1
  O  O188  1  0.26530777  0.00915408  0.88007596  1
  O  O189  1  0.26075374  0.50304312  0.37158077  1
  O  O190  1  0.25332860  0.50595322  0.87155281  1
  O  O191  1  0.75931944  0.00084157  0.36887616  1
  O  O192  1  0.76080669  0.00356845  0.86673847  1
  O  O193  1  0.75858218  0.50045697  0.37029137  1
  O  O194  1  0.75442139  0.49267071  0.86070629  1
  O  O195  1  0.24277372  0.49528909  0.13063592  1
  O  O196  1  0.24286385  0.49609244  0.62897364  1
  O  O197  1  0.25731712  1.00249879  0.13878820  1
  O  O198  1  0.23580357  0.99517998  0.61788666  1
  O  O199  1  0.73938376  0.49728483  0.13482986  1
  O  O200  1  0.74225251  0.49142169  0.63514219  1
  O  O201  1  0.74278131  1.00255851  0.13298815  1
  O  O202  1  0.74349514  1.00306676  0.63363873  1
  O  O203  1  0.01016508  0.37918299  0.24564740  1
  O  O204  1  0.01097299  0.38244153  0.74448653  1
  O  O205  1  0.00647095  0.87101974  0.26089175  1
  O  O206  1  0.00583805  0.87273183  0.76395066  1
  O  O207  1  0.49668303  0.36230096  0.24785707  1
  O  O208  1  0.50969116  0.38173539  0.75549415  1
  O  O209  1  0.50420962  0.87519531  0.26006833  1
  O  O210  1  0.51287807  0.87968160  0.75939637  1
  O  O211  1  0.48985482  0.12950130  0.24934748  1
  O  O212  1  0.50723432  0.12180134  0.73580220  1
  O  O213  1  0.48768852  0.62104852  0.24275348  1
  O  O214  1  0.48820806  0.62026928  0.73877899  1
  O  O215  1  0.98848870  0.12140484  0.24195240  1
  O  O216  1  0.99343697  0.12156782  0.73871685  1
  O  O217  1  0.99345972  0.63407096  0.25115760  1
  O  O218  1  0.99112380  0.62712768  0.74080631  1
  O  O219  1  0.36525895  0.26467019  0.00603043  1
  O  O220  1  0.36626865  0.24737016  0.50404859  1
  O  O221  1  0.36686451  0.75005510  0.01108372  1
  O  O222  1  0.37425785  0.76323374  0.49256098  1
  O  O223  1  0.86998996  0.25565409  0.00553535  1
  O  O224  1  0.87479577  0.25995675  0.49716133  1
  O  O225  1  0.87531270  0.76460344  0.00130136  1
  O  O226  1  0.86039774  0.74302669  0.50560762  1
  O  O227  1  0.13607397  0.24922997  0.48788869  1
  O  O228  1  0.13212005  0.24894428  0.99040841  1
  O  O229  1  0.12373211  0.74331693  0.49025132  1
  O  O230  1  0.13020405  0.74552227  0.99796397  1
  O  O231  1  0.62048560  0.25353680  0.48457595  1
  O  O232  1  0.62800955  0.24164016  0.99510453  1
  O  O233  1  0.63587975  0.74435038  0.49481800  1
  O  O234  1  0.62601926  0.75063047  0.98202207  1
  O  O235  1  0.49432948  0.24737464  0.13570111  1
  O  O236  1  0.49876207  0.23804627  0.62800454  1
  O  O237  1  0.49213909  0.74236070  0.11945390  1
  O  O238  1  0.50551096  0.73788550  0.61801677  1
  O  O239  1  0.98710041  0.24052630  0.12200879  1
  O  O240  1  1.00882688  0.23466365  0.62215205  1
  O  O241  1  0.99517738  0.75107047  0.14038389  1
  O  O242  1  0.99268174  0.73903865  0.62401496  1
  O  O243  1  0.01526860  0.24389534  0.38115520  1
  O  O244  1  0.01381785  0.24370702  0.88113218  1
  O  O245  1  0.00703757  0.75695366  0.36861086  1
  O  O246  1  0.00473413  0.75782706  0.87533013  1
  O  O247  1  0.50820221  0.24990792  0.36252933  1
  O  O248  1  0.50378923  0.26078244  0.87085218  1
  O  O249  1  0.51238937  0.75851204  0.37955134  1
  O  O250  1  0.50340280  0.76281321  0.87930991  1
  O  O251  1  0.24875081  0.13184559  0.49329938  1
  O  O252  1  0.25132376  0.13814848  0.99570391  1
  O  O253  1  0.23669589  0.62799664  0.49954986  1
  O  O254  1  0.24476018  0.63416333  0.99764466  1
  O  O255  1  0.74440981  0.12272337  0.49573265  1
  O  O256  1  0.74714848  0.12853774  0.99313672  1
  O  O257  1  0.73554954  0.62458450  0.50209434  1
  O  O258  1  0.74674493  0.62782115  0.99669054  1
  O  O259  1  0.25280040  0.36688556  0.00472801  1
  O  O260  1  0.24607487  0.36752274  0.51013253  1
  O  O261  1  0.25110389  0.86295456  0.00190556  1
  O  O262  1  0.26816432  0.87434039  0.49393568  1
  O  O263  1  0.75623586  0.36552895  0.00354618  1
  O  O264  1  0.75826559  0.37735487  0.51451338  1
  O  O265  1  0.76545430  0.87496627  -0.00676708  1
  O  O266  1  0.75011034  0.86333229  0.49846987  1
  O  O267  1  0.12934844  0.49392591  0.24817464  1
  O  O268  1  0.12849521  0.49672456  0.74633300  1
  O  O269  1  0.13552450  0.99346936  0.25786062  1
  O  O270  1  0.11899202  0.99108931  0.74286096  1
  O  O271  1  0.63273985  0.50282225  0.24363205  1
  O  O272  1  0.63047954  0.49023612  0.74675433  1
  O  O273  1  0.63392778  1.00026265  0.24018373  1
  O  O274  1  0.63496908  0.99112457  0.74161804  1
  O  O275  1  0.36995411  0.00856990  0.25842856  1
  O  O276  1  0.37538692  -0.00724464  0.76103766  1
  O  O277  1  0.37139901  0.50630382  0.26069716  1
  O  O278  1  0.36565769  0.50631496  0.75832193  1
  O  O279  1  0.86973100  0.00513219  0.25836749  1
  O  O280  1  0.86942567  0.00454644  0.75585551  1
  O  O281  1  0.86986319  0.50462823  0.25731675  1
  O  O282  1  0.86702171  0.50553225  0.75326525  1
  O  O283  1  0.12729862  0.36353945  0.36993659  1
  O  O284  1  0.12680402  0.36093112  0.86796960  1
  O  O285  1  0.12061212  0.86903537  0.36784589  1
  O  O286  1  0.11844596  0.87141163  0.87128689  1
  O  O287  1  0.62648484  0.36303397  0.37298770  1
  O  O288  1  0.61585069  0.37017892  0.86846415  1
  O  O289  1  0.61820017  0.86714600  0.37370085  1
  O  O290  1  0.61827684  0.86717324  0.86637927  1
  O  O291  1  0.37720912  0.13384018  0.13443866  1
  O  O292  1  0.38991545  0.12183592  0.62370130  1
  O  O293  1  0.38497332  0.62954968  0.13094929  1
  O  O294  1  0.38291886  0.62217792  0.63341709  1
  O  O295  1  0.88202855  0.13082152  0.13255491  1
  O  O296  1  0.89005634  0.12066691  0.63356241  1
  O  O297  1  0.87705446  0.62388435  0.14144035  1
  O  O298  1  0.88024290  0.62937807  0.63229281  1
  O  O299  1  0.25537937  0.25525693  0.11937102  1
  O  O300  1  0.24838235  0.25921678  0.61581140  1
  O  O301  1  0.25726876  0.75107420  0.11903942  1
  O  O302  1  0.24193873  0.76280298  0.62157893  1
  O  O303  1  0.75971874  0.24738561  0.12001445  1
  O  O304  1  0.74562286  0.26280508  0.63011490  1
  O  O305  1  0.75021911  0.75318380  0.12402885  1
  O  O306  1  0.75608942  0.74807090  0.61127034  1
  O  O307  1  0.24977846  0.24131903  0.38055171  1
  O  O308  1  0.24367128  0.24260023  0.88267928  1
  O  O309  1  0.23815304  0.74845461  0.37436864  1
  O  O310  1  0.24480060  0.74434079  0.88539719  1
  O  O311  1  0.73330936  0.24837571  0.36362427  1
  O  O312  1  0.74212315  0.24377060  0.88220765  1
  O  O313  1  0.74544734  0.74599816  0.38863576  1
  O  O314  1  0.73665010  0.75165750  0.87398809  1
  O  O315  1  0.00029036  0.12158739  0.01737437  1
  O  O316  1  0.00332845  0.11685492  0.51290951  1
  O  O317  1  0.00426420  0.61878948  0.00250973  1
  O  O318  1  0.00920061  0.62401994  0.50538264  1
  O  O319  1  0.51158863  0.11095302  -0.00070766  1
  O  O320  1  0.50873951  0.12629956  0.51723929  1
  O  O321  1  0.50408270  0.61994034  0.00867126  1
  O  O322  1  0.51014531  0.61871280  0.50645551  1
  O  O323  1  0.49970133  0.38947921  0.50807159  1
  O  O324  1  0.48939486  0.37463433  0.99056787  1
  O  O325  1  0.48736275  0.87520633  0.48674068  1
  O  O326  1  0.50029179  0.88720124  0.98917123  1
  O  O327  1  0.98290501  0.37538273  0.51170143  1
  O  O328  1  0.99045136  0.38332424  1.00425064  1
  O  O329  1  1.00671663  0.87953640  0.48908534  1
  O  O330  1  0.99271574  0.87619667  0.99001131  1
  O  O331  1  0.48727167  0.50290992  0.38256042  1
  O  O332  1  0.49168475  0.48821242  0.87603171  1
  O  O333  1  0.49279074  0.99253103  0.36955591  1
  O  O334  1  0.49019875  0.99436169  0.87853791  1
  O  O335  1  0.98559784  0.50012712  0.37609028  1
  O  O336  1  0.99196314  0.50376082  0.88812881  1
  O  O337  1  0.99686066  0.99456728  0.38278139  1
  O  O338  1  0.98821986  0.99432636  0.87399468  1
  O  O339  1  -0.00286199  0.01550844  0.12788065  1
  O  O340  1  0.00896267  0.00531943  0.61929004  1
  O  O341  1  0.00499127  0.50265375  0.11414842  1
  O  O342  1  0.00297143  0.51207545  0.62248948  1
  O  O343  1  0.50692535  0.00322209  0.11605615  1
  O  O344  1  0.51321760  0.00773995  0.62635830  1
  O  O345  1  0.50586223  0.50681882  0.12374673  1
  O  O346  1  0.50609508  0.50752274  0.61745845  1
  O  O347  1  0.24375416  0.38194740  0.24424630  1
  O  O348  1  0.23705857  0.38606661  0.74387351  1
  O  O349  1  0.24301656  0.88664974  0.25126168  1
  O  O350  1  0.23752958  0.87564968  0.75391144  1
  O  O351  1  0.75801593  0.38812004  0.24691708  1
  O  O352  1  0.74415716  0.38054012  0.74056170  1
  O  O353  1  0.74849658  0.88709099  0.25584069  1
  O  O354  1  0.74002630  0.88429575  0.75310138  1
  O  O355  1  0.26134023  0.12350851  0.25732266  1
  O  O356  1  0.24553776  0.12556145  0.75844229  1
  O  O357  1  0.26139179  0.61650958  0.25020927  1
  O  O358  1  0.25349518  0.61932692  0.75512878  1
  O  O359  1  0.76260171  0.11364508  0.25338572  1
  O  O360  1  0.75772790  0.11641763  0.75469316  1
  O  O361  1  0.75781341  0.61253527  0.25551476  1
  O  O362  1  0.75720398  0.61481651  0.74243253  1
  O  O363  1  0.37291648  0.12073750  0.37149417  1
  O  O364  1  0.37054076  0.11221652  0.86935995  1
  O  O365  1  0.37477515  0.62150867  0.36719149  1
  O  O366  1  0.37037226  0.62007472  0.87042182  1
  O  O367  1  0.87817088  0.11361360  0.36880232  1
  O  O368  1  0.87292999  0.11672830  0.86992909  1
  O  O369  1  0.87374469  0.61691240  0.36716124  1
  O  O370  1  0.87887126  0.61944359  0.86005996  1
  O  O371  1  0.12837404  0.37820346  0.13258963  1
  O  O372  1  0.13124572  0.38149743  0.63176572  1
  O  O373  1  0.12599666  0.87045153  0.14081075  1
  O  O374  1  0.11911869  0.88346721  0.63771711  1
  O  O375  1  0.62315949  0.38505399  0.12198798  1
  O  O376  1  0.63254935  0.37767306  0.63114693  1
  O  O377  1  0.61879973  0.88675858  0.12398822  1
  O  O378  1  0.61702056  0.88566506  0.63171890  1
  O  O379  1  0.13040354  0.25957436  0.26624891  1
  O  O380  1  0.12662592  0.25843714  0.76352882  1
  O  O381  1  0.11863596  0.75470963  0.25745939  1
  O  O382  1  0.12052406  0.75728924  0.76038765  1
  O  O383  1  0.61252723  0.24678891  0.25140636  1
  O  O384  1  0.63145998  0.26117780  0.75708444  1
  O  O385  1  0.63379691  0.74658428  0.26497719  1
  O  O386  1  0.62952854  0.75902537  0.75777339  1
  O  O387  1  0.38368250  0.24404108  0.24886142  1
  O  O388  1  0.36748202  0.25249688  0.74869200  1
  O  O389  1  0.36880230  0.74225856  0.23890424  1
  O  O390  1  0.37025860  0.73849093  0.75568853  1
  O  O391  1  0.87120552  0.24116901  0.24320612  1
  O  O392  1  0.87068813  0.23742938  0.75747459  1
  O  O393  1  0.88170887  0.74256567  0.25578114  1
  O  O394  1  0.87312158  0.74243708  0.74191402  1
  O  O395  1  0.38110393  0.50700610  0.48694446  1
  O  O396  1  0.37178629  0.48891451  0.99401979  1
  O  O397  1  0.37181852  0.99334811  0.48648083  1
  O  O398  1  0.38378558  0.99989724  0.99340087  1
  O  O399  1  0.87510579  0.49448406  0.49339432  1
  O  O400  1  0.87955996  0.49275752  0.99846994  1
  O  O401  1  0.88954183  1.00170680  0.49439429  1
  O  O402  1  0.87845194  0.99018612  0.99196157  1
  O  O403  1  0.12137212  0.00542124  -0.00129649  1
  O  O404  1  0.11539432  0.00180525  0.50511817  1
  O  O405  1  0.11719892  0.50276321  0.00375337  1
  O  O406  1  0.12148509  0.50701552  0.50423152  1
  O  O407  1  0.62310453  0.00247035  0.00335644  1
  O  O408  1  0.62842589  -0.00528636  0.51443607  1
  O  O409  1  0.62272636  0.49986448  0.00969696  1
  O  O410  1  0.61874615  0.50583910  0.50324568  1
  O  O411  1  0.36890823  0.37321035  0.11865408  1
  O  O412  1  0.36020442  0.37869140  0.63076280  1
  O  O413  1  0.37351018  0.86703525  0.12424965  1
  O  O414  1  0.37937090  0.88303571  0.60793042  1
  O  O415  1  0.87261358  0.36644540  0.11524389  1
  O  O416  1  0.86164450  0.37605840  0.61632930  1
  O  O417  1  0.88266834  0.87805377  0.11066567  1
  O  O418  1  0.88486231  0.86094814  0.63080389  1
  O  O419  1  0.13473678  0.13591972  0.37455617  1
  O  O420  1  0.13271999  0.13568514  0.87515308  1
  O  O421  1  0.12538556  0.63264036  0.38217216  1
  O  O422  1  0.12978435  0.62958833  0.88154838  1
  O  O423  1  0.62467861  0.13820814  0.37658528  1
  O  O424  1  0.63043344  0.12572243  0.88037888  1
  O  O425  1  0.62377483  0.63113693  0.38409692  1
  O  O426  1  0.61469624  0.64035125  0.86911338  1
