# generated using pymatgen
data_V85Zn86O256
_symmetry_space_group_name_H-M   'P 1'
_cell_length_a   16.93790580
_cell_length_b   16.95841979
_cell_length_c   16.94637160
_cell_angle_alpha   90.05784211
_cell_angle_beta   89.98655016
_cell_angle_gamma   90.04835424
_symmetry_Int_Tables_number   1
_chemical_formula_structural   V85Zn86O256
_chemical_formula_sum   'V85 Zn86 O256'
_cell_volume   4867.67341282
_cell_formula_units_Z   1
loop_
 _symmetry_equiv_pos_site_id
 _symmetry_equiv_pos_as_xyz
  1  'x, y, z'
loop_
 _atom_site_type_symbol
 _atom_site_label
 _atom_site_symmetry_multiplicity
 _atom_site_fract_x
 _atom_site_fract_y
 _atom_site_fract_z
 _atom_site_occupancy
  V  V0  1  0.25363352  0.87319908  0.12767128  1
  V  V1  1  0.37807178  0.62566631  0.24609442  1
  V  V2  1  0.12597088  0.37586274  0.24650565  1
  V  V3  1  0.74859091  0.12658126  0.87387781  1
  V  V4  1  0.87787258  0.62538024  0.75004742  1
  V  V5  1  0.75337385  0.74755595  -0.00216123  1
  V  V6  1  0.87631200  0.12364442  0.74961609  1
  V  V7  1  0.74365146  0.12462960  0.37972763  1
  V  V8  1  0.63111131  0.37781569  0.24904038  1
  V  V9  1  0.50840859  0.50701894  0.51587862  1
  V  V10  1  0.12605607  0.87607608  0.74992201  1
  V  V11  1  0.74829502  0.87582529  0.12454153  1
  V  V12  1  0.00115096  0.50038674  0.00128153  1
  V  V13  1  0.49793788  0.25232149  0.24646714  1
  V  V14  1  0.12721025  0.74852915  0.87332229  1
  V  V15  1  0.12215133  0.50254796  0.62315897  1
  V  V16  1  -0.01021313  0.37373181  0.37789492  1
  V  V17  1  0.25811856  0.61941470  0.86036171  1
  V  V18  1  0.87414963  0.00170830  0.37595594  1
  V  V19  1  0.74669171  -0.00320783  0.74901022  1
  V  V20  1  0.87192937  0.51839251  0.36799549  1
  V  V21  1  0.87352110  0.49908831  0.87322808  1
  V  V22  1  0.24994065  0.26266799  0.00042714  1
  V  V23  1  0.39400712  0.87916968  0.49929408  1
  V  V24  1  0.12579265  0.37771745  0.74971257  1
  V  V25  1  0.00156177  -0.00105819  -0.00101683  1
  V  V26  1  0.25511277  0.00130500  0.75224507  1
  V  V27  1  0.00789203  0.24730341  0.75351509  1
  V  V28  1  0.87730309  0.86989321  0.00322080  1
  V  V29  1  0.50111055  0.37867545  0.37648571  1
  V  V30  1  0.25000960  0.13375781  0.87342484  1
  V  V31  1  0.37748364  0.73434559  0.62790270  1
  V  V32  1  0.12900202  0.87937107  0.25230036  1
  V  V33  1  0.75165367  0.26069357  0.50457661  1
  V  V34  1  0.25034406  0.49761318  0.24056306  1
  V  V35  1  0.63686292  0.37820618  0.74796710  1
  V  V36  1  0.63708160  0.73722228  0.37912753  1
  V  V37  1  0.12720218  0.13112923  -0.00431219  1
  V  V38  1  -0.00368616  0.50018265  0.49938061  1
  V  V39  1  0.87028477  0.87440252  0.50141939  1
  V  V40  1  0.82485870  0.69179334  0.18158984  1
  V  V41  1  0.87296995  0.24893152  0.12635676  1
  V  V42  1  0.25535491  0.87384622  0.62277245  1
  V  V43  1  0.24538809  0.62421369  0.37984413  1
  V  V44  1  0.50755449  0.25116838  0.74295587  1
  V  V45  1  0.00095978  0.62828026  0.61195547  1
  V  V46  1  0.24877996  0.37795118  0.62764211  1
  V  V47  1  0.36930586  0.26519807  0.12118126  1
  V  V48  1  0.38793193  0.74771603  0.12367693  1
  V  V49  1  0.00298891  0.12094444  0.62235402  1
  V  V50  1  0.57385696  0.91996380  0.30754246  1
  V  V51  1  0.00330566  0.74417380  0.24370021  1
  V  V52  1  0.12870504  0.62486343  0.00208002  1
  V  V53  1  0.62153736  0.12335428  -0.00551275  1
  V  V54  1  0.37355583  0.48765704  0.86977476  1
  V  V55  1  0.87509872  0.25578106  0.62058844  1
  V  V56  1  0.62442732  0.25083603  0.37765549  1
  V  V57  1  0.50396749  0.73515950  0.74497137  1
  V  V58  1  0.62033204  0.50306589  0.12310487  1
  V  V59  1  0.13599309  0.00271459  0.12690146  1
  V  V60  1  0.37365637  0.37833861  0.50249280  1
  V  V61  1  0.87188959  0.12402722  0.25075944  1
  V  V62  1  0.87578110  0.37233306  -0.00108206  1
  V  V63  1  0.37458923  0.50137113  0.37488001  1
  V  V64  1  0.38049444  0.12734412  0.74111465  1
  V  V65  1  -0.00102839  0.87263536  0.37433875  1
  V  V66  1  0.61886249  -0.00647897  0.11520643  1
  V  V67  1  0.61383801  0.00168225  0.62601329  1
  V  V68  1  0.86983282  0.74918118  0.62130839  1
  V  V69  1  0.62573033  0.75663810  0.86878877  1
  V  V70  1  0.61122151  0.12652395  0.50918620  1
  V  V71  1  0.74542541  -0.00175634  0.24976053  1
  V  V72  1  0.74818041  0.61967023  0.86897673  1
  V  V73  1  0.49606359  0.87919199  0.86921468  1
  V  V74  1  0.74523128  0.24934289  -0.00257342  1
  V  V75  1  0.00609329  0.36958959  0.87397583  1
  V  V76  1  0.50711560  0.36789995  0.88266535  1
  V  V77  1  0.49969881  0.74916192  0.26514104  1
  V  V78  1  0.61425249  0.62356221  -0.00357219  1
  V  V79  1  0.25427089  0.74915886  0.00034638  1
  V  V80  1  0.12247494  0.74757485  0.38457029  1
  V  V81  1  0.13025975  0.25120523  0.37765974  1
  V  V82  1  0.74452776  0.87443174  0.62710527  1
  V  V83  1  0.49556704  0.12532645  0.11774268  1
  V  V84  1  0.00007314  0.12333856  0.12571706  1
  Zn  Zn85  1  0.67261749  0.50365778  0.64736203  1
  Zn  Zn86  1  0.38180929  0.88373222  0.00034733  1
  Zn  Zn87  1  0.38374585  0.00853363  0.88207404  1
  Zn  Zn88  1  0.63531808  0.62626625  0.51258270  1
  Zn  Zn89  1  0.36020957  0.11256892  0.24763868  1
  Zn  Zn90  1  -0.00260506  0.62756039  0.12393585  1
  Zn  Zn91  1  0.12793004  0.00075774  0.62376538  1
  Zn  Zn92  1  0.87488720  -0.00226208  0.87570736  1
  Zn  Zn93  1  0.12802203  0.49573943  0.12249420  1
  Zn  Zn94  1  0.00206938  0.75101582  0.74782588  1
  Zn  Zn95  1  0.48967632  0.49734635  0.00443442  1
  Zn  Zn96  1  0.00232608  0.00031273  0.49914986  1
  Zn  Zn97  1  0.75096080  0.37757334  0.12433478  1
  Zn  Zn98  1  0.37015079  -0.00952335  0.37131887  1
  Zn  Zn99  1  0.37641677  0.25001341  0.62405641  1
  Zn  Zn100  1  0.12962412  0.12067193  0.50003284  1
  Zn  Zn101  1  -0.00113610  0.24981341  0.25158075  1
  Zn  Zn102  1  0.25206600  0.74648908  0.50156061  1
  Zn  Zn103  1  0.75453272  0.51233584  0.24789860  1
  Zn  Zn104  1  0.25113442  0.24602031  0.50171535  1
  Zn  Zn105  1  0.00031069  0.87374312  0.87432114  1
  Zn  Zn106  1  0.24018144  0.10435372  0.37137293  1
  Zn  Zn107  1  0.18921631  0.19057296  0.18990552  1
  Zn  Zn108  1  0.18894396  0.19018312  0.68489192  1
  Zn  Zn109  1  0.18992466  0.68830590  0.18938402  1
  Zn  Zn110  1  0.18596730  0.68726126  0.68392163  1
  Zn  Zn111  1  0.68350721  0.18540159  0.18595822  1
  Zn  Zn112  1  0.68824349  0.19048461  0.68719716  1
  Zn  Zn113  1  0.65865919  0.68970473  0.18658143  1
  Zn  Zn114  1  0.68745709  0.68492740  0.68602337  1
  Zn  Zn115  1  0.31221047  0.31184155  0.30926569  1
  Zn  Zn116  1  0.31318013  0.31159108  0.80995164  1
  Zn  Zn117  1  0.31127969  0.81498945  0.31633820  1
  Zn  Zn118  1  0.31625215  0.80846693  0.80857804  1
  Zn  Zn119  1  0.80970302  0.31148055  0.31411000  1
  Zn  Zn120  1  0.81935988  0.30663861  0.81357274  1
  Zn  Zn121  1  0.80889026  0.82147678  0.31182967  1
  Zn  Zn122  1  0.81429185  0.81277794  0.81240769  1
  Zn  Zn123  1  0.18450290  0.43755555  0.43735911  1
  Zn  Zn124  1  0.18764739  0.44227472  0.93254319  1
  Zn  Zn125  1  0.19049001  0.93863201  0.44174680  1
  Zn  Zn126  1  0.19431315  0.93956426  0.93837067  1
  Zn  Zn127  1  0.69159966  0.44387175  0.43509965  1
  Zn  Zn128  1  0.68507954  0.43661959  0.93462300  1
  Zn  Zn129  1  0.68632418  0.94166326  0.44728975  1
  Zn  Zn130  1  0.68641393  0.93652181  0.93552664  1
  Zn  Zn131  1  0.31590039  0.06619024  0.05929972  1
  Zn  Zn132  1  0.31277080  0.06020750  0.55662576  1
  Zn  Zn133  1  0.31533985  0.56255578  0.05802869  1
  Zn  Zn134  1  0.30854406  0.55717844  0.56225057  1
  Zn  Zn135  1  0.81073057  0.05956536  0.06177025  1
  Zn  Zn136  1  0.81021557  0.06555432  0.56190996  1
  Zn  Zn137  1  0.80329624  0.55546230  0.05423159  1
  Zn  Zn138  1  0.80920479  0.55840348  0.55467539  1
  Zn  Zn139  1  0.44052901  0.43902807  0.18789586  1
  Zn  Zn140  1  0.43778772  0.43765603  0.69435387  1
  Zn  Zn141  1  0.43572699  0.93937760  0.18078773  1
  Zn  Zn142  1  0.43683167  0.92916590  0.69419051  1
  Zn  Zn143  1  0.93887074  0.43792019  0.18881636  1
  Zn  Zn144  1  0.88869034  0.45717759  0.66421685  1
  Zn  Zn145  1  0.93827682  0.93638583  0.18602717  1
  Zn  Zn146  1  0.93637192  0.93727868  0.68986019  1
  Zn  Zn147  1  0.06236894  0.06245286  0.31144789  1
  Zn  Zn148  1  0.06658122  0.06159129  0.81350480  1
  Zn  Zn149  1  0.06217451  0.56313726  0.31258267  1
  Zn  Zn150  1  0.06017778  0.56220209  0.80925319  1
  Zn  Zn151  1  0.51286685  0.08626322  0.33197188  1
  Zn  Zn152  1  0.56473214  0.06516571  0.80880759  1
  Zn  Zn153  1  0.56030591  0.56258427  0.31233496  1
  Zn  Zn154  1  0.55996886  0.55644801  0.81294696  1
  Zn  Zn155  1  0.43299842  0.19277655  0.44084295  1
  Zn  Zn156  1  0.43320104  0.19168243  0.93554122  1
  Zn  Zn157  1  0.43677509  0.68602495  0.44146420  1
  Zn  Zn158  1  0.43600390  0.68938973  0.93152736  1
  Zn  Zn159  1  0.93845015  0.18761793  0.43901031  1
  Zn  Zn160  1  0.93628069  0.18537341  0.93665361  1
  Zn  Zn161  1  0.81676515  0.68932205  0.43656242  1
  Zn  Zn162  1  0.93978678  0.68826963  0.93796894  1
  Zn  Zn163  1  0.06262243  0.31119568  0.06421546  1
  Zn  Zn164  1  0.05834251  0.31283390  0.56169932  1
  Zn  Zn165  1  0.06486473  0.81207368  0.06358032  1
  Zn  Zn166  1  0.05958763  0.81523125  0.56272380  1
  Zn  Zn167  1  0.56434508  0.31253879  0.06304049  1
  Zn  Zn168  1  0.56711443  0.32162863  0.56694040  1
  Zn  Zn169  1  0.56136747  0.81113231  0.05565160  1
  Zn  Zn170  1  0.56559725  0.80652178  0.56527789  1
  O  O171  1  0.12180383  0.11810806  0.12098558  1
  O  O172  1  0.11732183  0.12359060  0.62404284  1
  O  O173  1  0.12667090  0.62570448  0.11125853  1
  O  O174  1  0.11447774  0.61557904  0.62947791  1
  O  O175  1  0.61984306  0.11867331  0.11240417  1
  O  O176  1  0.62990515  0.11897128  0.61626498  1
  O  O177  1  0.62704166  0.61657565  0.10942072  1
  O  O178  1  0.63558568  0.60864798  0.62635227  1
  O  O179  1  0.37958801  0.38047135  0.38239126  1
  O  O180  1  0.38197655  0.38211988  0.87242748  1
  O  O181  1  0.37521443  0.86771946  0.39536420  1
  O  O182  1  0.38620359  0.87418140  0.87343844  1
  O  O183  1  0.88826715  0.37521607  0.36984120  1
  O  O184  1  0.88646774  0.37810078  0.87897106  1
  O  O185  1  0.88022254  0.87884310  0.38245482  1
  O  O186  1  0.87825028  0.87779978  0.88698172  1
  O  O187  1  0.25434693  -0.00857285  0.36963777  1
  O  O188  1  0.25026494  0.01004964  0.86357204  1
  O  O189  1  0.25453989  0.50640607  0.36818861  1
  O  O190  1  0.25943888  0.50970854  0.87457584  1
  O  O191  1  0.75313919  0.00530008  0.37042492  1
  O  O192  1  0.74969444  0.00874366  0.86795628  1
  O  O193  1  0.76744268  0.49893524  0.36835837  1
  O  O194  1  0.75980392  0.50870536  0.88195805  1
  O  O195  1  0.25019860  0.50541630  0.13687258  1
  O  O196  1  0.23637249  0.48946892  0.62153474  1
  O  O197  1  0.24102031  0.99435825  0.12205983  1
  O  O198  1  0.25233679  0.99183635  0.63661629  1
  O  O199  1  0.73829730  0.49671571  0.12806895  1
  O  O200  1  0.78290314  0.48448010  0.63077124  1
  O  O201  1  0.73609315  0.99910057  0.12974945  1
  O  O202  1  0.74614054  0.99391396  0.63202399  1
  O  O203  1  0.00659204  0.37441261  0.26161355  1
  O  O204  1  0.00898883  0.36421717  0.75893448  1
  O  O205  1  0.00632873  0.86888571  0.25388967  1
  O  O206  1  0.01116751  0.87429288  0.75340660  1
  O  O207  1  0.51037423  0.36841120  0.25296373  1
  O  O208  1  0.50842585  0.36603488  0.75874283  1
  O  O209  1  0.50379860  0.86663874  0.25105641  1
  O  O210  1  0.49917055  0.85886130  0.76275537  1
  O  O211  1  0.51273568  0.14481475  0.23225662  1
  O  O212  1  0.49493153  0.14181516  0.75771228  1
  O  O213  1  0.49017590  0.63471118  0.25218594  1
  O  O214  1  0.50018136  0.63654237  0.75660172  1
  O  O215  1  0.99216266  0.12642345  0.24216562  1
  O  O216  1  0.99771101  0.12971030  0.74708759  1
  O  O217  1  1.00630774  0.63947978  0.24548642  1
  O  O218  1  0.99357051  0.62986102  0.74175130  1
  O  O219  1  0.36549421  0.24829553  0.01244271  1
  O  O220  1  0.37469305  0.26601764  0.50432430  1
  O  O221  1  0.37135065  0.74821865  0.00923459  1
  O  O222  1  0.37672132  0.75617578  0.51347922  1
  O  O223  1  0.86684252  0.25172933  0.00642106  1
  O  O224  1  0.86783157  0.24295457  0.51259513  1
  O  O225  1  0.86885064  0.75817562  -0.00381471  1
  O  O226  1  0.87307026  0.76039784  0.50997467  1
  O  O227  1  0.12423342  0.25111897  0.48760542  1
  O  O228  1  0.13126872  0.23681272  1.00909848  1
  O  O229  1  0.12504620  0.75533360  0.48716734  1
  O  O230  1  0.13226611  0.74436558  0.99263904  1
  O  O231  1  0.63098819  0.24417861  0.50231305  1
  O  O232  1  0.63939309  0.24197099  1.00664426  1
  O  O233  1  0.61964920  0.74606658  0.48257991  1
  O  O234  1  0.63208366  0.74076860  0.99085056  1
  O  O235  1  0.49050921  0.24786166  0.12700557  1
  O  O236  1  0.49783333  0.25906504  0.64002699  1
  O  O237  1  0.49120525  0.75526752  0.13401975  1
  O  O238  1  0.49367520  0.74900052  0.63643016  1
  O  O239  1  0.98710039  0.24271192  0.12457391  1
  O  O240  1  0.99556676  0.23690521  0.63037187  1
  O  O241  1  1.00184498  0.74966078  0.13482732  1
  O  O242  1  0.99026385  0.74479363  0.62433814  1
  O  O243  1  0.00522743  0.26092829  0.37499639  1
  O  O244  1  -0.00446290  0.25723331  0.86703602  1
  O  O245  1  0.00721253  0.76414079  0.36284570  1
  O  O246  1  0.01679522  0.75112973  0.87532896  1
  O  O247  1  0.50502591  0.25869852  0.36526487  1
  O  O248  1  0.49246377  0.26427747  0.86591446  1
  O  O249  1  0.50595166  0.74819100  0.36874317  1
  O  O250  1  0.50651137  0.75253689  0.86307086  1
  O  O251  1  0.24969863  0.12856538  0.48976661  1
  O  O252  1  0.24370798  0.13291559  0.99194035  1
  O  O253  1  0.25501926  0.62554337  0.48443645  1
  O  O254  1  0.24324201  0.63054168  0.99117222  1
  O  O255  1  0.74205460  0.13429410  0.49425566  1
  O  O256  1  0.74442709  0.12882259  0.99309211  1
  O  O257  1  0.74830899  0.62277102  0.49226588  1
  O  O258  1  0.74423901  0.63068095  0.98682779  1
  O  O259  1  0.23742891  0.36144590  -0.00519649  1
  O  O260  1  0.25852017  0.37820356  0.50727810  1
  O  O261  1  0.25019694  0.86705165  0.01137054  1
  O  O262  1  0.25124184  0.86894293  0.51641818  1
  O  O263  1  0.75578550  0.36461167  -0.00199482  1
  O  O264  1  0.74530474  0.35958064  0.49267080  1
  O  O265  1  0.75714283  0.86795750  0.00327342  1
  O  O266  1  0.76278416  0.88114946  0.50985461  1
  O  O267  1  0.13272085  0.49444120  0.24836573  1
  O  O268  1  0.11344574  0.48906985  0.73547519  1
  O  O269  1  0.11854112  0.98738278  0.24065468  1
  O  O270  1  0.13492498  0.99164877  0.74849694  1
  O  O271  1  0.62862194  0.49600373  0.24346998  1
  O  O272  1  0.62834323  0.48309343  0.75805458  1
  O  O273  1  0.62495385  0.98704373  0.24327916  1
  O  O274  1  0.63967909  1.00862267  0.74159471  1
  O  O275  1  0.40274408  0.00733256  0.26006709  1
  O  O276  1  0.37042514  0.00749093  0.75499025  1
  O  O277  1  0.37030203  0.50694950  0.25312941  1
  O  O278  1  0.37977305  0.50215423  0.76936713  1
  O  O279  1  0.86861104  0.00574426  0.25469755  1
  O  O280  1  0.86511970  0.00637731  0.75211327  1
  O  O281  1  0.87590782  0.49986258  0.26182606  1
  O  O282  1  0.88671156  0.51690947  0.76165132  1
  O  O283  1  0.11519706  0.36874632  0.36811656  1
  O  O284  1  0.11340522  0.38224908  0.86679892  1
  O  O285  1  0.11820317  0.87027283  0.36761363  1
  O  O286  1  0.13096221  0.86706042  0.86564419  1
  O  O287  1  0.62091717  0.37170356  0.36734970  1
  O  O288  1  0.61189436  0.37330762  0.86991845  1
  O  O289  1  0.63495577  0.86667162  0.37179808  1
  O  O290  1  0.61946280  0.86144399  0.87685739  1
  O  O291  1  0.38428456  0.13376161  0.12758384  1
  O  O292  1  0.36842630  0.12660702  0.63782592  1
  O  O293  1  0.36894546  0.63363878  0.13744688  1
  O  O294  1  0.36894433  0.63598268  0.62080946  1
  O  O295  1  0.87780570  0.12926209  0.12954430  1
  O  O296  1  0.88247432  0.13065953  0.63148776  1
  O  O297  1  0.87423536  0.62724827  0.11919585  1
  O  O298  1  0.88083746  0.63396561  0.63176831  1
  O  O299  1  0.26217368  0.24953071  0.11779249  1
  O  O300  1  0.25122165  0.26483676  0.62159959  1
  O  O301  1  0.26001296  0.75653102  0.12194733  1
  O  O302  1  0.26158289  0.75450156  0.62656111  1
  O  O303  1  0.76007544  0.24795153  0.11792137  1
  O  O304  1  0.76622522  0.24715408  0.62112374  1
  O  O305  1  0.75435180  0.75049735  0.12466950  1
  O  O306  1  0.76178886  0.76042952  0.63455418  1
  O  O307  1  0.23414850  0.26166743  0.37935995  1
  O  O308  1  0.25462896  0.24038721  0.88186716  1
  O  O309  1  0.23981227  0.74287047  0.37528484  1
  O  O310  1  0.24397457  0.74099126  0.87679981  1
  O  O311  1  0.74250574  0.24347423  0.38162512  1
  O  O312  1  0.75743939  0.23509443  0.88392849  1
  O  O313  1  0.74143406  0.75007646  0.37003279  1
  O  O314  1  0.74214550  0.74460862  0.87656350  1
  O  O315  1  0.00740569  0.11883167  0.00453589  1
  O  O316  1  0.00194797  0.12224205  0.50955974  1
  O  O317  1  0.00881878  0.61708146  -0.00043077  1
  O  O318  1  -0.00066600  0.61708455  0.51113707  1
  O  O319  1  0.50767509  0.13565199  0.00800701  1
  O  O320  1  0.51283578  0.13597758  0.50751897  1
  O  O321  1  0.51181445  0.62385090  -0.01006880  1
  O  O322  1  0.50224759  0.60850396  0.49707284  1
  O  O323  1  0.49464808  0.38383743  0.49635471  1
  O  O324  1  0.50441288  0.37355697  0.98628081  1
  O  O325  1  0.49213335  0.87299326  0.50636114  1
  O  O326  1  0.49805065  0.86205767  0.97625202  1
  O  O327  1  1.00298393  0.38203608  0.48488636  1
  O  O328  1  0.99791952  0.37942378  0.99388061  1
  O  O329  1  0.98886460  0.87638422  0.49164477  1
  O  O330  1  0.99543130  0.88169183  1.00022415  1
  O  O331  1  0.49178922  0.49374042  0.37652044  1
  O  O332  1  0.49160179  0.48487415  0.87732093  1
  O  O333  1  0.52676874  0.97955147  0.37193940  1
  O  O334  1  0.50432902  0.98267328  0.86404824  1
  O  O335  1  0.99508067  0.49224412  0.37718502  1
  O  O336  1  0.99591021  0.49387088  0.88582617  1
  O  O337  1  0.99326888  0.98785384  0.37167527  1
  O  O338  1  1.00319658  0.99797508  0.88878756  1
  O  O339  1  0.01058493  0.00295079  0.11503323  1
  O  O340  1  -0.00044118  0.01202060  0.62830085  1
  O  O341  1  0.00122076  0.50252646  0.11236619  1
  O  O342  1  -0.00505487  0.50588389  0.61472009  1
  O  O343  1  0.51174958  0.01065112  0.12336774  1
  O  O344  1  0.51560577  -0.00761904  0.63907422  1
  O  O345  1  0.51352655  0.49562683  0.12120610  1
  O  O346  1  0.49745221  0.49600760  0.61408985  1
  O  O347  1  0.24054749  0.38652624  0.25636677  1
  O  O348  1  0.23493190  0.36972630  0.74482874  1
  O  O349  1  0.24292084  0.86881002  0.23705025  1
  O  O350  1  0.24809334  0.88139802  0.74353477  1
  O  O351  1  0.73856793  0.37448219  0.24841405  1
  O  O352  1  0.73423131  0.36247201  0.76416373  1
  O  O353  1  0.75513568  0.88599423  0.23728564  1
  O  O354  1  0.75636120  0.88571143  0.74153401  1
  O  O355  1  0.25304587  0.13940738  0.26393426  1
  O  O356  1  0.25484615  0.12096717  0.75576296  1
  O  O357  1  0.25616989  0.61869454  0.25884661  1
  O  O358  1  0.24300455  0.62502645  0.76308186  1
  O  O359  1  0.74985521  0.11860418  0.25742188  1
  O  O360  1  0.75482398  0.12231922  0.75778376  1
  O  O361  1  0.75776229  0.63631867  0.23445457  1
  O  O362  1  0.76084125  0.63006803  0.76265880  1
  O  O363  1  0.40381342  0.11399669  0.36838820  1
  O  O364  1  0.36744909  0.12642324  0.86348976  1
  O  O365  1  0.36823410  0.62194565  0.36499924  1
  O  O366  1  0.36066664  0.62422685  0.87259209  1
  O  O367  1  0.86827820  0.12134044  0.36956985  1
  O  O368  1  0.86766346  0.12006122  0.86874946  1
  O  O369  1  0.88081477  0.61672697  0.36980121  1
  O  O370  1  0.87005665  0.62239811  0.86941924  1
  O  O371  1  0.11765522  0.37555716  0.14156140  1
  O  O372  1  0.12684945  0.37983591  0.63091558  1
  O  O373  1  0.13341744  0.88187798  0.13077321  1
  O  O374  1  0.13358189  0.87171330  0.63682126  1
  O  O375  1  0.62783610  0.38088233  0.13252669  1
  O  O376  1  0.62924591  0.38130574  0.64364552  1
  O  O377  1  0.63163974  0.88313890  0.11275675  1
  O  O378  1  0.63904275  0.88197647  0.61569413  1
  O  O379  1  0.12045306  0.25881018  0.26007761  1
  O  O380  1  0.11328634  0.25581283  0.74591228  1
  O  O381  1  0.11999333  0.76175033  0.25390940  1
  O  O382  1  0.12590115  0.75762662  0.75696807  1
  O  O383  1  0.62002263  0.25930377  0.25288421  1
  O  O384  1  0.61381223  0.25578288  0.74895550  1
  O  O385  1  0.61452158  0.75378637  0.26536885  1
  O  O386  1  0.61381375  0.74692134  0.75480166  1
  O  O387  1  0.38398813  0.25328499  0.23838365  1
  O  O388  1  0.38550902  0.24522978  0.74631049  1
  O  O389  1  0.38119159  0.74480157  0.24657058  1
  O  O390  1  0.38577832  0.74975766  0.73626779  1
  O  O391  1  0.87363877  0.24340175  0.24185541  1
  O  O392  1  0.88618069  0.24305339  0.74121983  1
  O  O393  1  0.88086466  0.75180763  0.24558115  1
  O  O394  1  0.87983252  0.74201482  0.74522771  1
  O  O395  1  0.38341717  0.49273779  0.49583899  1
  O  O396  1  0.37702789  0.50873863  0.98034337  1
  O  O397  1  0.37712961  0.98240488  0.50072277  1
  O  O398  1  0.37207597  0.99705787  0.99385075  1
  O  O399  1  0.88865913  0.50099861  0.48079124  1
  O  O400  1  0.88232328  0.49186301  0.99479870  1
  O  O401  1  0.87702380  0.99465654  0.49278635  1
  O  O402  1  0.88576505  0.99508640  0.99925883  1
  O  O403  1  0.12221387  0.00813750  0.00722973  1
  O  O404  1  0.11962459  0.00008641  0.50651572  1
  O  O405  1  0.11933048  0.50750454  0.00120642  1
  O  O406  1  0.11172914  0.49433812  0.51164997  1
  O  O407  1  0.62872994  0.00943388  0.00524795  1
  O  O408  1  0.62765492  0.01742808  0.51042848  1
  O  O409  1  0.62362124  0.50724129  0.00497065  1
  O  O410  1  0.61225091  0.49729115  0.49776455  1
  O  O411  1  0.37822241  0.36400577  0.12506517  1
  O  O412  1  0.36514305  0.37993629  0.62049478  1
  O  O413  1  0.36957124  0.86645679  0.12258123  1
  O  O414  1  0.37086135  0.86643806  0.61891791  1
  O  O415  1  0.87423859  0.36574632  0.11891544  1
  O  O416  1  0.89638614  0.35207203  0.62404595  1
  O  O417  1  0.86735405  0.88297379  0.11055366  1
  O  O418  1  0.87029033  0.86966047  0.61939450  1
  O  O419  1  0.11872340  0.14070671  0.37520862  1
  O  O420  1  0.13480044  0.12251704  0.88506784  1
  O  O421  1  0.13238168  0.63599711  0.36808674  1
  O  O422  1  0.13265798  0.62854426  0.88213624  1
  O  O423  1  0.62085902  0.13392021  0.38885956  1
  O  O424  1  0.63118211  0.12258298  0.88664919  1
  O  O425  1  0.62673652  0.63625730  0.37257286  1
  O  O426  1  0.63232711  0.62994641  0.87676738  1
