# generated using pymatgen
data_V85Zn86O256
_symmetry_space_group_name_H-M   'P 1'
_cell_length_a   16.95025677
_cell_length_b   16.94846417
_cell_length_c   16.95793272
_cell_angle_alpha   89.93865224
_cell_angle_beta   90.01732966
_cell_angle_gamma   90.01373890
_symmetry_Int_Tables_number   1
_chemical_formula_structural   V85Zn86O256
_chemical_formula_sum   'V85 Zn86 O256'
_cell_volume   4871.68565263
_cell_formula_units_Z   1
loop_
 _symmetry_equiv_pos_site_id
 _symmetry_equiv_pos_as_xyz
  1  'x, y, z'
loop_
 _atom_site_type_symbol
 _atom_site_label
 _atom_site_symmetry_multiplicity
 _atom_site_fract_x
 _atom_site_fract_y
 _atom_site_fract_z
 _atom_site_occupancy
  V  V0  1  0.50348721  0.12047129  0.12515199  1
  V  V1  1  0.62494798  0.49556542  0.61910832  1
  V  V2  1  0.75104260  0.76046978  -0.00578041  1
  V  V3  1  0.37028295  0.75393027  0.60770369  1
  V  V4  1  0.25145905  0.25027328  0.49631231  1
  V  V5  1  0.12648876  0.50288758  0.62245936  1
  V  V6  1  0.76459131  0.36782735  0.62526380  1
  V  V7  1  0.74737554  0.12095867  0.87482241  1
  V  V8  1  0.50101036  0.75169926  0.24012223  1
  V  V9  1  0.50127257  0.12375545  0.62536370  1
  V  V10  1  0.74063725  0.62694740  0.87485769  1
  V  V11  1  0.26351931  0.87096220  0.11872360  1
  V  V12  1  0.62643350  0.88583978  0.24775646  1
  V  V13  1  0.00652483  0.13070854  0.11612410  1
  V  V14  1  0.49992380  0.37425844  0.87482579  1
  V  V15  1  0.25030928  0.62569481  0.87462026  1
  V  V16  1  0.37129111  -0.00783769  0.87792640  1
  V  V17  1  0.48646502  0.87949492  0.38076287  1
  V  V18  1  0.37082202  0.11714414  0.75344645  1
  V  V19  1  0.24876885  0.37365636  0.12541552  1
  V  V20  1  0.24487011  0.24276208  -0.00114473  1
  V  V21  1  0.87015934  0.12911769  0.74938801  1
  V  V22  1  0.62628163  0.37420380  0.25755784  1
  V  V23  1  -0.00223117  0.63177906  0.62259355  1
  V  V24  1  0.62183610  0.24886400  0.87710829  1
  V  V25  1  0.50239935  0.50028603  -0.00094175  1
  V  V26  1  -0.00699993  0.12644947  0.62949895  1
  V  V27  1  0.50203213  0.86516370  0.87342653  1
  V  V28  1  0.49838082  0.24960457  0.75253418  1
  V  V29  1  0.76373326  0.01576512  0.25725495  1
  V  V30  1  -0.00929567  -0.00740043  0.00212267  1
  V  V31  1  0.50407903  0.25082938  0.25534113  1
  V  V32  1  0.37623291  0.49990108  0.87222277  1
  V  V33  1  0.37032485  0.12114848  0.25429143  1
  V  V34  1  0.37458776  0.37364088  -0.00057856  1
  V  V35  1  -0.04992186  0.19579770  0.29285577  1
  V  V36  1  0.12296765  0.49900827  0.12507133  1
  V  V37  1  0.11609409  0.25010709  0.87556054  1
  V  V38  1  0.12954514  0.88055990  0.75176248  1
  V  V39  1  0.75164850  0.37647117  0.12356230  1
  V  V40  1  0.12889590  0.00235621  0.63083664  1
  V  V41  1  -0.00214514  0.62994000  0.12678016  1
  V  V42  1  0.25116282  0.50096546  0.75037081  1
  V  V43  1  0.12642344  0.86614245  0.24215291  1
  V  V44  1  0.26273669  0.75112421  0.00147478  1
  V  V45  1  0.12676320  0.63258529  0.49866586  1
  V  V46  1  0.38033330  0.63671154  0.74811612  1
  V  V47  1  0.75647779  0.25106030  0.49284801  1
  V  V48  1  0.24975905  0.37697136  0.62710947  1
  V  V49  1  0.62460724  0.11608419  0.00228898  1
  V  V50  1  0.49758479  -0.00901767  0.00190377  1
  V  V51  1  0.12708323  0.75482782  0.36757799  1
  V  V52  1  0.62155953  0.85999999  0.75108889  1
  V  V53  1  0.12325812  0.75118740  0.87575991  1
  V  V54  1  0.11912579  0.37021831  0.24994181  1
  V  V55  1  0.62613177  0.13226484  0.48864296  1
  V  V56  1  0.87105066  0.62657676  0.75068596  1
  V  V57  1  0.75001161  0.50339298  0.25061041  1
  V  V58  1  0.87861585  0.37400305  -0.01018851  1
  V  V59  1  0.37446312  0.25170973  0.62805628  1
  V  V60  1  0.74852118  0.24837081  0.00032569  1
  V  V61  1  -0.00085433  0.49855751  -0.00918681  1
  V  V62  1  0.12356194  0.62599090  -0.00015443  1
  V  V63  1  0.75618672  0.87895401  0.13057918  1
  V  V64  1  -0.00009051  -0.00211844  0.49091719  1
  V  V65  1  0.37576657  0.62706585  0.24063612  1
  V  V66  1  0.50739829  0.63199853  0.61953064  1
  V  V67  1  0.74964965  -0.00565523  0.74467253  1
  V  V68  1  0.37588123  0.50065761  0.37345122  1
  V  V69  1  0.37588898  0.24956039  0.12416357  1
  V  V70  1  0.37823633  0.37895364  0.50032811  1
  V  V71  1  0.74728796  0.62834664  0.38998942  1
  V  V72  1  0.62537567  0.50563481  0.12411800  1
  V  V73  1  0.12755531  0.00078325  0.12056888  1
  V  V74  1  0.62135003  -0.00188434  0.62333914  1
  V  V75  1  -0.04999053  0.80237949  0.30190607  1
  V  V76  1  0.24310151  0.11874320  0.87549027  1
  V  V77  1  -0.00303939  0.75436250  0.74850357  1
  V  V78  1  0.87723063  0.62025080  0.25309072  1
  V  V79  1  -0.00253744  0.37751212  0.38103824  1
  V  V80  1  0.87967491  0.24647329  0.12193455  1
  V  V81  1  0.13123075  0.24113318  0.37133428  1
  V  V82  1  0.11513095  0.37664163  0.75439755  1
  V  V83  1  0.62303938  0.74713692  0.38328778  1
  V  V84  1  0.25185827  0.62915796  0.37785240  1
  Zn  Zn85  1  -0.00879535  0.25573314  0.74951458  1
  Zn  Zn86  1  0.12792647  0.12812023  0.50664344  1
  Zn  Zn87  1  0.62409891  0.63162513  -0.00393234  1
  Zn  Zn88  1  0.49751225  0.63055039  0.12041467  1
  Zn  Zn89  1  0.29630394  0.07997804  0.41396934  1
  Zn  Zn90  1  0.85978178  0.74999646  0.60891046  1
  Zn  Zn91  1  0.47651298  0.00154516  0.49671197  1
  Zn  Zn92  1  0.25009863  0.49912385  0.24899908  1
  Zn  Zn93  1  0.87766810  0.75449570  0.12318487  1
  Zn  Zn94  1  0.25739395  0.87716522  0.62497570  1
  Zn  Zn95  1  0.88477812  0.87643523  0.50053523  1
  Zn  Zn96  1  0.62586034  0.37542246  0.74865189  1
  Zn  Zn97  1  0.86822899  0.49422209  0.38435162  1
  Zn  Zn98  1  0.87337758  0.49966513  0.87209193  1
  Zn  Zn99  1  -0.00893871  0.87057233  0.88166359  1
  Zn  Zn100  1  -0.00435350  0.49625058  0.50419147  1
  Zn  Zn101  1  0.86771054  -0.00781128  0.88020821  1
  Zn  Zn102  1  0.25963120  -0.00850027  0.25155366  1
  Zn  Zn103  1  0.50464083  0.37565601  0.37716174  1
  Zn  Zn104  1  0.74783243  0.86973706  0.59464553  1
  Zn  Zn105  1  0.74780536  0.49910028  0.74954248  1
  Zn  Zn106  1  0.50587910  0.50681166  0.49548300  1
  Zn  Zn107  1  0.18578187  0.18540478  0.18720522  1
  Zn  Zn108  1  0.18666832  0.18880485  0.69174110  1
  Zn  Zn109  1  0.19165065  0.68630823  0.18546675  1
  Zn  Zn110  1  0.18795264  0.69125929  0.68785262  1
  Zn  Zn111  1  0.68605958  0.18882774  0.18606045  1
  Zn  Zn112  1  0.68594139  0.18924886  0.68638249  1
  Zn  Zn113  1  0.69018933  0.69424508  0.19053659  1
  Zn  Zn114  1  0.68907721  0.68798676  0.68168759  1
  Zn  Zn115  1  0.31382348  0.31281360  0.31078987  1
  Zn  Zn116  1  0.30861639  0.31037803  0.81342876  1
  Zn  Zn117  1  0.31247637  0.80554365  0.30328321  1
  Zn  Zn118  1  0.31071635  0.81342404  0.81269715  1
  Zn  Zn119  1  0.80866438  0.31211513  0.31417919  1
  Zn  Zn120  1  0.80768650  0.31096197  0.81162582  1
  Zn  Zn121  1  0.78016612  0.84632482  0.36977778  1
  Zn  Zn122  1  0.81201601  0.81380271  0.80931309  1
  Zn  Zn123  1  0.18677691  0.43902053  0.43638886  1
  Zn  Zn124  1  0.18687874  0.43516048  0.93718273  1
  Zn  Zn125  1  0.29571732  0.91977680  0.44272225  1
  Zn  Zn126  1  0.18291423  0.93640955  0.94114175  1
  Zn  Zn127  1  0.69210474  0.43758858  0.44160546  1
  Zn  Zn128  1  0.68888575  0.43912123  0.93552334  1
  Zn  Zn129  1  0.67428349  0.94958367  0.43389768  1
  Zn  Zn130  1  0.68621518  0.93361052  0.93562768  1
  Zn  Zn131  1  0.31469465  0.06008449  0.06278244  1
  Zn  Zn132  1  0.30989267  0.06105549  0.57653384  1
  Zn  Zn133  1  0.31091753  0.56060963  0.05995716  1
  Zn  Zn134  1  0.31419979  0.56706739  0.56130858  1
  Zn  Zn135  1  0.81058243  0.06113823  0.07283718  1
  Zn  Zn136  1  0.81147873  0.05860201  0.55707968  1
  Zn  Zn137  1  0.81285637  0.56642798  0.05931974  1
  Zn  Zn138  1  0.81577162  0.55557776  0.56332578  1
  Zn  Zn139  1  0.43917698  0.43865832  0.18715428  1
  Zn  Zn140  1  0.44144756  0.44267142  0.68690733  1
  Zn  Zn141  1  0.44170334  0.93847386  0.18821081  1
  Zn  Zn142  1  0.43854089  0.93503145  0.68944370  1
  Zn  Zn143  1  0.93829656  0.43688697  0.18603120  1
  Zn  Zn144  1  0.93732875  0.44375391  0.68567330  1
  Zn  Zn145  1  0.93544143  0.94768761  0.18826533  1
  Zn  Zn146  1  0.93458693  0.93583890  0.68262979  1
  Zn  Zn147  1  0.12273385  0.02089242  0.35045594  1
  Zn  Zn148  1  0.05826245  0.06293214  0.81571396  1
  Zn  Zn149  1  0.06396651  0.56049849  0.31118954  1
  Zn  Zn150  1  0.06145804  0.56530758  0.81042674  1
  Zn  Zn151  1  0.55852711  0.06048830  0.31255304  1
  Zn  Zn152  1  0.56071492  0.05719139  0.81331378  1
  Zn  Zn153  1  0.56214670  0.56503004  0.31168737  1
  Zn  Zn154  1  0.56339485  0.56340734  0.80484903  1
  Zn  Zn155  1  0.44410318  0.19342743  0.43912409  1
  Zn  Zn156  1  0.43456648  0.18257898  0.93874656  1
  Zn  Zn157  1  0.44043234  0.68950716  0.43358493  1
  Zn  Zn158  1  0.43973596  0.68386329  0.93653734  1
  Zn  Zn159  1  0.93770795  0.18746170  0.45569398  1
  Zn  Zn160  1  0.93572412  0.17904310  0.93761034  1
  Zn  Zn161  1  0.93448041  0.68244029  0.44215772  1
  Zn  Zn162  1  0.93068337  0.68934089  0.93693229  1
  Zn  Zn163  1  0.06241469  0.31412391  0.05786335  1
  Zn  Zn164  1  0.06392221  0.30878407  0.56576840  1
  Zn  Zn165  1  0.06544392  0.81189050  0.06200752  1
  Zn  Zn166  1  0.11775717  0.85371059  0.51717575  1
  Zn  Zn167  1  0.56410008  0.31259608  0.06670578  1
  Zn  Zn168  1  0.56413439  0.31253973  0.56285127  1
  Zn  Zn169  1  0.57070345  0.81408979  0.06287375  1
  Zn  Zn170  1  0.55807531  0.81286653  0.56335318  1
  O  O171  1  0.11888548  0.11486008  0.12829235  1
  O  O172  1  0.11570425  0.11683133  0.63605140  1
  O  O173  1  0.11926001  0.61825527  0.12050373  1
  O  O174  1  0.12233679  0.62434358  0.61590009  1
  O  O175  1  0.61135269  0.13058501  0.11588287  1
  O  O176  1  0.61162425  0.12042106  0.62436469  1
  O  O177  1  0.62637904  0.61301169  0.12732851  1
  O  O178  1  0.61110000  0.61916857  0.62985066  1
  O  O179  1  0.37566372  0.38380127  0.38213360  1
  O  O180  1  0.37827805  0.37953613  0.88024872  1
  O  O181  1  0.38167760  0.87036813  0.37154688  1
  O  O182  1  0.38098458  0.88702838  0.86642231  1
  O  O183  1  0.89510161  0.37246846  0.36572688  1
  O  O184  1  0.86957677  0.37546252  0.88636569  1
  O  O185  1  0.89417279  0.86413573  0.35809765  1
  O  O186  1  0.87928648  0.88115253  0.86771819  1
  O  O187  1  0.23555201  -0.00302941  0.36623951  1
  O  O188  1  0.25644692  0.00747871  0.88449239  1
  O  O189  1  0.26114783  0.50576098  0.37264794  1
  O  O190  1  0.25603009  0.50582802  0.87165081  1
  O  O191  1  0.74212813  0.00053046  0.35551734  1
  O  O192  1  0.74465435  0.00568324  0.86468995  1
  O  O193  1  0.74735423  0.50941005  0.36769691  1
  O  O194  1  0.75253464  0.50990500  0.87154905  1
  O  O195  1  0.24037554  0.49148051  0.12232222  1
  O  O196  1  0.24557708  0.49806813  0.63022201  1
  O  O197  1  0.24508797  0.98923185  0.12412670  1
  O  O198  1  0.23315828  1.00257943  0.63623749  1
  O  O199  1  0.74430619  0.49591272  0.12835336  1
  O  O200  1  0.74297219  0.48638312  0.62524440  1
  O  O201  1  0.74996646  0.98939100  0.13821168  1
  O  O202  1  0.73862748  0.99559604  0.62783375  1
  O  O203  1  0.01333307  0.37723909  0.25649067  1
  O  O204  1  0.01084501  0.37508950  0.74564191  1
  O  O205  1  0.00522866  0.86615173  0.23933060  1
  O  O206  1  0.00627261  0.86241983  0.74838474  1
  O  O207  1  0.50872080  0.36804516  0.24772776  1
  O  O208  1  0.49708937  0.36746519  0.75825086  1
  O  O209  1  0.50534001  0.86991705  0.25618606  1
  O  O210  1  0.51358315  0.88059488  0.75821340  1
  O  O211  1  0.49556893  0.13146933  0.24265289  1
  O  O212  1  0.49222321  0.12947150  0.74600433  1
  O  O213  1  0.49307608  0.63322969  0.24672521  1
  O  O214  1  0.48978144  0.61988068  0.73537327  1
  O  O215  1  1.00073972  0.13142665  0.23488673  1
  O  O216  1  0.98810727  0.12487203  0.74529653  1
  O  O217  1  0.98771939  0.61266817  0.24081270  1
  O  O218  1  0.99345167  0.63312874  0.74526235  1
  O  O219  1  0.36765581  0.25377370  0.00460648  1
  O  O220  1  0.37015210  0.25780077  0.50606452  1
  O  O221  1  0.36161507  0.74148378  -0.00223685  1
  O  O222  1  0.37415062  0.74876636  0.50899703  1
  O  O223  1  0.87056021  0.25554463  0.00268810  1
  O  O224  1  0.85564735  0.24421207  0.50621890  1
  O  O225  1  0.85736245  0.74566246  0.00610801  1
  O  O226  1  0.88253715  0.76142215  0.49653536  1
  O  O227  1  0.13614169  0.25011592  0.49425563  1
  O  O228  1  0.13593543  0.25612599  0.99042426  1
  O  O229  1  0.11847027  0.73720839  0.48390089  1
  O  O230  1  0.13084874  0.74296664  0.99293375  1
  O  O231  1  0.62791106  0.23700688  0.50410932  1
  O  O232  1  0.62801403  0.24063348  0.99663864  1
  O  O233  1  0.61518695  0.75425843  0.48188584  1
  O  O234  1  0.64401304  0.74650075  1.00629207  1
  O  O235  1  0.49364494  0.24339282  0.13116099  1
  O  O236  1  0.49317857  0.24318159  0.63157720  1
  O  O237  1  0.50524694  0.75026094  0.13535610  1
  O  O238  1  0.48979925  0.73896388  0.62261088  1
  O  O239  1  0.99412081  0.24355629  0.11655441  1
  O  O240  1  1.00631474  0.23284771  0.63058722  1
  O  O241  1  0.99955522  0.73364620  0.11680617  1
  O  O242  1  1.00269368  0.73584947  0.63576476  1
  O  O243  1  0.00781159  0.25386677  0.36815576  1
  O  O244  1  0.01316245  0.24096511  0.87484719  1
  O  O245  1  0.00737507  0.73972726  0.36195997  1
  O  O246  1  0.00575516  0.74770231  0.86820092  1
  O  O247  1  0.49811111  0.25601432  0.35942764  1
  O  O248  1  0.50125916  0.25330039  0.87265221  1
  O  O249  1  0.50526729  0.75846703  0.36493248  1
  O  O250  1  0.49475077  0.76616845  0.88229160  1
  O  O251  1  0.24977359  0.13789566  0.50532286  1
  O  O252  1  0.25619838  0.13504736  0.99221194  1
  O  O253  1  0.24360809  0.62151302  0.48609166  1
  O  O254  1  0.24316625  0.62981648  0.99464021  1
  O  O255  1  0.73489130  0.13569843  0.50788912  1
  O  O256  1  0.74100958  0.12654072  0.99891839  1
  O  O257  1  0.75295296  0.62163145  0.48842064  1
  O  O258  1  0.74746473  0.63249578  0.99057648  1
  O  O259  1  0.25620644  0.36591137  0.00442497  1
  O  O260  1  0.25972680  0.37088268  0.50605630  1
  O  O261  1  0.24790602  0.86621184  0.01014196  1
  O  O262  1  0.22860778  0.87123632  0.51462506  1
  O  O263  1  0.75655800  0.36911996  0.00519919  1
  O  O264  1  0.74401417  0.36172642  0.51284852  1
  O  O265  1  0.74448249  0.86845971  0.01137825  1
  O  O266  1  0.75881988  0.88786718  0.47750526  1
  O  O267  1  0.12849669  0.49128188  0.24201560  1
  O  O268  1  0.13109703  0.49467801  0.74601898  1
  O  O269  1  0.12667123  0.98113379  0.23828685  1
  O  O270  1  0.11466158  0.99103451  0.74531713  1
  O  O271  1  0.62891425  0.49474393  0.24192863  1
  O  O272  1  0.62679558  0.49655967  0.73603954  1
  O  O273  1  0.62007179  0.98737727  0.24899266  1
  O  O274  1  0.63087077  1.00137060  0.73715983  1
  O  O275  1  0.37775776  0.01687570  0.24695411  1
  O  O276  1  0.37908613  0.01049651  0.75833591  1
  O  O277  1  0.37450326  0.50528070  0.25779271  1
  O  O278  1  0.36909823  0.50712067  0.75442346  1
  O  O279  1  0.86396047  0.00638508  0.25233025  1
  O  O280  1  0.85990613  0.00839892  0.74701404  1
  O  O281  1  0.86728194  0.50372414  0.25313438  1
  O  O282  1  0.87412235  0.51410769  0.75145618  1
  O  O283  1  0.11980662  0.36579056  0.36841443  1
  O  O284  1  0.13072072  0.36529377  0.86474851  1
  O  O285  1  0.12330467  0.85767226  0.36213855  1
  O  O286  1  0.11817504  0.86916196  0.86928282  1
  O  O287  1  0.62439609  0.38322677  0.36093096  1
  O  O288  1  0.61840690  0.36732813  0.87442420  1
  O  O289  1  0.61437399  0.86730360  0.36453209  1
  O  O290  1  0.61628594  0.87964886  0.86007580  1
  O  O291  1  0.38492636  0.13012366  0.13153663  1
  O  O292  1  0.38351098  0.12957230  0.63548796  1
  O  O293  1  0.37555016  0.61595237  0.13717265  1
  O  O294  1  0.38189607  0.63367788  0.63011934  1
  O  O295  1  0.88317870  0.14029713  0.11921132  1
  O  O296  1  0.88547846  0.11955741  0.63250091  1
  O  O297  1  0.88238337  0.62441286  0.13320675  1
  O  O298  1  0.88198135  0.62730360  0.63169384  1
  O  O299  1  0.25384620  0.25271719  0.11584802  1
  O  O300  1  0.25552230  0.25658108  0.61904022  1
  O  O301  1  0.24752942  0.76128620  0.11554396  1
  O  O302  1  0.26845649  0.74542411  0.62789621  1
  O  O303  1  0.75812895  0.25519654  0.11803309  1
  O  O304  1  0.74315134  0.26355120  0.62055302  1
  O  O305  1  0.75364696  0.76099017  0.11996583  1
  O  O306  1  0.74613028  0.75982823  0.62322651  1
  O  O307  1  0.24636288  0.25718679  0.38737978  1
  O  O308  1  0.24340988  0.24160438  0.88227885  1
  O  O309  1  0.24129238  0.73915220  0.36710084  1
  O  O310  1  0.24386479  0.74512562  0.88160055  1
  O  O311  1  0.74821121  0.25746760  0.39255005  1
  O  O312  1  0.74208743  0.24179875  0.88212283  1
  O  O313  1  0.73096186  0.74242852  0.36847866  1
  O  O314  1  0.75214583  0.74604978  0.88720739  1
  O  O315  1  0.00054406  0.11457991  0.01043614  1
  O  O316  1  0.00536336  0.12120817  0.51615566  1
  O  O317  1  0.00333186  0.61784098  0.00553572  1
  O  O318  1  0.00950522  0.62103810  0.50802614  1
  O  O319  1  0.50521799  0.11722179  0.00622995  1
  O  O320  1  0.50578290  0.12524948  0.50899865  1
  O  O321  1  0.50463183  0.61607915  0.00187530  1
  O  O322  1  0.49335057  0.62415635  0.51491288  1
  O  O323  1  0.48784190  0.37465867  0.49849719  1
  O  O324  1  0.49460387  0.37977369  0.99531874  1
  O  O325  1  0.49872953  0.87745423  0.48383136  1
  O  O326  1  0.51060689  0.88579023  0.99384283  1
  O  O327  1  1.00963318  0.37125522  0.48426377  1
  O  O328  1  0.99045688  0.38519292  1.00266090  1
  O  O329  1  1.01077401  0.89494760  0.50011922  1
  O  O330  1  1.00003860  0.88840821  1.00461528  1
  O  O331  1  0.48897212  0.49961657  0.37632405  1
  O  O332  1  0.49641696  0.49493885  0.87952996  1
  O  O333  1  0.49897668  0.98315785  0.37569880  1
  O  O334  1  0.49134591  0.99380648  0.88274443  1
  O  O335  1  1.00540072  0.48376195  0.37663635  1
  O  O336  1  0.99769080  0.50592241  0.88715707  1
  O  O337  1  1.01764897  1.01251107  0.39369971  1
  O  O338  1  1.00108108  1.00191451  0.89516605  1
  O  O339  1  0.00522119  0.00789113  0.11778815  1
  O  O340  1  0.00603844  0.01267165  0.62633109  1
  O  O341  1  0.00552033  0.50717999  0.11520866  1
  O  O342  1  0.01040199  0.51311955  0.62791457  1
  O  O343  1  0.49613459  0.00838378  0.11501510  1
  O  O344  1  0.50094072  0.00738769  0.61995240  1
  O  O345  1  0.50863508  0.50074850  0.11661715  1
  O  O346  1  0.50606019  0.51051663  0.62028468  1
  O  O347  1  0.24221412  0.37603522  0.24221571  1
  O  O348  1  0.24369850  0.38140091  0.74494367  1
  O  O349  1  0.24445506  0.87113673  0.23491408  1
  O  O350  1  0.23318524  0.86763811  0.74635838  1
  O  O351  1  0.74418822  0.38071786  0.24352673  1
  O  O352  1  0.74770752  0.37483905  0.73809111  1
  O  O353  1  0.73679126  0.88059721  0.25086827  1
  O  O354  1  0.73362446  0.88384519  0.75238128  1
  O  O355  1  0.26784393  0.12477748  0.24372477  1
  O  O356  1  0.26161602  0.13130116  0.76101720  1
  O  O357  1  0.25827771  0.62184018  0.25732601  1
  O  O358  1  0.25593104  0.61953702  0.75604336  1
  O  O359  1  0.74572229  0.11441024  0.24299787  1
  O  O360  1  0.75203318  0.11757035  0.75223228  1
  O  O361  1  0.76171117  0.62137919  0.25156575  1
  O  O362  1  0.75613884  0.62594846  0.75621530  1
  O  O363  1  0.38061517  0.13487595  0.35870080  1
  O  O364  1  0.36692535  0.11571647  0.87002591  1
  O  O365  1  0.36964432  0.61972848  0.36789092  1
  O  O366  1  0.37207575  0.61848991  0.86647625  1
  O  O367  1  0.89395905  0.14536951  0.35635039  1
  O  O368  1  0.86493155  0.11580378  0.86865411  1
  O  O369  1  0.86664527  0.62180279  0.36651514  1
  O  O370  1  0.86373438  0.62442437  0.86668778  1
  O  O371  1  0.12802273  0.37767941  0.13152630  1
  O  O372  1  0.13087245  0.38109213  0.63254253  1
  O  O373  1  0.13364617  0.87868002  0.12744344  1
  O  O374  1  0.11947894  0.89217150  0.63567055  1
  O  O375  1  0.63148922  0.38622627  0.13058520  1
  O  O376  1  0.62504939  0.38288758  0.62867124  1
  O  O377  1  0.63421280  0.87115768  0.14224436  1
  O  O378  1  0.61923506  0.88330177  0.63312065  1
  O  O379  1  0.13328244  0.25816657  0.25858791  1
  O  O380  1  0.12420229  0.26062215  0.75906836  1
  O  O381  1  0.12610725  0.75694368  0.24900007  1
  O  O382  1  0.11696398  0.75426091  0.75685446  1
  O  O383  1  0.61620676  0.26202599  0.24016285  1
  O  O384  1  0.61416488  0.24910561  0.75869315  1
  O  O385  1  0.61605969  0.75877969  0.25698234  1
  O  O386  1  0.62270602  0.76243879  0.74803064  1
  O  O387  1  0.38192710  0.24368677  0.24205268  1
  O  O388  1  0.37977296  0.24211059  0.74742367  1
  O  O389  1  0.38672086  0.73814252  0.25073746  1
  O  O390  1  0.37320953  0.73801141  0.75085738  1
  O  O391  1  0.88093961  0.25555961  0.23968344  1
  O  O392  1  0.87374889  0.23444478  0.75740421  1
  O  O393  1  0.88542417  0.74132699  0.24835953  1
  O  O394  1  0.88239527  0.73998731  0.74807089  1
  O  O395  1  0.37580883  0.49352260  0.49273297  1
  O  O396  1  0.38209374  0.49477901  0.99299670  1
  O  O397  1  0.36034549  1.00825484  0.48975911  1
  O  O398  1  0.38587477  1.00414124  0.99012373  1
  O  O399  1  0.88258928  0.49765394  0.49614301  1
  O  O400  1  0.88237083  0.49142125  0.99968465  1
  O  O401  1  0.89437430  1.00151667  0.49949558  1
  O  O402  1  0.88763930  1.00392225  1.00476904  1
  O  O403  1  0.11506928  -0.00427639  0.01501903  1
  O  O404  1  0.11631556  0.00996877  0.52221081  1
  O  O405  1  0.11801042  0.50384991  0.00412151  1
  O  O406  1  0.12435760  0.51104726  0.50546605  1
  O  O407  1  0.61727073  0.01129561  -0.00528103  1
  O  O408  1  0.61971717  0.01476671  0.51200667  1
  O  O409  1  0.61889287  0.50065550  0.00741940  1
  O  O410  1  0.62256345  0.49621063  0.51238950  1
  O  O411  1  0.36978668  0.36997635  0.11949794  1
  O  O412  1  0.37080327  0.37266803  0.61933461  1
  O  O413  1  0.36194250  0.87910221  0.12770805  1
  O  O414  1  0.37664059  0.85850836  0.63076612  1
  O  O415  1  0.87228361  0.36570956  0.11571819  1
  O  O416  1  0.86354003  0.37505063  0.62902203  1
  O  O417  1  0.86091875  0.87328085  0.13603922  1
  O  O418  1  0.86757320  0.87243233  0.62007283  1
  O  O419  1  0.12768517  0.13877191  0.37728240  1
  O  O420  1  0.13718487  0.13191219  0.86800959  1
  O  O421  1  0.13297573  0.62866566  0.37684131  1
  O  O422  1  0.13121542  0.63028134  0.87942121  1
  O  O423  1  0.61538095  0.12319726  0.39066946  1
  O  O424  1  0.62673958  0.12904095  0.88283248  1
  O  O425  1  0.62971701  0.63800275  0.37026474  1
  O  O426  1  0.63646167  0.62278436  0.87227103  1
