# generated using pymatgen
data_V85Zn86O256
_symmetry_space_group_name_H-M   'P 1'
_cell_length_a   16.92228463
_cell_length_b   16.91707210
_cell_length_c   16.92597019
_cell_angle_alpha   89.98101146
_cell_angle_beta   89.96381517
_cell_angle_gamma   90.03669903
_symmetry_Int_Tables_number   1
_chemical_formula_structural   V85Zn86O256
_chemical_formula_sum   'V85 Zn86 O256'
_cell_volume   4845.48850882
_cell_formula_units_Z   1
loop_
 _symmetry_equiv_pos_site_id
 _symmetry_equiv_pos_as_xyz
  1  'x, y, z'
loop_
 _atom_site_type_symbol
 _atom_site_label
 _atom_site_symmetry_multiplicity
 _atom_site_fract_x
 _atom_site_fract_y
 _atom_site_fract_z
 _atom_site_occupancy
  V  V0  1  0.62935393  0.13922664  0.50175596  1
  V  V1  1  0.86801282  0.86967420  0.50050741  1
  V  V2  1  0.12376026  0.25003321  0.37729100  1
  V  V3  1  0.12724566  0.38344157  0.25495274  1
  V  V4  1  0.75224875  0.37659981  0.11244673  1
  V  V5  1  0.25186203  -0.00492385  0.25067002  1
  V  V6  1  0.74629193  0.87663345  0.62314493  1
  V  V7  1  0.75298616  0.74667494  -0.00338109  1
  V  V8  1  0.38030634  0.62388435  0.75127485  1
  V  V9  1  0.12363524  0.86980416  0.75646678  1
  V  V10  1  0.37589713  0.13428176  0.74513067  1
  V  V11  1  0.74026401  0.37629266  0.60974631  1
  V  V12  1  0.12515334  0.87709433  0.25762662  1
  V  V13  1  0.12334339  0.12394111  0.50508671  1
  V  V14  1  0.37781086  0.12656631  0.25043986  1
  V  V15  1  0.38503150  0.86226141  0.01296490  1
  V  V16  1  0.25202063  0.24632173  -0.00135516  1
  V  V17  1  0.12323348  0.00138269  0.12733210  1
  V  V18  1  0.74642386  0.14074143  0.37727677  1
  V  V19  1  0.25063980  0.87300926  0.62720238  1
  V  V20  1  0.62804553  0.87782380  0.74761016  1
  V  V21  1  0.75703014  0.87445483  0.12012440  1
  V  V22  1  0.50925513  -0.00103173  0.49506543  1
  V  V23  1  0.75244056  0.01243832  0.74534908  1
  V  V24  1  0.25090851  0.62406705  0.37671849  1
  V  V25  1  -0.00085963  0.74746102  0.25074487  1
  V  V26  1  0.38414645  0.38298883  0.00066739  1
  V  V27  1  0.62187600  0.62859717  0.50908158  1
  V  V28  1  0.37558807  0.37293266  0.50497597  1
  V  V29  1  0.87702990  0.74785456  0.11891471  1
  V  V30  1  0.37479331  0.50022392  0.37471508  1
  V  V31  1  0.37635162  0.25110807  0.12677274  1
  V  V32  1  0.50235852  0.87243916  0.86978837  1
  V  V33  1  0.50598967  0.13360144  0.12676533  1
  V  V34  1  0.00010767  0.12828159  0.12384833  1
  V  V35  1  0.50737827  0.38198294  0.86889371  1
  V  V36  1  0.75018744  0.49873301  0.74872916  1
  V  V37  1  0.87075763  0.00181707  0.37642784  1
  V  V38  1  0.87329411  0.26420541  0.62334392  1
  V  V39  1  -0.00292413  0.87354480  0.37895267  1
  V  V40  1  0.23628812  0.64093253  0.88491813  1
  V  V41  1  0.87303314  0.62276276  0.24938105  1
  V  V42  1  0.25394221  0.24888597  0.50439938  1
  V  V43  1  0.12646158  0.12244629  0.00003572  1
  V  V44  1  0.23412801  0.38570929  0.11350603  1
  V  V45  1  0.25120696  -0.00185446  0.75176497  1
  V  V46  1  0.49902154  0.50558117  0.50661378  1
  V  V47  1  -0.00126284  0.74482920  0.75523266  1
  V  V48  1  0.87042494  0.74679848  0.62710448  1
  V  V49  1  0.87621157  0.12778792  0.24978968  1
  V  V50  1  0.50408092  0.36399992  0.36846985  1
  V  V51  1  0.22004680  0.85521293  0.09040652  1
  V  V52  1  0.62827788  -0.00050071  0.12350065  1
  V  V53  1  0.62762091  0.75079903  0.37756840  1
  V  V54  1  0.87859736  0.25743635  0.11482912  1
  V  V55  1  0.01407648  0.61426381  0.11969305  1
  V  V56  1  0.61866686  0.62205296  -0.00457396  1
  V  V57  1  -0.00612682  -0.00522871  -0.00123367  1
  V  V58  1  0.24792468  0.49960293  0.75721845  1
  V  V59  1  0.50331206  0.00447158  -0.00083078  1
  V  V60  1  -0.00425091  0.62350241  0.63063609  1
  V  V61  1  0.25295624  0.12134855  0.87659634  1
  V  V62  1  -0.01444397  0.36292706  0.88069670  1
  V  V63  1  0.62681537  0.87709212  0.24898040  1
  V  V64  1  -0.01119896  0.87112471  0.87572674  1
  V  V65  1  0.50131525  0.12580143  0.62476180  1
  V  V66  1  0.25079420  0.37091553  0.63049804  1
  V  V67  1  -0.00135629  0.00067328  0.50449049  1
  V  V68  1  0.38296311  0.74539824  0.62529921  1
  V  V69  1  0.49877737  0.74974418  0.24145950  1
  V  V70  1  0.37678352  -0.00079294  0.87548249  1
  V  V71  1  0.12357311  0.62288090  0.50347556  1
  V  V72  1  0.11069977  0.36790802  0.75032503  1
  V  V73  1  -0.00862423  0.49559509  0.50255406  1
  V  V74  1  0.74737701  0.62584266  0.37963537  1
  V  V75  1  0.37504870  0.62826275  0.24161968  1
  V  V76  1  0.87800817  0.50742051  0.87948731  1
  V  V77  1  0.86743535  0.01343712  0.87477513  1
  V  V78  1  0.63000382  0.24424773  0.86417724  1
  V  V79  1  0.61468101  0.49921524  0.12091201  1
  V  V80  1  0.12352707  0.74918672  0.37927170  1
  V  V81  1  -0.01077544  0.37288530  0.37957384  1
  V  V82  1  -0.01020106  0.12981325  0.64039003  1
  V  V83  1  0.25145887  0.74878236  0.50302096  1
  V  V84  1  0.74417298  0.49763854  0.24801186  1
  Zn  Zn85  1  0.00242509  0.25281015  0.24668132  1
  Zn  Zn86  1  0.25134647  0.12455585  0.37629341  1
  Zn  Zn87  1  0.12226657  0.49801780  0.62682456  1
  Zn  Zn88  1  0.75496530  0.62850938  0.86384705  1
  Zn  Zn89  1  0.75040434  0.00068791  0.24979493  1
  Zn  Zn90  1  0.62301244  0.35823545  0.24619466  1
  Zn  Zn91  1  0.37760322  0.50450312  0.88127987  1
  Zn  Zn92  1  0.75457956  0.24610695  -0.01247021  1
  Zn  Zn93  1  0.11822019  0.24429845  0.87089754  1
  Zn  Zn94  1  0.37649007  0.87856668  0.49940601  1
  Zn  Zn95  1  0.49306314  0.62429013  0.11555520  1
  Zn  Zn96  1  0.50114519  0.25772374  0.74200062  1
  Zn  Zn97  1  0.49830697  0.87566200  0.37441979  1
  Zn  Zn98  1  0.50723440  0.74222090  0.74455513  1
  Zn  Zn99  1  0.37517923  -0.00046935  0.37831140  1
  Zn  Zn100  1  0.12363764  0.00041749  0.62824579  1
  Zn  Zn101  1  0.02047940  0.49190047  0.00385619  1
  Zn  Zn102  1  0.24834417  0.50258164  0.24654450  1
  Zn  Zn103  1  0.62896582  0.74873653  0.87209791  1
  Zn  Zn104  1  0.61748155  0.50058314  0.63509342  1
  Zn  Zn105  1  0.63417016  0.12591927  -0.00799175  1
  Zn  Zn106  1  0.86703648  0.49430039  0.37929257  1
  Zn  Zn107  1  0.19010801  0.19052668  0.18796632  1
  Zn  Zn108  1  0.18763852  0.18732055  0.68795379  1
  Zn  Zn109  1  0.18904803  0.69062687  0.19045188  1
  Zn  Zn110  1  0.18699535  0.68535300  0.69311254  1
  Zn  Zn111  1  0.69456160  0.18787227  0.18143084  1
  Zn  Zn112  1  0.68650545  0.19552612  0.68145208  1
  Zn  Zn113  1  0.68499399  0.68532716  0.18555134  1
  Zn  Zn114  1  0.69213861  0.68698574  0.68985729  1
  Zn  Zn115  1  0.31116444  0.31291508  0.31259463  1
  Zn  Zn116  1  0.31466493  0.31425431  0.81711192  1
  Zn  Zn117  1  0.31554615  0.81257373  0.31419109  1
  Zn  Zn118  1  0.31652079  0.80985734  0.81520853  1
  Zn  Zn119  1  0.81091593  0.31292812  0.30244509  1
  Zn  Zn120  1  0.81047685  0.31115188  0.79670161  1
  Zn  Zn121  1  0.81055304  0.80976894  0.30961430  1
  Zn  Zn122  1  0.81519799  0.81424740  0.80955873  1
  Zn  Zn123  1  0.18491477  0.43785817  0.44053832  1
  Zn  Zn124  1  0.18483699  0.43370478  0.93358518  1
  Zn  Zn125  1  0.19056528  0.93980316  0.43948060  1
  Zn  Zn126  1  0.18388764  0.92381941  0.93860417  1
  Zn  Zn127  1  0.68111337  0.43992801  0.43761435  1
  Zn  Zn128  1  0.68780783  0.43842153  0.93384229  1
  Zn  Zn129  1  0.68524283  0.94334135  0.43719987  1
  Zn  Zn130  1  0.69092421  0.93558475  0.93637979  1
  Zn  Zn131  1  0.31454453  0.05391276  0.06659572  1
  Zn  Zn132  1  0.31593543  0.06052768  0.56511123  1
  Zn  Zn133  1  0.30636010  0.56479141  0.05916350  1
  Zn  Zn134  1  0.31148724  0.55983958  0.56773668  1
  Zn  Zn135  1  0.81227364  0.06553341  0.05943448  1
  Zn  Zn136  1  0.81032740  0.06577181  0.56272261  1
  Zn  Zn137  1  0.81284847  0.56206616  0.05942846  1
  Zn  Zn138  1  0.80924800  0.56268001  0.56350875  1
  Zn  Zn139  1  0.43275720  0.43730666  0.18806784  1
  Zn  Zn140  1  0.43390316  0.43910925  0.68861040  1
  Zn  Zn141  1  0.44414537  0.94273864  0.19058849  1
  Zn  Zn142  1  0.43914945  0.94296949  0.68291857  1
  Zn  Zn143  1  0.93625812  0.43717342  0.19237348  1
  Zn  Zn144  1  0.92821230  0.43959916  0.69028702  1
  Zn  Zn145  1  0.93660333  0.93663354  0.18881578  1
  Zn  Zn146  1  0.93447906  0.93990363  0.68912179  1
  Zn  Zn147  1  0.06056387  0.06441601  0.31658688  1
  Zn  Zn148  1  0.06480847  0.05679102  0.81522215  1
  Zn  Zn149  1  0.05857921  0.56160051  0.31528673  1
  Zn  Zn150  1  0.06129805  0.55696720  0.81373662  1
  Zn  Zn151  1  0.56313809  0.18294449  0.31458804  1
  Zn  Zn152  1  0.56546899  0.06145708  0.80710155  1
  Zn  Zn153  1  0.56011971  0.56098910  0.31347427  1
  Zn  Zn154  1  0.56611953  0.55967733  0.81453752  1
  Zn  Zn155  1  0.43381361  0.18391355  0.44261336  1
  Zn  Zn156  1  0.44439155  0.19220428  0.93537015  1
  Zn  Zn157  1  0.44001400  0.69015956  0.43373192  1
  Zn  Zn158  1  0.43595931  0.68713981  0.93123699  1
  Zn  Zn159  1  0.93441526  0.18968065  0.44414282  1
  Zn  Zn160  1  0.93696039  0.18444419  0.93655501  1
  Zn  Zn161  1  0.93357304  0.68417336  0.44126598  1
  Zn  Zn162  1  0.94399771  0.68112698  0.94131947  1
  Zn  Zn163  1  0.07034608  0.32674378  0.05337327  1
  Zn  Zn164  1  0.05957844  0.31005439  0.56519307  1
  Zn  Zn165  1  0.05324787  0.81282497  0.06129008  1
  Zn  Zn166  1  0.06160328  0.81165791  0.56701903  1
  Zn  Zn167  1  0.56862632  0.31201145  0.05526657  1
  Zn  Zn168  1  0.55903409  0.31175747  0.56230058  1
  Zn  Zn169  1  0.56660871  0.81008880  0.06055749  1
  Zn  Zn170  1  0.56543248  0.81378685  0.56207200  1
  O  O171  1  0.11984520  0.12060237  0.12156186  1
  O  O172  1  0.11671786  0.12759913  0.61632198  1
  O  O173  1  0.11207761  0.62767681  0.13334537  1
  O  O174  1  0.11679475  0.62294254  0.61997805  1
  O  O175  1  0.61886770  0.11608012  0.12505933  1
  O  O176  1  0.62032453  0.12771479  0.61062572  1
  O  O177  1  0.62337308  0.61613016  0.11597009  1
  O  O178  1  0.62926107  0.62618310  0.61207883  1
  O  O179  1  0.37933080  0.38038039  0.38406191  1
  O  O180  1  0.38507399  0.37522730  0.88560453  1
  O  O181  1  0.37980584  0.87845538  0.38031980  1
  O  O182  1  0.38550215  0.88094781  0.88024518  1
  O  O183  1  0.88613896  0.37309113  0.36989071  1
  O  O184  1  0.88473453  0.37855888  0.86338322  1
  O  O185  1  0.87550335  0.87957860  0.38149287  1
  O  O186  1  0.88577192  0.88524964  0.87018977  1
  O  O187  1  0.25118312  0.00534587  0.36584112  1
  O  O188  1  0.25478859  0.00157486  0.87140817  1
  O  O189  1  0.26108760  0.50350548  0.37761100  1
  O  O190  1  0.25156303  0.49663012  0.86560631  1
  O  O191  1  0.76170825  0.00563549  0.37302760  1
  O  O192  1  0.76140271  -0.00430988  0.86637388  1
  O  O193  1  0.74686626  0.50655906  0.36588784  1
  O  O194  1  0.76037590  0.49832368  0.86589467  1
  O  O195  1  0.25130349  0.48744214  0.12725417  1
  O  O196  1  0.24650584  0.48788919  0.63584811  1
  O  O197  1  0.24056068  0.98186922  0.12937694  1
  O  O198  1  0.24894190  0.98985579  0.63266188  1
  O  O199  1  0.74472194  0.49476823  0.13050456  1
  O  O200  1  0.74903531  0.49359151  0.63087559  1
  O  O201  1  0.74946227  0.98957242  0.12541349  1
  O  O202  1  0.75846939  0.99134686  0.63811719  1
  O  O203  1  0.00874185  0.37292400  0.26096930  1
  O  O204  1  0.00812013  0.37735103  0.75271493  1
  O  O205  1  0.00285428  0.86835692  0.26004803  1
  O  O206  1  0.00470569  0.86812294  0.75448338  1
  O  O207  1  0.49604594  0.37754639  0.26600629  1
  O  O208  1  0.49081470  0.37440753  0.76395384  1
  O  O209  1  0.50950876  0.86866239  0.25102566  1
  O  O210  1  0.50987319  0.88018114  0.75428614  1
  O  O211  1  0.48671463  0.12577618  0.24098666  1
  O  O212  1  0.49234498  0.12173374  0.74086037  1
  O  O213  1  0.49185544  0.63155670  0.24920802  1
  O  O214  1  0.48580308  0.62342834  0.75721160  1
  O  O215  1  0.99092741  0.12707510  0.24655072  1
  O  O216  1  1.00937207  0.12164540  0.73742436  1
  O  O217  1  0.99376694  0.62890116  0.24436125  1
  O  O218  1  1.00452580  0.62932074  0.73916078  1
  O  O219  1  0.37091595  0.25259896  0.00954434  1
  O  O220  1  0.36147712  0.25701608  0.49683906  1
  O  O221  1  0.38311940  0.76331597  0.00124426  1
  O  O222  1  0.36895519  0.74980988  0.50738391  1
  O  O223  1  0.87500149  0.24516499  0.01134995  1
  O  O224  1  0.86884507  0.23140118  0.52512632  1
  O  O225  1  0.87130963  0.74248803  0.01174919  1
  O  O226  1  0.87967311  0.76340390  0.50773455  1
  O  O227  1  0.13237254  0.24536217  0.49474741  1
  O  O228  1  0.13534727  0.24156647  0.99628061  1
  O  O229  1  0.12944567  0.74319866  0.49809887  1
  O  O230  1  0.15495147  0.82043122  1.01169784  1
  O  O231  1  0.62242446  0.23834158  0.49674658  1
  O  O232  1  0.62768428  0.24797932  0.98202449  1
  O  O233  1  0.61915517  0.74278808  0.48901908  1
  O  O234  1  0.63539398  0.74209731  0.99708361  1
  O  O235  1  0.49327807  0.24015812  0.11757718  1
  O  O236  1  0.50042120  0.23546928  0.62501566  1
  O  O237  1  0.50792995  0.74558749  0.13769090  1
  O  O238  1  0.48669616  0.75561695  0.62596776  1
  O  O239  1  0.99643777  0.24613629  0.12315050  1
  O  O240  1  0.99007244  0.23875956  0.62328001  1
  O  O241  1  0.99421669  0.74081164  0.12753637  1
  O  O242  1  0.99157331  0.74279730  0.63087875  1
  O  O243  1  0.00643306  0.25597742  0.37884879  1
  O  O244  1  -0.00187710  0.25866541  0.87282267  1
  O  O245  1  0.00331972  0.75334751  0.37299904  1
  O  O246  1  -0.00615673  0.75622131  0.86851131  1
  O  O247  1  0.49414753  0.26018978  0.37688123  1
  O  O248  1  0.50958420  0.26066004  0.86898510  1
  O  O249  1  0.51249599  0.75191267  0.36374373  1
  O  O250  1  0.50131319  0.76324166  0.86812896  1
  O  O251  1  0.24285815  0.13270760  0.50413192  1
  O  O252  1  0.24825826  0.12668615  0.99900529  1
  O  O253  1  0.24364758  0.62748022  0.49717092  1
  O  O254  1  0.24823460  0.62513821  0.98481558  1
  O  O255  1  0.73667154  0.11900926  0.49291983  1
  O  O256  1  0.74693822  0.13165089  1.00142765  1
  O  O257  1  0.74074277  0.61951776  0.48615955  1
  O  O258  1  0.74352520  0.63628919  0.99969210  1
  O  O259  1  0.26174883  0.36289759  0.00213174  1
  O  O260  1  0.25385970  0.36955012  0.50844654  1
  O  O261  1  0.28039956  0.89253975  0.00234268  1
  O  O262  1  0.24986912  0.86910306  0.51137604  1
  O  O263  1  0.74862108  0.37315324  0.01014743  1
  O  O264  1  0.75249298  0.38895550  0.51089931  1
  O  O265  1  0.74631227  0.86243571  0.01141451  1
  O  O266  1  0.75744246  0.88293112  0.50859418  1
  O  O267  1  0.12756582  0.48735868  0.25801565  1
  O  O268  1  0.13078648  0.48557399  0.74902920  1
  O  O269  1  0.13115090  0.99896465  0.24840017  1
  O  O270  1  0.13374389  0.99030215  0.74810969  1
  O  O271  1  0.63322379  0.50163555  0.24153330  1
  O  O272  1  0.64075759  0.50163103  0.75032944  1
  O  O273  1  0.62931772  0.98358429  0.24163332  1
  O  O274  1  0.64037583  0.98836044  0.75563844  1
  O  O275  1  0.36773273  0.00711181  0.24937696  1
  O  O276  1  0.36893219  0.00501630  0.75711832  1
  O  O277  1  0.37281396  0.50768349  0.25970868  1
  O  O278  1  0.36482055  0.50726564  0.75220206  1
  O  O279  1  0.87598255  0.00745061  0.25922362  1
  O  O280  1  0.86231199  -0.00292873  0.76056028  1
  O  O281  1  0.86167763  0.50560920  0.25340250  1
  O  O282  1  0.86604615  0.49974585  0.76371389  1
  O  O283  1  0.11940381  0.36693229  0.37186092  1
  O  O284  1  0.10964165  0.37098447  0.86293768  1
  O  O285  1  0.11741505  0.87078708  0.37607097  1
  O  O286  1  0.10949862  0.88122169  0.86113474  1
  O  O287  1  0.60643256  0.37934607  0.37277172  1
  O  O288  1  0.61111698  0.37068125  0.87771672  1
  O  O289  1  0.62745911  0.86851335  0.36671583  1
  O  O290  1  0.61945653  0.87258791  0.86725069  1
  O  O291  1  0.38218764  0.13047701  0.12884724  1
  O  O292  1  0.38244205  0.12285428  0.63584853  1
  O  O293  1  0.37417344  0.61844598  0.13711885  1
  O  O294  1  0.36709541  0.63417791  0.63606618  1
  O  O295  1  0.88224863  0.12961749  0.13332062  1
  O  O296  1  0.88936045  0.11696187  0.62919139  1
  O  O297  1  0.88182827  0.63016239  0.13079142  1
  O  O298  1  0.88287303  0.63624948  0.61640899  1
  O  O299  1  0.25655612  0.25477867  0.11360039  1
  O  O300  1  0.24604226  0.26217941  0.61919352  1
  O  O301  1  0.25028046  0.77121929  0.13533875  1
  O  O302  1  0.25584629  0.75542018  0.62257200  1
  O  O303  1  0.76165906  0.26147764  0.12319845  1
  O  O304  1  0.75425764  0.26968823  0.62326389  1
  O  O305  1  0.75852373  0.75318276  0.11952696  1
  O  O306  1  0.76349089  0.75898714  0.62984177  1
  O  O307  1  0.24166562  0.24824872  0.38510504  1
  O  O308  1  0.25264163  0.24199812  0.88733439  1
  O  O309  1  0.24380674  0.74418401  0.38329784  1
  O  O310  1  0.24515799  0.74070098  0.87119992  1
  O  O311  1  0.75886994  0.23954929  0.37373004  1
  O  O312  1  0.73404222  0.26373173  0.86935163  1
  O  O313  1  0.73731558  0.74119651  0.36820578  1
  O  O314  1  0.75499907  0.74927398  0.88298002  1
  O  O315  1  0.00584771  0.11376705  0.00277170  1
  O  O316  1  0.00738658  0.11841243  0.50735456  1
  O  O317  1  0.00700895  0.61525541  0.01382324  1
  O  O318  1  0.00549488  0.61998019  0.50980578  1
  O  O319  1  0.50557464  0.11872841  0.00654857  1
  O  O320  1  0.50917973  0.11982354  0.50299986  1
  O  O321  1  0.51283845  0.63128071  -0.00203330  1
  O  O322  1  0.50757550  0.61672358  0.49337378  1
  O  O323  1  0.49075449  0.37953997  0.49159638  1
  O  O324  1  0.49145812  0.36886673  0.98875235  1
  O  O325  1  0.50138613  0.88838606  0.50252868  1
  O  O326  1  0.49817701  0.88065687  0.99178184  1
  O  O327  1  1.00665223  0.38367662  0.49276214  1
  O  O328  1  0.98779419  0.37101999  0.98275626  1
  O  O329  1  0.99272809  0.88110577  0.49802676  1
  O  O330  1  0.99700745  0.88682284  0.99203374  1
  O  O331  1  0.48850943  0.49273695  0.38328115  1
  O  O332  1  0.49782358  0.48659792  0.87488075  1
  O  O333  1  0.49872061  0.99928919  0.39184581  1
  O  O334  1  0.49947986  0.99215002  0.88070309  1
  O  O335  1  0.99659210  0.49076238  0.38377244  1
  O  O336  1  0.99079686  0.48963248  0.87864925  1
  O  O337  1  0.98885885  0.99545545  0.38244263  1
  O  O338  1  0.98954302  0.99461758  0.87999687  1
  O  O339  1  0.00149741  0.00523216  0.11741207  1
  O  O340  1  0.00240672  0.00736055  0.62133406  1
  O  O341  1  -0.00288370  0.51150772  0.12746736  1
  O  O342  1  -0.00193541  0.50695692  0.62100337  1
  O  O343  1  0.50644312  0.01126129  0.11751497  1
  O  O344  1  0.49737291  0.01379859  0.61257453  1
  O  O345  1  0.51130300  0.50010241  0.12917525  1
  O  O346  1  0.49910811  0.49503731  0.61175064  1
  O  O347  1  0.24301980  0.37801210  0.24388517  1
  O  O348  1  0.24557732  0.37892459  0.74644548  1
  O  O349  1  0.24336377  0.88649311  0.25814512  1
  O  O350  1  0.24300584  0.87554248  0.74706028  1
  O  O351  1  0.74413952  0.38411765  0.24182339  1
  O  O352  1  0.75496042  0.39118609  0.73278160  1
  O  O353  1  0.74510726  0.87319870  0.23740467  1
  O  O354  1  0.74537813  0.88078445  0.74234871  1
  O  O355  1  0.25918887  0.11311478  0.24475412  1
  O  O356  1  0.25672418  0.11934872  0.75448022  1
  O  O357  1  0.25648860  0.62449117  0.25817422  1
  O  O358  1  0.25520699  0.61589481  0.75755281  1
  O  O359  1  0.76296898  0.12213922  0.25585877  1
  O  O360  1  0.74253769  0.11047439  0.74083879  1
  O  O361  1  0.75232347  0.61889541  0.25715352  1
  O  O362  1  0.75346807  0.60938470  0.74663731  1
  O  O363  1  0.37154458  0.12565454  0.36383452  1
  O  O364  1  0.37239067  0.11790599  0.87077783  1
  O  O365  1  0.37063534  0.61745198  0.36927802  1
  O  O366  1  0.36306725  0.62367610  0.86780168  1
  O  O367  1  0.87221243  0.11886012  0.37023943  1
  O  O368  1  0.87792311  0.11194861  0.87001842  1
  O  O369  1  0.86434056  0.62574121  0.36861848  1
  O  O370  1  0.87701083  0.61172007  0.87637944  1
  O  O371  1  0.13418755  0.34980518  0.14836231  1
  O  O372  1  0.12926810  0.37460509  0.63587826  1
  O  O373  1  0.11829181  0.88318261  0.14202231  1
  O  O374  1  0.13472648  0.87392999  0.63511434  1
  O  O375  1  0.63153030  0.38248551  0.12491505  1
  O  O376  1  0.63521697  0.38009327  0.61654686  1
  O  O377  1  0.63354178  0.87826967  0.12935343  1
  O  O378  1  0.63834734  0.87180238  0.63025472  1
  O  O379  1  0.12570296  0.24891366  0.26781409  1
  O  O380  1  0.13112299  0.26434570  0.75311472  1
  O  O381  1  0.11827230  0.75599599  0.26032409  1
  O  O382  1  0.10993412  0.75695186  0.74435919  1
  O  O383  1  0.62476589  0.24562200  0.24660128  1
  O  O384  1  0.62065525  0.25101184  0.75878185  1
  O  O385  1  0.62078357  0.75834389  0.25376059  1
  O  O386  1  0.62522915  0.76138641  0.75028061  1
  O  O387  1  0.36528088  0.24298793  0.23489700  1
  O  O388  1  0.37620748  0.23698973  0.75608434  1
  O  O389  1  0.38542877  0.73997379  0.25658004  1
  O  O390  1  0.37686737  0.74165270  0.74232285  1
  O  O391  1  0.87982265  0.24181228  0.23944364  1
  O  O392  1  0.86783322  0.24371739  0.72455094  1
  O  O393  1  0.88058499  0.74337662  0.24087252  1
  O  O394  1  0.88833319  0.75394377  0.74039590  1
  O  O395  1  0.37819208  0.49395675  0.49491817  1
  O  O396  1  0.37223469  0.48668895  1.00177681  1
  O  O397  1  0.38713503  1.00108394  0.49924140  1
  O  O398  1  0.39197561  0.99852107  0.99542769  1
  O  O399  1  0.88780093  0.50781406  0.49643529  1
  O  O400  1  0.87195565  0.49872808  0.98234380  1
  O  O401  1  0.87845780  0.99217235  0.49398124  1
  O  O402  1  0.88093244  1.00255929  0.98608730  1
  O  O403  1  0.11699082  0.00277136  0.00606790  1
  O  O404  1  0.12025638  0.00848522  0.50386526  1
  O  O405  1  0.12307238  0.43824301  0.02533554  1
  O  O406  1  0.11487571  0.50717425  0.50322984  1
  O  O407  1  0.61669943  -0.00165608  0.00311305  1
  O  O408  1  0.61345680  0.00942765  0.49945029  1
  O  O409  1  0.63276363  0.51020778  0.00818707  1
  O  O410  1  0.61344131  0.51097896  0.49994612  1
  O  O411  1  0.36832093  0.36768224  0.11859267  1
  O  O412  1  0.36667606  0.37799495  0.61316757  1
  O  O413  1  0.38967496  0.87673071  0.11253212  1
  O  O414  1  0.36347753  0.86759898  0.62733460  1
  O  O415  1  0.86768504  0.36752425  0.13127144  1
  O  O416  1  0.87028706  0.36986714  0.61877671  1
  O  O417  1  0.86865802  0.86313304  0.12968251  1
  O  O418  1  0.86866137  0.86993777  0.61816634  1
  O  O419  1  0.12474669  0.13143965  0.38912516  1
  O  O420  1  0.13387089  0.12399135  0.88114257  1
  O  O421  1  0.12923180  0.62887109  0.38261548  1
  O  O422  1  0.13753709  0.62036697  0.87020190  1
  O  O423  1  0.63411941  0.12430005  0.38632343  1
  O  O424  1  0.61975373  0.14009517  0.87146257  1
  O  O425  1  0.62970938  0.63157313  0.37956998  1
  O  O426  1  0.63198890  0.62795279  0.88156009  1
