# generated using pymatgen
data_V85Zn86O256
_symmetry_space_group_name_H-M   'P 1'
_cell_length_a   16.92468797
_cell_length_b   16.91442943
_cell_length_c   16.92140613
_cell_angle_alpha   90.05238449
_cell_angle_beta   90.04858494
_cell_angle_gamma   89.98085881
_symmetry_Int_Tables_number   1
_chemical_formula_structural   V85Zn86O256
_chemical_formula_sum   'V85 Zn86 O256'
_cell_volume   4844.11126920
_cell_formula_units_Z   1
loop_
 _symmetry_equiv_pos_site_id
 _symmetry_equiv_pos_as_xyz
  1  'x, y, z'
loop_
 _atom_site_type_symbol
 _atom_site_label
 _atom_site_symmetry_multiplicity
 _atom_site_fract_x
 _atom_site_fract_y
 _atom_site_fract_z
 _atom_site_occupancy
  V  V0  1  0.61909894  0.25539909  0.37461853  1
  V  V1  1  0.87726953  0.87420003  0.00260866  1
  V  V2  1  0.13040927  0.87464382  0.74197789  1
  V  V3  1  0.24508267  0.61642399  0.37374237  1
  V  V4  1  0.36939873  0.61723766  0.25028550  1
  V  V5  1  0.62615974  0.37559270  0.74993752  1
  V  V6  1  0.87833409  0.37325049  0.00553061  1
  V  V7  1  0.75262748  -0.01124543  0.73955671  1
  V  V8  1  0.49752256  0.12619457  0.12381644  1
  V  V9  1  0.49554400  0.25401342  0.25105308  1
  V  V10  1  0.36406870  0.36898358  -0.00254892  1
  V  V11  1  0.62684140  0.24932878  0.87588194  1
  V  V12  1  0.25035664  0.74950621  -0.00003659  1
  V  V13  1  0.36249856  0.12039814  0.25006076  1
  V  V14  1  0.00604514  0.12908137  0.61664636  1
  V  V15  1  0.37591551  -0.00509420  0.87070348  1
  V  V16  1  0.50768173  0.61996123  0.12818056  1
  V  V17  1  0.37642773  0.74747394  0.12781995  1
  V  V18  1  0.87388193  0.62005530  0.25221709  1
  V  V19  1  0.13407935  0.50013346  0.63061849  1
  V  V20  1  0.61815334  0.50032565  0.61943003  1
  V  V21  1  -0.00495018  0.50282198  -0.00285408  1
  V  V22  1  0.50220432  0.75045462  0.26265035  1
  V  V23  1  0.24869073  0.61684066  0.86785697  1
  V  V24  1  0.61607198  0.62480700  0.49602560  1
  V  V25  1  0.12934291  0.24335355  0.37245555  1
  V  V26  1  0.75325971  0.12573873  0.87068197  1
  V  V27  1  0.38028196  0.87101933  -0.00241481  1
  V  V28  1  0.49797651  0.37396596  0.87605054  1
  V  V29  1  0.62554131  0.12468750  -0.00000214  1
  V  V30  1  0.87582227  0.00423611  0.37499312  1
  V  V31  1  0.37972419  -0.00880321  0.36902769  1
  V  V32  1  0.12781839  0.62016015  0.00480596  1
  V  V33  1  0.75054772  0.12738903  0.37459481  1
  V  V34  1  0.61594188  -0.00536701  0.61919713  1
  V  V35  1  0.87649774  0.00014751  0.87450755  1
  V  V36  1  0.74728934  0.38191241  0.12468397  1
  V  V37  1  0.12155434  0.61916832  0.49568378  1
  V  V38  1  0.25007728  -0.00146699  0.74489742  1
  V  V39  1  0.12804645  0.88074954  0.25335842  1
  V  V40  1  -0.00316253  0.37996500  0.87223913  1
  V  V41  1  0.12719715  0.75016353  0.87315152  1
  V  V42  1  0.00231055  0.87518568  0.87420252  1
  V  V43  1  0.74640822  0.63219564  0.37551067  1
  V  V44  1  0.75007091  0.25282272  0.49952210  1
  V  V45  1  0.36232310  0.24909222  0.12176688  1
  V  V46  1  0.50242867  0.49447888  0.00552540  1
  V  V47  1  0.24247146  0.75744073  0.49573528  1
  V  V48  1  0.74776593  0.87364159  0.12809611  1
  V  V49  1  0.39203944  0.87761337  0.49886793  1
  V  V50  1  0.87584978  0.74940901  0.12711304  1
  V  V51  1  0.87429729  0.49494400  0.39498365  1
  V  V52  1  0.00622431  0.74938396  0.25525099  1
  V  V53  1  0.74112924  0.75543232  0.50772400  1
  V  V54  1  -0.00081812  0.25543375  0.24532366  1
  V  V55  1  0.38622817  0.49359334  0.37909770  1
  V  V56  1  0.24906059  0.24732843  0.50734884  1
  V  V57  1  0.75754441  0.24797321  0.00766581  1
  V  V58  1  0.75365204  0.49853525  0.75789863  1
  V  V59  1  0.24679558  0.39202606  0.12883455  1
  V  V60  1  0.25084036  0.87980378  0.13035896  1
  V  V61  1  0.75176700  0.37748539  0.61944731  1
  V  V62  1  0.87544178  0.62204609  0.75749768  1
  V  V63  1  0.87522461  0.13149464  0.24474459  1
  V  V64  1  0.38601358  0.37188376  0.50294117  1
  V  V65  1  -0.00099056  0.75029510  0.74640784  1
  V  V66  1  -0.00416886  0.61715179  0.61982310  1
  V  V67  1  0.50213253  -0.00317263  -0.00771070  1
  V  V68  1  0.87449606  0.87472585  0.50636453  1
  V  V69  1  0.37591945  0.12655404  0.74236174  1
  V  V70  1  0.87753479  0.25601630  0.62529239  1
  V  V71  1  0.12828658  0.38965104  0.25148466  1
  V  V72  1  0.62025545  0.87143485  0.26158593  1
  V  V73  1  0.00365210  0.87254338  0.37800328  1
  V  V74  1  0.62475369  0.62217723  -0.00464649  1
  V  V75  1  0.13214833  0.13283080  0.00030996  1
  V  V76  1  0.37298678  0.61717928  0.74555895  1
  V  V77  1  0.49853707  0.24727193  0.74301536  1
  V  V78  1  0.37363366  0.75257411  0.62397051  1
  V  V79  1  0.62275373  -0.00156960  0.12731461  1
  V  V80  1  0.00606006  0.25093597  0.75222721  1
  V  V81  1  0.12860048  0.00326414  0.61539721  1
  V  V82  1  0.00457245  0.00093480  0.00380162  1
  V  V83  1  0.00458049  0.61886947  0.12768106  1
  V  V84  1  0.62062387  0.38137551  0.24637390  1
  Zn  Zn85  1  0.61745118  0.11998736  0.49676619  1
  Zn  Zn86  1  0.49802921  0.75297096  0.76267374  1
  Zn  Zn87  1  0.74584667  0.50153378  0.24970661  1
  Zn  Zn88  1  0.13455238  0.25688042  0.88018077  1
  Zn  Zn89  1  0.87846014  0.12551964  0.74820971  1
  Zn  Zn90  1  0.61227033  0.87352912  0.75362568  1
  Zn  Zn91  1  0.87206122  0.75322260  0.62771901  1
  Zn  Zn92  1  -0.00281933  0.13108751  0.12258926  1
  Zn  Zn93  1  0.00464647  0.38414508  0.38703439  1
  Zn  Zn94  1  0.49727019  0.12490246  0.61393507  1
  Zn  Zn95  1  0.25344105  0.13069724  0.87731514  1
  Zn  Zn96  1  0.25958594  0.37589171  0.62927763  1
  Zn  Zn97  1  0.75213738  0.62351274  0.87809544  1
  Zn  Zn98  1  0.74650589  0.00117826  0.25166800  1
  Zn  Zn99  1  0.13836506  0.38231251  0.75672756  1
  Zn  Zn100  1  0.00381836  0.00767482  0.49686913  1
  Zn  Zn101  1  0.24757259  0.11780423  0.37964380  1
  Zn  Zn102  1  0.49892839  0.62441978  0.62420791  1
  Zn  Zn103  1  0.74856559  0.74677347  -0.00036552  1
  Zn  Zn104  1  0.62286280  0.76163158  0.87521446  1
  Zn  Zn105  1  0.12941546  0.00405041  0.12874199  1
  Zn  Zn106  1  0.36784236  0.49351263  0.86866799  1
  Zn  Zn107  1  0.18265252  0.19266497  0.18446094  1
  Zn  Zn108  1  0.18878867  0.18776822  0.68946503  1
  Zn  Zn109  1  0.18797321  0.69050757  0.18982616  1
  Zn  Zn110  1  0.18988010  0.68695911  0.68128439  1
  Zn  Zn111  1  0.68607972  0.19093529  0.18804696  1
  Zn  Zn112  1  0.68474703  0.18362845  0.68598815  1
  Zn  Zn113  1  0.68523289  0.68854753  0.18634713  1
  Zn  Zn114  1  0.68472948  0.68712327  0.68932356  1
  Zn  Zn115  1  0.30901002  0.31378153  0.31298473  1
  Zn  Zn116  1  0.30689427  0.30780893  0.80914066  1
  Zn  Zn117  1  0.31192124  0.80743894  0.31678208  1
  Zn  Zn118  1  0.31488232  0.81040532  0.81037510  1
  Zn  Zn119  1  0.81191177  0.31431525  0.31127433  1
  Zn  Zn120  1  0.81741317  0.31431673  0.81412961  1
  Zn  Zn121  1  0.81409005  0.81206963  0.31540362  1
  Zn  Zn122  1  0.80839616  0.80791536  0.81730028  1
  Zn  Zn123  1  0.19197841  0.43613186  0.44059268  1
  Zn  Zn124  1  0.18279273  0.43825457  0.94096868  1
  Zn  Zn125  1  0.19147184  0.94047386  0.43109365  1
  Zn  Zn126  1  0.19054672  0.93980334  0.93610974  1
  Zn  Zn127  1  0.68757799  0.44029800  0.43395670  1
  Zn  Zn128  1  0.68599644  0.43811074  0.93964458  1
  Zn  Zn129  1  0.68879436  0.93789794  0.43880878  1
  Zn  Zn130  1  0.69167205  0.93612831  0.93743838  1
  Zn  Zn131  1  0.31353737  0.05891799  0.06253567  1
  Zn  Zn132  1  0.31472182  0.05888068  0.55905981  1
  Zn  Zn133  1  0.31850945  0.56078612  0.05784032  1
  Zn  Zn134  1  0.31304880  0.56269475  0.55621451  1
  Zn  Zn135  1  0.81238807  0.05913134  0.06368993  1
  Zn  Zn136  1  0.81490777  0.06925546  0.55981063  1
  Zn  Zn137  1  0.81403337  0.56022635  0.06395110  1
  Zn  Zn138  1  0.80498824  0.56844022  0.56817053  1
  Zn  Zn139  1  0.43298833  0.43729360  0.18850414  1
  Zn  Zn140  1  0.43709511  0.43641465  0.68742557  1
  Zn  Zn141  1  0.43899263  0.93682071  0.18801979  1
  Zn  Zn142  1  0.43511649  0.93264859  0.68184939  1
  Zn  Zn143  1  0.93861306  0.43661069  0.18783127  1
  Zn  Zn144  1  0.93932678  0.43927207  0.68499826  1
  Zn  Zn145  1  0.93784283  0.94003966  0.19057881  1
  Zn  Zn146  1  0.94165073  0.94168977  0.68614861  1
  Zn  Zn147  1  0.06005385  0.06478477  0.31193259  1
  Zn  Zn148  1  0.06479918  0.06505926  0.81192427  1
  Zn  Zn149  1  0.05682820  0.56141086  0.32007348  1
  Zn  Zn150  1  0.06084109  0.56310772  0.81218356  1
  Zn  Zn151  1  0.55736045  0.06526185  0.31368158  1
  Zn  Zn152  1  0.56560840  0.05734299  0.80918324  1
  Zn  Zn153  1  0.56143080  0.56411243  0.31453587  1
  Zn  Zn154  1  0.55786178  0.56337639  0.81013679  1
  Zn  Zn155  1  0.43348847  0.18686932  0.43500082  1
  Zn  Zn156  1  0.43406080  0.18642408  0.93334952  1
  Zn  Zn157  1  0.43197553  0.68728599  0.43778035  1
  Zn  Zn158  1  0.43806066  0.68251774  0.93444963  1
  Zn  Zn159  1  0.95548324  0.22742769  0.45456726  1
  Zn  Zn160  1  0.94131593  0.18907790  0.93713356  1
  Zn  Zn161  1  0.93402978  0.68863225  0.43883688  1
  Zn  Zn162  1  0.93785179  0.68949054  0.93694000  1
  Zn  Zn163  1  0.06470997  0.31616845  0.06778745  1
  Zn  Zn164  1  0.06783967  0.31862223  0.55890443  1
  Zn  Zn165  1  0.06441569  0.80980286  0.06590576  1
  Zn  Zn166  1  0.06244211  0.81019397  0.56219656  1
  Zn  Zn167  1  0.56137259  0.31039917  0.06472165  1
  Zn  Zn168  1  0.56293105  0.31096612  0.55994416  1
  Zn  Zn169  1  0.56143803  0.80736680  0.06390140  1
  Zn  Zn170  1  0.56306367  0.81278382  0.57307385  1
  O  O171  1  0.12189165  0.12214297  0.11495515  1
  O  O172  1  0.11773747  0.11595088  0.63030301  1
  O  O173  1  0.11680311  0.63325732  0.11709597  1
  O  O174  1  0.11849506  0.61667484  0.61862835  1
  O  O175  1  0.62027040  0.11972646  0.11956171  1
  O  O176  1  0.62381808  0.11111453  0.62395282  1
  O  O177  1  0.61295677  0.62365756  0.11913321  1
  O  O178  1  0.62534053  0.61614182  0.61514047  1
  O  O179  1  0.36967254  0.38885875  0.37777988  1
  O  O180  1  0.38170514  0.37274412  0.88264477  1
  O  O181  1  0.37383885  0.88181325  0.38211137  1
  O  O182  1  0.36893933  0.88534630  0.88388448  1
  O  O183  1  0.86775502  0.39419763  0.37231844  1
  O  O184  1  0.88764383  0.37236354  0.88809456  1
  O  O185  1  0.88352722  0.88337687  0.38085515  1
  O  O186  1  0.88209121  0.87962023  0.88161823  1
  O  O187  1  0.26752725  0.00345661  0.37709198  1
  O  O188  1  0.25811991  0.00327805  0.86394636  1
  O  O189  1  0.25848105  0.51199293  0.37894780  1
  O  O190  1  0.24819918  0.51304528  0.88151903  1
  O  O191  1  0.75563647  0.00956671  0.37257903  1
  O  O192  1  0.75805127  0.00874438  0.86696542  1
  O  O193  1  0.75925107  0.51228573  0.37193673  1
  O  O194  1  0.74736749  0.49822672  0.86184694  1
  O  O195  1  0.25594650  0.49156156  0.12447184  1
  O  O196  1  0.23626321  0.50346977  0.62103054  1
  O  O197  1  0.25087864  0.98359190  0.12353159  1
  O  O198  1  0.24335624  1.00387816  0.63586335  1
  O  O199  1  0.75093427  0.48623227  0.12739739  1
  O  O200  1  0.74225575  0.49217240  0.63333206  1
  O  O201  1  0.74248710  0.99232546  0.12963363  1
  O  O202  1  0.75097739  1.00808054  0.63786628  1
  O  O203  1  0.00959403  0.37215279  0.25352209  1
  O  O204  1  0.00050525  0.37085532  0.75854622  1
  O  O205  1  0.00365484  0.86756188  0.25657355  1
  O  O206  1  0.00701154  0.87095774  0.75543428  1
  O  O207  1  0.50508798  0.36296532  0.24053161  1
  O  O208  1  0.50303243  0.36786866  0.75837834  1
  O  O209  1  0.50839008  0.86285942  0.24234215  1
  O  O210  1  0.49603818  0.86740061  0.74564071  1
  O  O211  1  0.49097574  0.13443564  0.24116293  1
  O  O212  1  0.49458488  0.13169944  0.75225473  1
  O  O213  1  0.49394733  0.62866538  0.24363480  1
  O  O214  1  0.48743335  0.62836724  0.74658912  1
  O  O215  1  0.99158856  0.13237257  0.24587133  1
  O  O216  1  1.00010832  0.13415311  0.74248294  1
  O  O217  1  0.99574300  0.63047827  0.24570687  1
  O  O218  1  0.99359450  0.63009003  0.74299209  1
  O  O219  1  0.38152385  0.25841363  0.00924199  1
  O  O220  1  0.36247273  0.26602137  0.48625158  1
  O  O221  1  0.37108640  0.75498473  0.00542339  1
  O  O222  1  0.36661787  0.75992080  0.50134201  1
  O  O223  1  0.86852534  0.25786218  -0.00225927  1
  O  O224  1  0.85603263  0.24373978  0.51080232  1
  O  O225  1  0.87616432  0.75699300  0.00851072  1
  O  O226  1  0.86514649  0.75828874  0.50243003  1
  O  O227  1  0.14119981  0.25490424  0.48826647  1
  O  O228  1  0.11793420  0.23572155  1.00219148  1
  O  O229  1  0.13691417  0.74003905  0.50643293  1
  O  O230  1  0.12883826  0.74052770  0.99464875  1
  O  O231  1  0.63511362  0.25175000  0.49100233  1
  O  O232  1  0.63275305  0.24359932  0.99465772  1
  O  O233  1  0.63569790  0.74586954  0.50507666  1
  O  O234  1  0.62716107  0.73500989  1.00436315  1
  O  O235  1  0.48981915  0.24369760  0.13017820  1
  O  O236  1  0.50715186  0.24968674  0.64057748  1
  O  O237  1  0.49205614  0.73782911  0.13032811  1
  O  O238  1  0.48280427  0.74480233  0.62066331  1
  O  O239  1  1.00247286  0.25097002  0.13960815  1
  O  O240  1  0.99510247  0.24763720  0.63222593  1
  O  O241  1  0.99406605  0.74109378  0.13269379  1
  O  O242  1  0.99959776  0.73991978  0.63253685  1
  O  O243  1  0.01387197  0.24793442  0.35832809  1
  O  O244  1  0.00427568  0.25834561  0.86761945  1
  O  O245  1  -0.00729059  0.75936408  0.36628629  1
  O  O246  1  0.00808737  0.75437655  0.86710518  1
  O  O247  1  0.50714652  0.24738711  0.36159993  1
  O  O248  1  0.50619845  0.25839901  0.87103868  1
  O  O249  1  0.49610628  0.74403233  0.36168155  1
  O  O250  1  0.50803047  0.74452592  0.87851967  1
  O  O251  1  0.26277965  0.14270190  0.49849548  1
  O  O252  1  0.23516944  0.11684572  1.00089736  1
  O  O253  1  0.24140372  0.63062022  0.49211339  1
  O  O254  1  0.24354983  0.62923220  0.99617091  1
  O  O255  1  0.74474174  0.13241188  0.48798368  1
  O  O256  1  0.74884224  0.13029049  0.99219945  1
  O  O257  1  0.74291780  0.63727113  0.49408617  1
  O  O258  1  0.73934411  0.61935025  1.00151624  1
  O  O259  1  0.25876912  0.38028645  0.00722775  1
  O  O260  1  0.25875277  0.36618664  0.50485664  1
  O  O261  1  0.25968063  0.87020618  0.00598186  1
  O  O262  1  0.24825568  0.85860257  0.49223429  1
  O  O263  1  0.75730202  0.36892149  0.00405185  1
  O  O264  1  0.74488666  0.36991743  0.51239747  1
  O  O265  1  0.75872577  0.87719789  0.01461341  1
  O  O266  1  0.75752101  0.86142114  0.49212794  1
  O  O267  1  0.11918560  0.48849268  0.25479612  1
  O  O268  1  0.12160916  0.50298111  0.73480154  1
  O  O269  1  0.11702334  0.98543854  0.24652131  1
  O  O270  1  0.13213241  0.99390061  0.74437427  1
  O  O271  1  0.62394046  0.48536159  0.25586691  1
  O  O272  1  0.63153094  0.49405757  0.74349008  1
  O  O273  1  0.62147952  0.99362428  0.24247368  1
  O  O274  1  0.63956499  1.00005627  0.74028739  1
  O  O275  1  0.37698410  0.00565997  0.25696628  1
  O  O276  1  0.36835310  0.00102940  0.75465867  1
  O  O277  1  0.37657481  0.50987638  0.26025367  1
  O  O278  1  0.37682556  0.51193823  0.75026839  1
  O  O279  1  0.87331891  0.00642526  0.26177920  1
  O  O280  1  0.86803798  0.00363100  0.75392689  1
  O  O281  1  0.87358646  0.51325096  0.24974252  1
  O  O282  1  0.86604471  0.50835283  0.74333232  1
  O  O283  1  0.12611254  0.37081524  0.36486681  1
  O  O284  1  0.11217181  0.37570573  0.87601449  1
  O  O285  1  0.11252489  0.87909785  0.36939913  1
  O  O286  1  0.12131870  0.87061664  0.86664684  1
  O  O287  1  0.63217883  0.36256344  0.36512642  1
  O  O288  1  0.61882843  0.36891036  0.87059919  1
  O  O289  1  0.62982881  0.87999464  0.36044479  1
  O  O290  1  0.63202435  0.87794612  0.86754459  1
  O  O291  1  0.37711321  0.13130402  0.12737746  1
  O  O292  1  0.37931193  0.11540026  0.63858853  1
  O  O293  1  0.38065691  0.62711748  0.13306437  1
  O  O294  1  0.37461104  0.62897966  0.62905959  1
  O  O295  1  0.87317264  0.11928851  0.14052772  1
  O  O296  1  0.88149122  0.13883422  0.62771171  1
  O  O297  1  0.88163615  0.63024714  0.13276992  1
  O  O298  1  0.88201466  0.62735100  0.63336034  1
  O  O299  1  0.25993712  0.26001032  0.12686594  1
  O  O300  1  0.24511304  0.25206057  0.61085205  1
  O  O301  1  0.25656835  0.75722925  0.11846966  1
  O  O302  1  0.26090653  0.74269803  0.60715164  1
  O  O303  1  0.74698367  0.25646878  0.11168315  1
  O  O304  1  0.75419102  0.25674597  0.62151966  1
  O  O305  1  0.75763080  0.75682376  0.12368902  1
  O  O306  1  0.75308852  0.74597698  0.61046061  1
  O  O307  1  0.24288197  0.24752517  0.37959250  1
  O  O308  1  0.24763392  0.24422761  0.87895320  1
  O  O309  1  0.25540317  0.73565459  0.38925830  1
  O  O310  1  0.24543028  0.74156543  0.88162971  1
  O  O311  1  0.74534071  0.24624374  0.38173142  1
  O  O312  1  0.74826512  0.24372746  0.88305942  1
  O  O313  1  0.75683766  0.73857738  0.38483673  1
  O  O314  1  0.74484839  0.74184218  0.88239403  1
  O  O315  1  0.00717053  0.11699153  0.00266667  1
  O  O316  1  -0.00325677  0.13119022  0.51279679  1
  O  O317  1  0.00487305  0.62112345  0.00686985  1
  O  O318  1  0.00874998  0.63417243  0.50804448  1
  O  O319  1  0.50443180  0.11748648  0.00331669  1
  O  O320  1  0.50537705  0.13735503  0.50175769  1
  O  O321  1  0.50271637  0.61294154  0.00859744  1
  O  O322  1  0.51280453  0.63032605  0.49856526  1
  O  O323  1  0.48555482  0.36579911  0.49524095  1
  O  O324  1  0.49318459  0.37679555  0.99525920  1
  O  O325  1  0.49027556  0.86936242  0.49826598  1
  O  O326  1  0.48751565  0.88146450  1.00869711  1
  O  O327  1  0.98573828  0.33648177  0.48775972  1
  O  O328  1  0.99598086  0.38292495  0.99870501  1
  O  O329  1  0.99408898  0.87534784  0.49213139  1
  O  O330  1  0.99851146  0.88028616  0.99528170  1
  O  O331  1  0.48500762  0.50221352  0.37470897  1
  O  O332  1  0.49871738  0.48496196  0.87988311  1
  O  O333  1  0.48056899  1.00559078  0.37409432  1
  O  O334  1  0.49512259  1.00206522  0.88616103  1
  O  O335  1  0.98013856  0.50049015  0.37871305  1
  O  O336  1  1.00254624  0.49443690  0.88489311  1
  O  O337  1  0.99253445  0.99491365  0.37820513  1
  O  O338  1  0.99622324  0.99596629  0.88344887  1
  O  O339  1  0.00029949  -0.00117959  0.11210566  1
  O  O340  1  0.00850936  0.01171359  0.62175509  1
  O  O341  1  -0.00282752  0.51374032  0.11968742  1
  O  O342  1  0.00718790  0.51241935  0.62466253  1
  O  O343  1  0.50235876  0.00569032  0.11340279  1
  O  O344  1  0.51340750  0.00247673  0.62766302  1
  O  O345  1  0.49227268  0.50707246  0.11760096  1
  O  O346  1  0.51483621  0.50002413  0.62811374  1
  O  O347  1  0.23706544  0.37606601  0.24413575  1
  O  O348  1  0.25113011  0.37608876  0.74204012  1
  O  O349  1  0.23958970  0.86294302  0.24383178  1
  O  O350  1  0.24053830  0.88256312  0.75352479  1
  O  O351  1  0.74136630  0.37359585  0.23978341  1
  O  O352  1  0.74746939  0.37912815  0.74225865  1
  O  O353  1  0.74457513  0.87381137  0.24124323  1
  O  O354  1  0.75792129  0.88887684  0.74882488  1
  O  O355  1  0.26092920  0.12901546  0.24459021  1
  O  O356  1  0.25852255  0.11731343  0.75200876  1
  O  O357  1  0.25873609  0.63226035  0.25883697  1
  O  O358  1  0.25562158  0.63001805  0.75861472  1
  O  O359  1  0.75515364  0.12865262  0.25924869  1
  O  O360  1  0.75268951  0.12212220  0.76188818  1
  O  O361  1  0.75637591  0.62621259  0.25611394  1
  O  O362  1  0.75830794  0.61539584  0.74941431  1
  O  O363  1  0.37100248  0.11705316  0.36327541  1
  O  O364  1  0.37602409  0.10951628  0.86764924  1
  O  O365  1  0.36842887  0.61435125  0.37017409  1
  O  O366  1  0.36433299  0.62121578  0.86673212  1
  O  O367  1  0.86668543  0.11859052  0.36703771  1
  O  O368  1  0.86922879  0.11955544  0.87438870  1
  O  O369  1  0.86875154  0.61745163  0.36979574  1
  O  O370  1  0.87668850  0.62655737  0.86197897  1
  O  O371  1  0.13323049  0.37553722  0.13863521  1
  O  O372  1  0.12244781  0.39338986  0.62422366  1
  O  O373  1  0.13389449  0.87447920  0.13280444  1
  O  O374  1  0.11726388  0.88393843  0.63644802  1
  O  O375  1  0.63389602  0.36819269  0.13337380  1
  O  O376  1  0.63238768  0.37944252  0.63012251  1
  O  O377  1  0.63240972  0.87910542  0.12873349  1
  O  O378  1  0.62771403  0.89002858  0.62998649  1
  O  O379  1  0.12010884  0.26004439  0.25547927  1
  O  O380  1  0.11440040  0.25509579  0.75001429  1
  O  O381  1  0.11139113  0.75922023  0.24689064  1
  O  O382  1  0.12172179  0.75741023  0.75080557  1
  O  O383  1  0.61574865  0.25715588  0.25457156  1
  O  O384  1  0.62113058  0.25521620  0.75781989  1
  O  O385  1  0.61465833  0.75806780  0.24490647  1
  O  O386  1  0.62066300  0.75236905  0.75096898  1
  O  O387  1  0.37934490  0.24498732  0.24308774  1
  O  O388  1  0.38638736  0.23700659  0.75729413  1
  O  O389  1  0.38111499  0.73947032  0.24631087  1
  O  O390  1  0.37014574  0.73987361  0.73864209  1
  O  O391  1  0.88441117  0.24320191  0.25682294  1
  O  O392  1  0.88656771  0.25009672  0.74400217  1
  O  O393  1  0.88346855  0.73979005  0.24744481  1
  O  O394  1  0.88106052  0.74400873  0.74776321  1
  O  O395  1  0.37311576  0.48834176  0.48819696  1
  O  O396  1  0.38593839  0.48883412  0.99431549  1
  O  O397  1  0.37275412  0.98296397  0.49243123  1
  O  O398  1  0.38175155  0.99251569  0.99233746  1
  O  O399  1  0.86640914  0.50345846  0.49365418  1
  O  O400  1  0.88758364  0.49381884  1.00266697  1
  O  O401  1  0.87491788  0.99550095  0.48980916  1
  O  O402  1  0.88319345  0.99438621  0.99526075  1
  O  O403  1  0.11819024  0.00572072  0.00206228  1
  O  O404  1  0.12649418  -0.00499805  0.51202211  1
  O  O405  1  0.11410353  0.51378504  0.00025693  1
  O  O406  1  0.12598957  0.51156765  0.50797839  1
  O  O407  1  0.61891831  0.00450554  0.00584724  1
  O  O408  1  0.63330500  0.00062894  0.51548597  1
  O  O409  1  0.61031862  0.50121962  0.00055410  1
  O  O410  1  0.63292078  0.51056062  0.50731738  1
  O  O411  1  0.36680028  0.36852740  0.11907281  1
  O  O412  1  0.37817365  0.38009702  0.60759286  1
  O  O413  1  0.36918870  0.86824801  0.11970051  1
  O  O414  1  0.37161185  0.86887008  0.60683338  1
  O  O415  1  0.86846177  0.37714124  0.11357498  1
  O  O416  1  0.86741095  0.36421062  0.62980391  1
  O  O417  1  0.86875859  0.87037282  0.12475727  1
  O  O418  1  0.88254194  0.87704967  0.60990065  1
  O  O419  1  0.13022081  0.13665552  0.36736787  1
  O  O420  1  0.12448019  0.12473137  0.89041853  1
  O  O421  1  0.13040672  0.62150589  0.38294304  1
  O  O422  1  0.13022303  0.63102064  0.88098996  1
  O  O423  1  0.63289445  0.13703704  0.37036391  1
  O  O424  1  0.63431249  0.12731647  0.88049323  1
  O  O425  1  0.63510839  0.62066257  0.38187774  1
  O  O426  1  0.62422753  0.61587309  0.88991094  1
