# generated using pymatgen
data_V85Zn86O256
_symmetry_space_group_name_H-M   'P 1'
_cell_length_a   16.94051854
_cell_length_b   16.93492165
_cell_length_c   16.94666084
_cell_angle_alpha   90.03611941
_cell_angle_beta   89.92537525
_cell_angle_gamma   89.99856316
_symmetry_Int_Tables_number   1
_chemical_formula_structural   V85Zn86O256
_chemical_formula_sum   'V85 Zn86 O256'
_cell_volume   4861.76065073
_cell_formula_units_Z   1
loop_
 _symmetry_equiv_pos_site_id
 _symmetry_equiv_pos_as_xyz
  1  'x, y, z'
loop_
 _atom_site_type_symbol
 _atom_site_label
 _atom_site_symmetry_multiplicity
 _atom_site_fract_x
 _atom_site_fract_y
 _atom_site_fract_z
 _atom_site_occupancy
  V  V0  1  0.37384224  0.62536336  0.75399206  1
  V  V1  1  0.37470143  0.75009018  0.62634664  1
  V  V2  1  -0.00028792  0.49580098  -0.00920180  1
  V  V3  1  0.87915161  0.25014715  0.11298533  1
  V  V4  1  0.87355418  0.00041309  0.37294776  1
  V  V5  1  0.61957297  0.49553320  0.62849545  1
  V  V6  1  0.49113274  0.62630026  0.13412090  1
  V  V7  1  0.87267920  0.37731880  0.50132430  1
  V  V8  1  0.63312713  0.25145814  0.86432300  1
  V  V9  1  0.75210968  0.49727014  0.24879266  1
  V  V10  1  0.37292424  0.49226423  0.88394684  1
  V  V11  1  0.37152590  0.00030989  0.37441658  1
  V  V12  1  0.25279373  0.62130865  0.36147788  1
  V  V13  1  0.74948798  0.00142769  0.75255592  1
  V  V14  1  0.62165262  0.62461395  0.49985569  1
  V  V15  1  0.01177593  0.12224054  0.12136585  1
  V  V16  1  0.61412535  0.75019602  0.37234483  1
  V  V17  1  0.49762866  0.00503080  0.50237137  1
  V  V18  1  0.14545004  0.46495726  0.09521365  1
  V  V19  1  0.37465155  0.87389620  0.50041998  1
  V  V20  1  0.50294917  0.36838123  0.37341712  1
  V  V21  1  0.25139574  0.63070541  0.87803651  1
  V  V22  1  0.00594872  -0.01155608  0.00297608  1
  V  V23  1  0.12328509  0.50660971  0.62035715  1
  V  V24  1  0.75540474  0.37165302  0.11431639  1
  V  V25  1  0.25026262  0.37392828  0.62758210  1
  V  V26  1  0.12357518  0.63521354  0.00022853  1
  V  V27  1  0.87771968  0.12717474  0.24641208  1
  V  V28  1  -0.00249024  0.25340981  0.76140610  1
  V  V29  1  0.00066998  0.75098534  0.24841838  1
  V  V30  1  0.87519296  0.25125798  0.62489819  1
  V  V31  1  -0.00181282  0.75237308  0.75660452  1
  V  V32  1  0.12406526  0.74550950  0.37937923  1
  V  V33  1  0.49778976  0.62469226  0.62558724  1
  V  V34  1  0.00076787  0.87483999  0.37279666  1
  V  V35  1  0.36071024  0.25723370  0.11090351  1
  V  V36  1  0.50306765  0.24572112  0.23738004  1
  V  V37  1  0.62280631  0.86901809  0.24086851  1
  V  V38  1  -0.00120089  0.00055590  0.49905835  1
  V  V39  1  0.62216192  0.12791628  0.49233130  1
  V  V40  1  0.12238744  0.87808373  0.75233719  1
  V  V41  1  0.87569705  0.12403027  0.75109329  1
  V  V42  1  0.24731683  0.74020756  0.50205461  1
  V  V43  1  0.37711422  0.75999198  0.14047094  1
  V  V44  1  0.00606685  0.62342736  0.12497933  1
  V  V45  1  0.25137320  0.00591428  0.75454944  1
  V  V46  1  0.86368416  0.75173685  0.12258202  1
  V  V47  1  0.62057652  0.00628406  0.62528280  1
  V  V48  1  -0.00246662  0.37635400  0.37544378  1
  V  V49  1  0.87585897  0.62501360  0.24877236  1
  V  V50  1  0.88012573  -0.00691321  0.87668624  1
  V  V51  1  0.74750234  0.62511087  0.37434279  1
  V  V52  1  0.74533017  0.50852134  0.75597502  1
  V  V53  1  0.87411406  0.50144822  0.37570533  1
  V  V54  1  0.24829530  -0.00334671  0.23494283  1
  V  V55  1  0.75058891  -0.00586408  0.24190738  1
  V  V56  1  0.63243766  0.13287165  0.00844581  1
  V  V57  1  0.37549379  0.37716647  0.49892689  1
  V  V58  1  0.87430599  0.74871525  0.62510577  1
  V  V59  1  0.13953661  0.38760110  0.25908581  1
  V  V60  1  -0.00034797  0.12647646  0.62500543  1
  V  V61  1  0.38018611  0.12533364  0.24479840  1
  V  V62  1  0.12852404  0.87728800  0.23821211  1
  V  V63  1  0.37332883  0.49973519  0.35896377  1
  V  V64  1  0.63561406  0.74842353  0.87920988  1
  V  V65  1  0.63365269  0.62854375  -0.00112981  1
  V  V66  1  0.12338753  0.24795242  0.37596712  1
  V  V67  1  0.74461455  0.37425198  0.63352645  1
  V  V68  1  0.74707515  0.87707247  0.62300701  1
  V  V69  1  0.49981461  0.75256769  0.75630798  1
  V  V70  1  0.62298805  0.49794751  0.12218808  1
  V  V71  1  0.49898432  0.00508349  0.01019149  1
  V  V72  1  0.62864899  0.36699932  0.25155022  1
  V  V73  1  0.11966693  0.37612915  0.75401915  1
  V  V74  1  0.85940222  0.86994465  0.00170336  1
  V  V75  1  0.14246976  0.23959319  0.87527331  1
  V  V76  1  0.25020119  0.24743421  0.49959238  1
  V  V77  1  0.12529123  0.00011188  0.62374942  1
  V  V78  1  0.74690796  0.75115280  0.49912929  1
  V  V79  1  0.12235181  0.76492965  0.87899702  1
  V  V80  1  0.38372242  0.24165548  0.62353647  1
  V  V81  1  0.26475430  0.76652900  0.00345105  1
  V  V82  1  0.49447990  0.87739033  0.88414154  1
  V  V83  1  0.38447259  0.12324468  0.75548769  1
  V  V84  1  0.74589452  0.25170647  0.49082644  1
  Zn  Zn85  1  0.50606526  0.25388216  0.74684437  1
  Zn  Zn86  1  0.24952073  0.87433261  0.62328115  1
  Zn  Zn87  1  0.00188170  0.50874414  0.50048366  1
  Zn  Zn88  1  0.24773389  0.50166713  0.75095783  1
  Zn  Zn89  1  0.74684641  0.12900408  0.36964029  1
  Zn  Zn90  1  0.86989293  0.63004236  0.75896128  1
  Zn  Zn91  1  0.88305227  0.36758219  -0.01358611  1
  Zn  Zn92  1  0.50169316  0.36860003  0.87803989  1
  Zn  Zn93  1  0.49589766  0.49983181  0.49784058  1
  Zn  Zn94  1  0.37414985  0.00275731  0.88332072  1
  Zn  Zn95  1  0.49270915  0.49709181  0.00337793  1
  Zn  Zn96  1  0.87288461  0.50134312  0.87287986  1
  Zn  Zn97  1  0.12492087  0.12303659  0.49824663  1
  Zn  Zn98  1  0.75504442  0.12756201  0.88437310  1
  Zn  Zn99  1  0.62857827  0.00023947  0.12352319  1
  Zn  Zn100  1  0.62327781  0.87746410  0.75417940  1
  Zn  Zn101  1  0.87329299  0.87575067  0.49723192  1
  Zn  Zn102  1  0.00436023  0.25399701  0.24411355  1
  Zn  Zn103  1  0.49802880  0.87248785  0.37114547  1
  Zn  Zn104  1  0.13970667  0.12690666  0.00411223  1
  Zn  Zn105  1  0.24810165  0.12255945  0.37375156  1
  Zn  Zn106  1  0.00446447  0.63178893  0.62122534  1
  Zn  Zn107  1  0.19093813  0.18878350  0.19336886  1
  Zn  Zn108  1  0.18937220  0.18584650  0.69084387  1
  Zn  Zn109  1  0.19084550  0.69413192  0.18541319  1
  Zn  Zn110  1  0.18751527  0.69011914  0.69083863  1
  Zn  Zn111  1  0.69318858  0.18851096  0.18361611  1
  Zn  Zn112  1  0.68896081  0.18452495  0.68313783  1
  Zn  Zn113  1  0.68231908  0.68416898  0.18785295  1
  Zn  Zn114  1  0.68231046  0.68830546  0.68820209  1
  Zn  Zn115  1  0.31645214  0.30932767  0.31137394  1
  Zn  Zn116  1  0.31701691  0.31160965  0.80763006  1
  Zn  Zn117  1  0.30976804  0.81449410  0.31455283  1
  Zn  Zn118  1  0.30984975  0.81921686  0.81437620  1
  Zn  Zn119  1  0.81637387  0.31091375  0.30752076  1
  Zn  Zn120  1  0.81190369  0.31794366  0.81681029  1
  Zn  Zn121  1  0.80882373  0.81185818  0.31066894  1
  Zn  Zn122  1  0.81234504  0.81721120  0.81363798  1
  Zn  Zn123  1  0.19033206  0.43884646  0.43820093  1
  Zn  Zn124  1  0.18483815  0.43863524  0.92743637  1
  Zn  Zn125  1  0.18822784  0.93182608  0.43627028  1
  Zn  Zn126  1  0.21550446  0.96850348  0.96337901  1
  Zn  Zn127  1  0.68463136  0.43753925  0.43957535  1
  Zn  Zn128  1  0.68350997  0.43404141  0.93927315  1
  Zn  Zn129  1  0.68614470  0.93782040  0.43296001  1
  Zn  Zn130  1  0.68198759  0.93958292  0.93686551  1
  Zn  Zn131  1  0.31967882  0.07432875  0.06367342  1
  Zn  Zn132  1  0.31052436  0.06378452  0.56600724  1
  Zn  Zn133  1  0.30881885  0.56898946  0.06520065  1
  Zn  Zn134  1  0.31139326  0.56065133  0.56006226  1
  Zn  Zn135  1  0.81556367  0.06143056  0.06269973  1
  Zn  Zn136  1  0.81030611  0.06504083  0.56037669  1
  Zn  Zn137  1  0.81436210  0.56281585  0.06259798  1
  Zn  Zn138  1  0.81057981  0.56342132  0.56586761  1
  Zn  Zn139  1  0.43690838  0.43020209  0.18170281  1
  Zn  Zn140  1  0.43681238  0.43582631  0.69580703  1
  Zn  Zn141  1  0.44084550  0.93697114  0.18773011  1
  Zn  Zn142  1  0.43859270  0.93680965  0.68799084  1
  Zn  Zn143  1  0.94724554  0.43855874  0.18235555  1
  Zn  Zn144  1  0.93490820  0.43893112  0.69069641  1
  Zn  Zn145  1  0.93694339  0.93539382  0.18272051  1
  Zn  Zn146  1  0.93767717  0.93389127  0.68732422  1
  Zn  Zn147  1  0.06377693  0.06209755  0.30902253  1
  Zn  Zn148  1  0.05986431  0.06148027  0.81527169  1
  Zn  Zn149  1  0.06248570  0.56556579  0.31863311  1
  Zn  Zn150  1  0.06306575  0.57065631  0.81012441  1
  Zn  Zn151  1  0.56169140  0.05832489  0.31196072  1
  Zn  Zn152  1  0.56297044  0.06813016  0.81903350  1
  Zn  Zn153  1  0.56075180  0.55638599  0.30993540  1
  Zn  Zn154  1  0.56102391  0.56199089  0.81489568  1
  Zn  Zn155  1  0.43834632  0.18686035  0.43223330  1
  Zn  Zn156  1  0.44540449  0.18573436  0.93790931  1
  Zn  Zn157  1  0.43272505  0.68325347  0.43599595  1
  Zn  Zn158  1  0.44400831  0.68231645  0.94348624  1
  Zn  Zn159  1  0.93664070  0.18758022  0.43726898  1
  Zn  Zn160  1  0.94399743  0.17854988  0.93782067  1
  Zn  Zn161  1  0.93733940  0.68589780  0.44149649  1
  Zn  Zn162  1  0.93089832  0.68628242  0.93520607  1
  Zn  Zn163  1  0.07692534  0.31105378  0.05877025  1
  Zn  Zn164  1  0.06174407  0.31584115  0.56363879  1
  Zn  Zn165  1  0.05557567  0.81361688  0.06174828  1
  Zn  Zn166  1  0.06070981  0.81431538  0.56133910  1
  Zn  Zn167  1  0.55858157  0.31401671  0.05572614  1
  Zn  Zn168  1  0.56283128  0.31303640  0.55975001  1
  Zn  Zn169  1  0.55776210  0.81025224  0.06243031  1
  Zn  Zn170  1  0.56018175  0.81606842  0.56275479  1
  O  O171  1  0.11491597  0.12970619  0.12682245  1
  O  O172  1  0.11996476  0.11371199  0.62508334  1
  O  O173  1  0.11445906  0.64079645  0.11583381  1
  O  O174  1  0.12968879  0.60921974  0.63133195  1
  O  O175  1  0.62907482  0.12432198  0.11322020  1
  O  O176  1  0.63133956  0.11177981  0.61162017  1
  O  O177  1  0.61753644  0.61849310  0.11798499  1
  O  O178  1  0.61612657  0.61941412  0.61928192  1
  O  O179  1  0.38043104  0.38074838  0.37932770  1
  O  O180  1  0.36056188  0.39162669  0.87790590  1
  O  O181  1  0.37716460  0.88121206  0.38220730  1
  O  O182  1  0.39087457  0.87771689  0.87041267  1
  O  O183  1  0.88001299  0.37961670  0.38032625  1
  O  O184  1  0.87419271  0.38734296  0.87600860  1
  O  O185  1  0.88113662  0.88304884  0.37288910  1
  O  O186  1  0.87280656  0.88061959  0.88816030  1
  O  O187  1  0.26217652  0.00048437  0.37659526  1
  O  O188  1  0.25899587  -0.01659529  0.85560498  1
  O  O189  1  0.25506806  0.51436506  0.37994326  1
  O  O190  1  0.25472123  0.51256595  0.87464836  1
  O  O191  1  0.76213829  0.00147344  0.36766351  1
  O  O192  1  0.75854814  -0.00016938  0.86593193  1
  O  O193  1  0.75470947  0.50444509  0.36993109  1
  O  O194  1  0.73874032  0.49559146  0.85663843  1
  O  O195  1  0.22763066  0.51322621  0.12554245  1
  O  O196  1  0.24104774  0.49188354  0.62616089  1
  O  O197  1  0.25839918  0.99633375  0.13784439  1
  O  O198  1  0.24023387  0.99702184  0.63183724  1
  O  O199  1  0.74514373  0.49359971  0.13155180  1
  O  O200  1  0.73904565  0.49335422  0.62943793  1
  O  O201  1  0.75215296  1.00096427  0.13871857  1
  O  O202  1  0.74518470  0.99320383  0.62870447  1
  O  O203  1  -0.00028042  0.37482515  0.26684004  1
  O  O204  1  0.00789919  0.36484483  0.74151232  1
  O  O205  1  0.00622701  0.87173781  0.25456407  1
  O  O206  1  0.01271614  0.86837632  0.74741458  1
  O  O207  1  0.51014359  0.36729757  0.25339622  1
  O  O208  1  0.48539647  0.36541607  0.76468915  1
  O  O209  1  0.51808042  0.88087737  0.25457231  1
  O  O210  1  0.50211868  0.86445300  0.75487855  1
  O  O211  1  0.49405498  0.13391307  0.25799127  1
  O  O212  1  0.48763863  0.12474425  0.74630943  1
  O  O213  1  0.50988181  0.62451234  0.23248772  1
  O  O214  1  0.49447357  0.63602643  0.74751957  1
  O  O215  1  0.99154539  0.12266370  0.24079623  1
  O  O216  1  0.99377512  0.13116345  0.74375229  1
  O  O217  1  0.99798599  0.62910486  0.24344946  1
  O  O218  1  0.99962868  0.64071349  0.74178409  1
  O  O219  1  0.37779076  0.23791882  0.01304174  1
  O  O220  1  0.36843315  0.25351022  0.50485358  1
  O  O221  1  0.36630463  0.74920263  0.00153860  1
  O  O222  1  0.36926849  0.75422265  0.50555569  1
  O  O223  1  0.88380412  0.24916682  0.00881521  1
  O  O224  1  0.86750503  0.25620151  0.50576144  1
  O  O225  1  0.87755870  0.76255837  0.00634517  1
  O  O226  1  0.86507655  0.75423674  0.50745199  1
  O  O227  1  0.13142056  0.25156592  0.49139396  1
  O  O228  1  0.12082088  0.24172348  0.97907786  1
  O  O229  1  0.13405591  0.75772776  0.49124749  1
  O  O230  1  0.12978209  0.74979568  0.99515963  1
  O  O231  1  0.63284171  0.24005507  0.50442445  1
  O  O232  1  0.62377809  0.23614015  0.99464755  1
  O  O233  1  0.62806951  0.74598539  0.49362541  1
  O  O234  1  0.62127139  0.73719947  0.99559012  1
  O  O235  1  0.49692102  0.25267616  0.13568093  1
  O  O236  1  0.48659769  0.25576817  0.62413396  1
  O  O237  1  0.48701428  0.73828442  0.12131132  1
  O  O238  1  0.49551084  0.74625685  0.63407829  1
  O  O239  1  0.99768361  0.24224133  0.12413043  1
  O  O240  1  0.99467020  0.24464754  0.62986336  1
  O  O241  1  0.99062469  0.74218360  0.13135289  1
  O  O242  1  0.98952390  0.75565674  0.63206687  1
  O  O243  1  0.00735251  0.25795885  0.37589682  1
  O  O244  1  0.00263183  0.24577874  0.86284904  1
  O  O245  1  0.00690301  0.75275432  0.36935155  1
  O  O246  1  0.00895174  0.74847041  0.86704823  1
  O  O247  1  0.49457257  0.26351378  0.36493075  1
  O  O248  1  0.51716353  0.24453623  0.87120082  1
  O  O249  1  0.51101647  0.74811898  0.37937893  1
  O  O250  1  0.50507020  0.75523874  0.87145568  1
  O  O251  1  0.24708980  0.13693565  0.49973873  1
  O  O252  1  0.23847388  0.07727732  0.99099277  1
  O  O253  1  0.25423421  0.63691893  0.49224232  1
  O  O254  1  0.24170668  0.63774842  0.99270074  1
  O  O255  1  0.74292627  0.13466864  0.49639992  1
  O  O256  1  0.73798147  0.11900122  1.00091795  1
  O  O257  1  0.74186097  0.63078653  0.49519522  1
  O  O258  1  0.73320882  0.62090468  1.00651282  1
  O  O259  1  0.18072768  0.38994213  0.02920028  1
  O  O260  1  0.25376664  0.36452374  0.50609220  1
  O  O261  1  0.25163073  0.86463679  -0.00072784  1
  O  O262  1  0.25848791  0.86364792  0.50092627  1
  O  O263  1  0.75763995  0.38176363  0.01225761  1
  O  O264  1  0.75244002  0.36905803  0.50709384  1
  O  O265  1  0.76050689  0.87975146  -0.00034995  1
  O  O266  1  0.74925798  0.87109490  0.50691776  1
  O  O267  1  0.12539059  0.48724911  0.26314200  1
  O  O268  1  0.12603353  0.49292648  0.74344725  1
  O  O269  1  0.13968716  0.99358883  0.25393386  1
  O  O270  1  0.12945401  0.99561845  0.74535143  1
  O  O271  1  0.63032020  0.48975777  0.23881572  1
  O  O272  1  0.63051614  0.50578722  0.73805749  1
  O  O273  1  0.63365266  0.99081173  0.24886269  1
  O  O274  1  0.63195174  1.00254697  0.74253033  1
  O  O275  1  0.36952662  0.00348379  0.25628738  1
  O  O276  1  0.36971589  0.01106114  0.74412506  1
  O  O277  1  0.37736933  0.49210236  0.25977016  1
  O  O278  1  0.36774309  0.51078695  0.76046798  1
  O  O279  1  0.87096549  0.00459324  0.25448124  1
  O  O280  1  0.87076100  0.00014082  0.75766434  1
  O  O281  1  0.87357700  0.50558006  0.25384813  1
  O  O282  1  0.85640541  0.50438333  0.74310058  1
  O  O283  1  0.11833101  0.36996188  0.37300150  1
  O  O284  1  0.12958046  0.36381363  0.85840084  1
  O  O285  1  0.11954525  0.86489509  0.36798030  1
  O  O286  1  0.12926368  0.86655003  0.86740155  1
  O  O287  1  0.61663979  0.38198014  0.36340374  1
  O  O288  1  0.62952447  0.35474614  0.87815008  1
  O  O289  1  0.62244558  0.86502484  0.36853219  1
  O  O290  1  0.61519135  0.86619830  0.87409639  1
  O  O291  1  0.37798279  0.13374283  0.13947303  1
  O  O292  1  0.37252979  0.13422041  0.63144409  1
  O  O293  1  0.38620278  0.63005143  0.12442201  1
  O  O294  1  0.37824850  0.62925384  0.63234430  1
  O  O295  1  0.88350725  0.13203279  0.12895869  1
  O  O296  1  0.87880273  0.13045004  0.63050166  1
  O  O297  1  0.88763006  0.62770446  0.12966532  1
  O  O298  1  0.86980574  0.64171349  0.62965351  1
  O  O299  1  0.26074612  0.24416410  0.12356867  1
  O  O300  1  0.25372221  0.25671715  0.61806716  1
  O  O301  1  0.26582948  0.74494441  0.11319008  1
  O  O302  1  0.25455309  0.74982134  0.61792628  1
  O  O303  1  0.76581794  0.26044697  0.13006696  1
  O  O304  1  0.75414530  0.25767091  0.61702044  1
  O  O305  1  0.76523872  0.73941910  0.13154052  1
  O  O306  1  0.75145641  0.75937103  0.62205949  1
  O  O307  1  0.24341116  0.24842178  0.38351237  1
  O  O308  1  0.24072179  0.24963118  0.86991677  1
  O  O309  1  0.24482547  0.74107509  0.38101422  1
  O  O310  1  0.24572109  0.74933333  0.88619542  1
  O  O311  1  0.75549980  0.25109051  0.38713316  1
  O  O312  1  0.73964842  0.24373432  0.86789436  1
  O  O313  1  0.74060459  0.74358340  0.38022345  1
  O  O314  1  0.73446392  0.75348914  0.86708492  1
  O  O315  1  0.00751323  0.11044137  0.00624536  1
  O  O316  1  0.00138246  0.11877108  0.50672883  1
  O  O317  1  0.00618303  0.62306196  0.00780642  1
  O  O318  1  -0.00252139  0.62254212  0.50854779  1
  O  O319  1  0.51615065  0.11134265  -0.00414091  1
  O  O320  1  0.50541766  0.11420880  0.49578737  1
  O  O321  1  0.50978343  0.61712812  0.01365996  1
  O  O322  1  0.50352514  0.62266869  0.50714198  1
  O  O323  1  0.49475416  0.37585153  0.48970035  1
  O  O324  1  0.50452773  0.38523195  0.99119391  1
  O  O325  1  0.49246827  0.88584274  0.49752031  1
  O  O326  1  0.50898411  0.88978663  0.99428204  1
  O  O327  1  0.99251711  0.37779294  0.49099296  1
  O  O328  1  1.00653039  0.39321714  1.00507003  1
  O  O329  1  0.99603323  0.88259735  0.49148844  1
  O  O330  1  0.98558131  0.88457569  1.00456260  1
  O  O331  1  0.49147768  0.48968981  0.37416605  1
  O  O332  1  0.48054399  0.50402213  0.87483971  1
  O  O333  1  0.48704332  0.99819649  0.38268842  1
  O  O334  1  0.50223487  0.99197228  0.88314866  1
  O  O335  1  0.99184780  0.49461743  0.37956021  1
  O  O336  1  1.00687778  0.50627465  0.88887881  1
  O  O337  1  0.99070795  0.99717641  0.37726535  1
  O  O338  1  0.98764496  1.00258927  0.88571644  1
  O  O339  1  -0.00690001  0.00708905  0.11162166  1
  O  O340  1  0.00493820  0.00427407  0.62010976  1
  O  O341  1  0.02167388  0.50703728  0.11574850  1
  O  O342  1  0.01411670  0.49900364  0.62653167  1
  O  O343  1  0.50608234  -0.00218977  0.11372982  1
  O  O344  1  0.51029888  -0.00553253  0.61622842  1
  O  O345  1  0.50686423  0.50671899  0.12684757  1
  O  O346  1  0.50388528  0.50446957  0.62599288  1
  O  O347  1  0.23812264  0.37603692  0.25928314  1
  O  O348  1  0.24381546  0.37562714  0.73935310  1
  O  O349  1  0.24305779  0.88865191  0.25612759  1
  O  O350  1  0.23666113  0.87727792  0.74314535  1
  O  O351  1  0.74527512  0.37886247  0.24460977  1
  O  O352  1  0.75006179  0.38320487  0.73615875  1
  O  O353  1  0.73675735  0.88299062  0.25631736  1
  O  O354  1  0.74752105  0.88687959  0.74180198  1
  O  O355  1  0.25691090  0.11122094  0.25315494  1
  O  O356  1  0.26150451  0.11435006  0.74472503  1
  O  O357  1  0.24675733  0.62923299  0.26325304  1
  O  O358  1  0.25363908  0.62988748  0.76493436  1
  O  O359  1  0.76200851  0.11903826  0.25089096  1
  O  O360  1  0.75789576  0.11153212  0.74513703  1
  O  O361  1  0.75354953  0.61649196  0.25535995  1
  O  O362  1  0.74766810  0.61199297  0.74342184  1
  O  O363  1  0.37183885  0.11785562  0.36499782  1
  O  O364  1  0.37982086  0.12250714  0.85936502  1
  O  O365  1  0.36279336  0.61661693  0.37424912  1
  O  O366  1  0.36686806  0.62338341  0.87318987  1
  O  O367  1  0.87569907  0.11791968  0.36479724  1
  O  O368  1  0.87296419  0.11532725  0.86871568  1
  O  O369  1  0.86763384  0.62187940  0.36819830  1
  O  O370  1  0.87554346  0.61561327  0.87137274  1
  O  O371  1  0.10939222  0.37540661  0.15512148  1
  O  O372  1  0.13307609  0.37999547  0.63315908  1
  O  O373  1  0.12153537  0.86673034  0.13916531  1
  O  O374  1  0.12329365  0.88698878  0.63107899  1
  O  O375  1  0.63486342  0.38024484  0.12914394  1
  O  O376  1  0.63089984  0.38504590  0.61911714  1
  O  O377  1  0.62468368  0.87127134  0.13808224  1
  O  O378  1  0.63410990  0.88424980  0.62654969  1
  O  O379  1  0.12488507  0.25767764  0.26454548  1
  O  O380  1  0.11769332  0.25496300  0.75436847  1
  O  O381  1  0.12137879  0.75741648  0.25817937  1
  O  O382  1  0.11881167  0.75858233  0.75616661  1
  O  O383  1  0.62175443  0.25953578  0.24522197  1
  O  O384  1  0.62476357  0.23990971  0.75894753  1
  O  O385  1  0.63067993  0.76069867  0.25780457  1
  O  O386  1  0.61454939  0.75045879  0.75827299  1
  O  O387  1  0.38308250  0.24186653  0.24572617  1
  O  O388  1  0.37234737  0.23553572  0.74067213  1
  O  O389  1  0.37017628  0.75160597  0.23981795  1
  O  O390  1  0.37995815  0.74604177  0.74717792  1
  O  O391  1  0.88179918  0.24017294  0.24241194  1
  O  O392  1  0.88065355  0.24645313  0.74407887  1
  O  O393  1  0.88092207  0.74446114  0.24555876  1
  O  O394  1  0.88212947  0.75487644  0.74471133  1
  O  O395  1  0.37467835  0.49119919  0.49223635  1
  O  O396  1  0.36935614  0.50833409  0.98725784  1
  O  O397  1  0.37957434  0.99694693  0.49630051  1
  O  O398  1  0.39473809  1.00742762  1.00023976  1
  O  O399  1  0.87135071  0.49270528  0.49488171  1
  O  O400  1  0.89411016  0.50144090  1.00576270  1
  O  O401  1  0.87859691  1.00017552  0.49005722  1
  O  O402  1  0.87906555  0.99007503  0.99449296  1
  O  O403  1  0.10523006  -0.01600996  -0.00456996  1
  O  O404  1  0.12015807  -0.00090486  0.50720344  1
  O  O405  1  0.11790577  0.52124528  -0.00335117  1
  O  O406  1  0.12439094  0.49169313  0.51722516  1
  O  O407  1  0.62010741  0.00946875  0.00316989  1
  O  O408  1  0.61709800  0.00364035  0.50471185  1
  O  O409  1  0.62686938  0.50683190  0.01206719  1
  O  O410  1  0.62140050  0.50695833  0.51058483  1
  O  O411  1  0.37350473  0.35729113  0.12403013  1
  O  O412  1  0.36406400  0.37020416  0.61997956  1
  O  O413  1  0.38237417  0.85901113  0.12768697  1
  O  O414  1  0.37384596  0.86749147  0.61849445  1
  O  O415  1  0.87375317  0.36690609  0.12387264  1
  O  O416  1  0.86612547  0.37158151  0.61886609  1
  O  O417  1  0.87359931  0.86578503  0.11404316  1
  O  O418  1  0.86285145  0.86761619  0.62373915  1
  O  O419  1  0.12546352  0.13395763  0.37707020  1
  O  O420  1  0.12732656  0.13771901  0.86591767  1
  O  O421  1  0.13523448  0.63702082  0.37445878  1
  O  O422  1  0.13241650  0.63982563  0.88046247  1
  O  O423  1  0.62890452  0.11694806  0.38799854  1
  O  O424  1  0.63257296  0.13258176  0.88519083  1
  O  O425  1  0.62766352  0.62922649  0.37808707  1
  O  O426  1  0.61753096  0.63094396  0.89084153  1
