# generated using pymatgen
data_V85Zn86O256
_symmetry_space_group_name_H-M   'P 1'
_cell_length_a   16.95140856
_cell_length_b   16.95021374
_cell_length_c   16.97474578
_cell_angle_alpha   89.95201082
_cell_angle_beta   90.06594089
_cell_angle_gamma   89.84381702
_symmetry_Int_Tables_number   1
_chemical_formula_structural   V85Zn86O256
_chemical_formula_sum   'V85 Zn86 O256'
_cell_volume   4877.33059967
_cell_formula_units_Z   1
loop_
 _symmetry_equiv_pos_site_id
 _symmetry_equiv_pos_as_xyz
  1  'x, y, z'
loop_
 _atom_site_type_symbol
 _atom_site_label
 _atom_site_symmetry_multiplicity
 _atom_site_fract_x
 _atom_site_fract_y
 _atom_site_fract_z
 _atom_site_occupancy
  V  V0  1  -0.00063023  0.87481402  0.37183956  1
  V  V1  1  0.12362771  0.25826702  0.37457012  1
  V  V2  1  0.12225526  0.25361203  0.87053362  1
  V  V3  1  0.37775176  0.74724146  0.62812382  1
  V  V4  1  0.62730600  0.12471342  0.00206470  1
  V  V5  1  0.12345160  0.00129837  0.62695312  1
  V  V6  1  0.49270457  0.38099434  0.87066546  1
  V  V7  1  -0.00959803  0.50361256  0.49511565  1
  V  V8  1  0.62770837  0.63217588  -0.01556767  1
  V  V9  1  0.62784168  0.25245946  0.37788774  1
  V  V10  1  0.88356683  0.86518682  0.00105227  1
  V  V11  1  0.74189365  0.74304875  0.50172235  1
  V  V12  1  0.12151178  0.50218382  0.62361144  1
  V  V13  1  0.00058098  0.00247725  -0.00241551  1
  V  V14  1  0.12154956  0.75420375  0.37893473  1
  V  V15  1  0.11772910  0.01271904  0.12601728  1
  V  V16  1  0.13389973  0.12161082  0.48978811  1
  V  V17  1  0.74283167  0.34915563  0.10903826  1
  V  V18  1  0.25310100  0.62748366  0.37920645  1
  V  V19  1  -0.00473277  0.25435354  0.24104047  1
  V  V20  1  0.74363957  -0.00514218  0.75231290  1
  V  V21  1  0.25050425  0.37197748  0.61855437  1
  V  V22  1  0.75251678  0.00344414  0.24610634  1
  V  V23  1  0.62012452  0.11624085  0.50639933  1
  V  V24  1  0.00572562  0.74064860  0.74832991  1
  V  V25  1  0.62343405  -0.00554397  0.12553125  1
  V  V26  1  -0.00407731  0.00071594  0.50080993  1
  V  V27  1  0.62593648  0.37469617  0.74854705  1
  V  V28  1  0.25155664  0.75100547  0.50370994  1
  V  V29  1  0.37890453  0.24117420  0.62052239  1
  V  V30  1  0.13319628  0.75091992  0.88308387  1
  V  V31  1  0.50774176  0.74945280  0.75473062  1
  V  V32  1  -0.00826250  0.12904334  0.62184390  1
  V  V33  1  0.37613090  0.25223498  0.12363298  1
  V  V34  1  0.74602500  0.87275250  0.62890748  1
  V  V35  1  0.87928640  0.61862349  0.76746104  1
  V  V36  1  0.74571590  0.61261503  0.37183669  1
  V  V37  1  0.50007945  0.62349655  0.12456092  1
  V  V38  1  0.11742835  0.13474500  0.00091622  1
  V  V39  1  0.24449200  0.50289616  0.25036467  1
  V  V40  1  0.11526628  0.87434048  0.75507150  1
  V  V41  1  0.50007521  0.24236339  0.74458346  1
  V  V42  1  0.49862473  -0.00154046  0.00047748  1
  V  V43  1  0.24708275  -0.00099148  0.75044535  1
  V  V44  1  0.25491265  0.88744832  0.12060904  1
  V  V45  1  0.25100106  0.25263052  -0.00338903  1
  V  V46  1  0.62270283  0.24980337  0.87952656  1
  V  V47  1  0.87970870  -0.00120348  0.87534654  1
  V  V48  1  0.24885565  0.87575624  0.62865632  1
  V  V49  1  0.63165064  0.50128258  0.61993419  1
  V  V50  1  0.11719851  0.62646642  0.50555825  1
  V  V51  1  0.36869337  0.00492377  0.37808647  1
  V  V52  1  0.11928096  0.86850385  0.23762588  1
  V  V53  1  0.37424359  -0.00122984  0.87643307  1
  V  V54  1  0.37847473  0.49857606  0.37663491  1
  V  V55  1  0.87806346  0.12970633  0.23528848  1
  V  V56  1  0.50717653  0.49867896  0.49380159  1
  V  V57  1  0.62538649  0.37865557  0.25012743  1
  V  V58  1  0.50042793  0.88214790  0.38005614  1
  V  V59  1  0.36675509  0.12744000  0.25459492  1
  V  V60  1  0.87240830  0.00404266  0.37239317  1
  V  V61  1  -0.01024845  0.25129995  0.74404145  1
  V  V62  1  0.38107276  0.37374421  0.49422035  1
  V  V63  1  0.24441674  0.38045295  0.12679026  1
  V  V64  1  0.88131427  0.36165050  0.49705986  1
  V  V65  1  0.36168774  0.75040074  0.12161609  1
  V  V66  1  0.49690989  0.75181593  0.25169579  1
  V  V67  1  0.75145747  0.12659126  0.87692132  1
  V  V68  1  0.25830794  0.61633940  0.87682625  1
  V  V69  1  0.50627781  0.62397290  0.61952617  1
  V  V70  1  0.37247154  0.38753930  -0.00407815  1
  V  V71  1  0.37964292  0.88167242  0.50283759  1
  V  V72  1  0.49847906  0.25542728  0.25602452  1
  V  V73  1  0.50914018  0.87162423  0.87588407  1
  V  V74  1  0.12412893  0.37344272  0.74415687  1
  V  V75  1  0.86892714  0.35970071  -0.01375969  1
  V  V76  1  0.88032410  0.73850700  0.62224897  1
  V  V77  1  0.75864601  0.36745905  0.62613782  1
  V  V78  1  0.12895248  0.61269828  0.00719669  1
  V  V79  1  0.63113376  0.50098453  0.12410629  1
  V  V80  1  0.25196555  0.12806657  0.87071217  1
  V  V81  1  0.37425889  0.62614048  0.25356591  1
  V  V82  1  0.62279680  0.87526441  0.25001647  1
  V  V83  1  0.79393965  0.83314927  0.14978801  1
  V  V84  1  0.75425854  0.50274803  0.76262079  1
  Zn  Zn85  1  0.37152651  0.86801107  -0.00558170  1
  Zn  Zn86  1  0.37863833  0.11975919  0.74223225  1
  Zn  Zn87  1  0.67145827  0.81183440  0.81486155  1
  Zn  Zn88  1  0.24298573  0.00623257  0.25403703  1
  Zn  Zn89  1  -0.05467390  0.42916814  0.32734586  1
  Zn  Zn90  1  -0.01132931  0.58996352  0.13129184  1
  Zn  Zn91  1  -0.01932477  0.50163641  -0.00809582  1
  Zn  Zn92  1  0.74935663  0.74947432  -0.00964958  1
  Zn  Zn93  1  0.62111724  0.74696057  0.38168471  1
  Zn  Zn94  1  0.87175533  0.12421688  0.74455392  1
  Zn  Zn95  1  -0.01280606  0.38449523  0.86596542  1
  Zn  Zn96  1  0.25653441  0.24078050  0.49180764  1
  Zn  Zn97  1  0.12139255  0.38089553  0.25381455  1
  Zn  Zn98  1  0.75230394  0.24517542  0.50509507  1
  Zn  Zn99  1  0.61246071  -0.00294606  0.62976404  1
  Zn  Zn100  1  0.85378987  0.58320683  0.25258322  1
  Zn  Zn101  1  0.74897609  0.12814676  0.37586781  1
  Zn  Zn102  1  0.37959211  0.61427877  0.75462068  1
  Zn  Zn103  1  0.49777831  0.12419994  0.12720682  1
  Zn  Zn104  1  0.49602678  0.50568013  -0.00725727  1
  Zn  Zn105  1  0.87390289  0.87275005  0.50343390  1
  Zn  Zn106  1  0.25642078  0.49704643  0.74881687  1
  Zn  Zn107  1  0.18716222  0.19463831  0.18801465  1
  Zn  Zn108  1  0.18626071  0.18606815  0.68104479  1
  Zn  Zn109  1  0.11533534  0.68905060  0.19171319  1
  Zn  Zn110  1  0.19103484  0.68419327  0.69026175  1
  Zn  Zn111  1  0.68231985  0.18280412  0.19191672  1
  Zn  Zn112  1  0.68638994  0.18428814  0.68934751  1
  Zn  Zn113  1  0.68454910  0.68446853  0.19004279  1
  Zn  Zn114  1  0.69351088  0.67965247  0.68698055  1
  Zn  Zn115  1  0.30614744  0.31068835  0.31580349  1
  Zn  Zn116  1  0.31382683  0.31399703  0.80628279  1
  Zn  Zn117  1  0.30653077  0.81611302  0.30992145  1
  Zn  Zn118  1  0.31390718  0.80977115  0.81204977  1
  Zn  Zn119  1  0.80914091  0.32456185  0.30319704  1
  Zn  Zn120  1  0.80688105  0.30784526  0.81094357  1
  Zn  Zn121  1  0.80903984  0.81459432  0.32489157  1
  Zn  Zn122  1  0.83323519  0.81224327  0.81628758  1
  Zn  Zn123  1  0.18864406  0.44005301  0.43936688  1
  Zn  Zn124  1  0.18423845  0.43725569  0.93345311  1
  Zn  Zn125  1  0.18842608  0.93830436  0.43901071  1
  Zn  Zn126  1  0.18721891  0.93915958  0.93917164  1
  Zn  Zn127  1  0.69019711  0.42919296  0.43877420  1
  Zn  Zn128  1  0.68022115  0.44005095  0.94053953  1
  Zn  Zn129  1  0.68961641  0.93535589  0.43981816  1
  Zn  Zn130  1  0.69985133  0.93381375  0.95013957  1
  Zn  Zn131  1  0.31074051  0.06827599  0.06072706  1
  Zn  Zn132  1  0.44363771  0.06056540  0.56181234  1
  Zn  Zn133  1  0.30570261  0.56807605  0.06494220  1
  Zn  Zn134  1  0.31332996  0.56068983  0.56543897  1
  Zn  Zn135  1  0.81170222  0.06028270  0.06216877  1
  Zn  Zn136  1  0.80709351  0.06162286  0.56142373  1
  Zn  Zn137  1  0.80599225  0.55842045  0.05283671  1
  Zn  Zn138  1  0.81255174  0.56243896  0.56457825  1
  Zn  Zn139  1  0.43618428  0.43873830  0.18746402  1
  Zn  Zn140  1  0.43830458  0.43439383  0.68214768  1
  Zn  Zn141  1  0.43649774  0.94072978  0.19107372  1
  Zn  Zn142  1  0.43773772  0.93121472  0.69596219  1
  Zn  Zn143  1  0.89580554  0.45481071  0.15368256  1
  Zn  Zn144  1  0.93808526  0.44165476  0.68194537  1
  Zn  Zn145  1  0.95355461  0.79370284  0.19595150  1
  Zn  Zn146  1  0.93271055  0.93446995  0.68771701  1
  Zn  Zn147  1  0.05642513  0.06513301  0.30905458  1
  Zn  Zn148  1  0.06082762  0.06810997  0.81261445  1
  Zn  Zn149  1  0.06263334  0.57083519  0.31480722  1
  Zn  Zn150  1  0.06519008  0.56105987  0.81459004  1
  Zn  Zn151  1  0.55769886  0.06700975  0.31669236  1
  Zn  Zn152  1  0.56213519  0.06002030  0.81265538  1
  Zn  Zn153  1  0.56973189  0.56463879  0.31375468  1
  Zn  Zn154  1  0.56247004  0.56000649  0.80572972  1
  Zn  Zn155  1  0.44308970  0.19042707  0.43209494  1
  Zn  Zn156  1  0.43880875  0.18826038  0.93594161  1
  Zn  Zn157  1  0.44044214  0.69042556  0.44058761  1
  Zn  Zn158  1  0.43816693  0.68919990  0.93958971  1
  Zn  Zn159  1  0.94074734  0.18739525  0.43109427  1
  Zn  Zn160  1  0.93586781  0.19519390  0.93744421  1
  Zn  Zn161  1  0.93054487  0.68326859  0.43033760  1
  Zn  Zn162  1  0.95453711  0.68613769  0.93860527  1
  Zn  Zn163  1  0.03384308  0.36248109  0.09051451  1
  Zn  Zn164  1  0.06077499  0.31063755  0.55810764  1
  Zn  Zn165  1  0.07365744  0.82559860  0.05314998  1
  Zn  Zn166  1  0.05953077  0.81430462  0.56535510  1
  Zn  Zn167  1  0.55662860  0.31317812  0.06000593  1
  Zn  Zn168  1  0.56489280  0.31308099  0.56147694  1
  Zn  Zn169  1  0.55816360  0.80935432  0.06285541  1
  Zn  Zn170  1  0.56324531  0.81717322  0.56751038  1
  O  O171  1  0.13760181  0.12421733  0.11130870  1
  O  O172  1  0.11403885  0.11828734  0.61457870  1
  O  O173  1  0.15267169  0.62962271  0.10354401  1
  O  O174  1  0.13148996  0.61826600  0.61349854  1
  O  O175  1  0.61999331  0.11333943  0.11911346  1
  O  O176  1  0.62938151  0.12202789  0.61035351  1
  O  O177  1  0.61465834  0.61748831  0.12384980  1
  O  O178  1  0.62070290  0.61116061  0.62649468  1
  O  O179  1  0.37016325  0.37829839  0.38812873  1
  O  O180  1  0.38073812  0.36786135  0.88350450  1
  O  O181  1  0.38025222  0.87988893  0.38398443  1
  O  O182  1  0.38081752  0.88244319  0.87622113  1
  O  O183  1  0.86756553  0.37102234  0.39403820  1
  O  O184  1  0.86872678  0.37116655  0.88049202  1
  O  O185  1  0.88171482  0.88647662  0.37965486  1
  O  O186  1  0.87954535  0.89205569  0.88562000  1
  O  O187  1  0.26439381  -0.00663250  0.37267318  1
  O  O188  1  0.25527257  0.00597763  0.87002869  1
  O  O189  1  0.25963445  0.50613284  0.37345496  1
  O  O190  1  0.24707888  0.51257588  0.87047113  1
  O  O191  1  0.75609934  -0.00306263  0.36444039  1
  O  O192  1  0.75687753  0.00550958  0.87196403  1
  O  O193  1  0.74546439  0.51498755  0.38809093  1
  O  O194  1  0.73997259  0.49592704  0.86037552  1
  O  O195  1  0.26099368  0.49268925  0.13893195  1
  O  O196  1  0.23842265  0.48980841  0.61888487  1
  O  O197  1  0.24819274  1.00057150  0.12920689  1
  O  O198  1  0.23973726  0.99224300  0.63856183  1
  O  O199  1  0.73123478  0.48791948  0.11806178  1
  O  O200  1  0.74527886  0.49201644  0.63008998  1
  O  O201  1  0.73988269  1.00216927  0.13765403  1
  O  O202  1  0.75397665  0.98924931  0.63637372  1
  O  O203  1  0.00546665  0.36063382  0.25626982  1
  O  O204  1  0.00518243  0.36784874  0.74571951  1
  O  O205  1  0.00272781  0.88013638  0.26843524  1
  O  O206  1  0.01125200  0.86787624  0.74846739  1
  O  O207  1  0.50767954  0.36248658  0.24083220  1
  O  O208  1  0.50563549  0.36592852  0.75344061  1
  O  O209  1  0.50518219  0.87231343  0.25836136  1
  O  O210  1  0.50051411  0.86227142  0.76276657  1
  O  O211  1  0.48961562  0.13768849  0.24906420  1
  O  O212  1  0.49852610  0.13840635  0.75621745  1
  O  O213  1  0.49451280  0.63180817  0.24534344  1
  O  O214  1  0.49822547  0.62913441  0.73713944  1
  O  O215  1  0.98946358  0.13763183  0.25065558  1
  O  O216  1  0.99899678  0.13272528  0.73878389  1
  O  O217  1  1.02265567  0.63208339  0.23091754  1
  O  O218  1  0.99168213  0.62802935  0.74925074  1
  O  O219  1  0.37059502  0.25567510  0.00721751  1
  O  O220  1  0.37697080  0.25565845  0.50245592  1
  O  O221  1  0.37799760  0.75112549  0.01795267  1
  O  O222  1  0.37156633  0.76062001  0.50825385  1
  O  O223  1  0.85750858  0.25778576  -0.00988872  1
  O  O224  1  0.87715417  0.25797515  0.50086148  1
  O  O225  1  0.88701066  0.76261948  -0.00750434  1
  O  O226  1  0.86932373  0.75074334  0.50809680  1
  O  O227  1  0.12296281  0.23736373  0.49009279  1
  O  O228  1  0.13389785  0.24701167  0.98642551  1
  O  O229  1  0.12992425  0.74668120  0.49865841  1
  O  O230  1  0.12306636  0.74545257  0.98523215  1
  O  O231  1  0.62654904  0.24346893  0.49294645  1
  O  O232  1  0.61294554  0.23966689  0.98666915  1
  O  O233  1  0.63914693  0.75168663  0.50565750  1
  O  O234  1  0.62038727  0.73523430  1.00149994  1
  O  O235  1  0.48771059  0.24879663  0.12984622  1
  O  O236  1  0.49256390  0.25682889  0.63337575  1
  O  O237  1  0.49206393  0.74069622  0.13334166  1
  O  O238  1  0.49629759  0.74372266  0.62995474  1
  O  O239  1  1.00813370  0.25763570  0.14269931  1
  O  O240  1  1.00605430  0.23986290  0.63117297  1
  O  O241  1  1.05700857  0.78556004  0.15799816  1
  O  O242  1  0.99412045  0.75346769  0.63725583  1
  O  O243  1  0.01724068  0.24343361  0.36824152  1
  O  O244  1  0.00873444  0.25117996  0.86131969  1
  O  O245  1  0.00934824  0.76024199  0.38442729  1
  O  O246  1  0.02020568  0.74398192  0.86037286  1
  O  O247  1  0.51143123  0.25324595  0.36564799  1
  O  O248  1  0.50423671  0.25859409  0.86644568  1
  O  O249  1  0.50042956  0.76122278  0.36954418  1
  O  O250  1  0.49592700  0.75832500  0.86720218  1
  O  O251  1  0.23118050  0.12152426  0.50384431  1
  O  O252  1  0.24398179  0.13373852  0.98832857  1
  O  O253  1  0.24443612  0.63157823  0.49768181  1
  O  O254  1  0.24511083  0.62425591  0.98443132  1
  O  O255  1  0.73940982  0.12820574  0.49617195  1
  O  O256  1  0.73494263  0.11501678  0.99186945  1
  O  O257  1  0.75649428  0.63821387  0.49479561  1
  O  O258  1  0.73223841  0.62740852  0.99849644  1
  O  O259  1  0.25510175  0.37178367  0.00489754  1
  O  O260  1  0.25713021  0.37150455  0.50746022  1
  O  O261  1  0.25533223  0.88275402  0.01382749  1
  O  O262  1  0.25705188  0.87132682  0.50949811  1
  O  O263  1  0.74195855  0.36853148  0.00427517  1
  O  O264  1  0.76214141  0.36996570  0.50946044  1
  O  O265  1  0.77096563  0.87402011  0.02107750  1
  O  O266  1  0.75334116  0.86360403  0.50820924  1
  O  O267  1  0.14157145  0.49896059  0.26154730  1
  O  O268  1  0.12865461  0.49218717  0.73847006  1
  O  O269  1  0.12216939  0.99729943  0.23983817  1
  O  O270  1  0.12616587  0.99200268  0.75070477  1
  O  O271  1  0.61299497  0.48790988  0.23907813  1
  O  O272  1  0.63318737  0.49441438  0.74020807  1
  O  O273  1  0.62746980  0.99348448  0.24703265  1
  O  O274  1  0.63980323  1.00370136  0.75043298  1
  O  O275  1  0.37401537  0.01109111  0.25900111  1
  O  O276  1  0.36662895  -0.00006936  0.76169783  1
  O  O277  1  0.37260284  0.50514444  0.26013528  1
  O  O278  1  0.36966699  0.50252116  0.73518736  1
  O  O279  1  0.86438741  0.01056240  0.25786337  1
  O  O280  1  0.86806909  0.00060723  0.75995737  1
  O  O281  1  0.86355000  0.46642079  0.26042356  1
  O  O282  1  0.87158025  0.51176532  0.74723332  1
  O  O283  1  0.12851668  0.36187441  0.37804919  1
  O  O284  1  0.12979961  0.36273918  0.86441117  1
  O  O285  1  0.11807936  0.87188878  0.37213843  1
  O  O286  1  0.13358393  0.86156608  0.86876876  1
  O  O287  1  0.62949624  0.36819770  0.36186313  1
  O  O288  1  0.61709696  0.36556994  0.86950733  1
  O  O289  1  0.61685537  0.87525098  0.36910781  1
  O  O290  1  0.61324458  0.88468902  0.88381036  1
  O  O291  1  0.37616250  0.13602156  0.13124715  1
  O  O292  1  0.37634205  0.13751622  0.62142331  1
  O  O293  1  0.37726863  0.63590487  0.13142287  1
  O  O294  1  0.38200647  0.63753891  0.62109890  1
  O  O295  1  0.86795175  0.12526625  0.13655489  1
  O  O296  1  0.88780233  0.11845639  0.62361060  1
  O  O297  1  0.87328112  0.58917152  0.13956243  1
  O  O298  1  0.87314065  0.63628272  0.63327274  1
  O  O299  1  0.26132881  0.25895051  0.12068046  1
  O  O300  1  0.25831550  0.25497141  0.61778363  1
  O  O301  1  0.26295469  0.76250819  0.12853823  1
  O  O302  1  0.25892269  0.75448149  0.62325152  1
  O  O303  1  0.72672163  0.25169961  0.11223776  1
  O  O304  1  0.74489359  0.26377040  0.62835882  1
  O  O305  1  0.74105719  0.75206118  0.11438133  1
  O  O306  1  0.75667661  0.75172126  0.61791842  1
  O  O307  1  0.23273306  0.24533876  0.37629526  1
  O  O308  1  0.24540704  0.24529974  0.87375116  1
  O  O309  1  0.24809145  0.74997839  0.38967016  1
  O  O310  1  0.23856388  0.73979158  0.86772474  1
  O  O311  1  0.73719568  0.25128503  0.37315357  1
  O  O312  1  0.73644120  0.23440800  0.86690435  1
  O  O313  1  0.74489899  0.74923776  0.39156194  1
  O  O314  1  0.75161190  0.76931313  0.87929533  1
  O  O315  1  0.01323094  0.12752865  -0.00629681  1
  O  O316  1  0.00417912  0.11464614  0.50379462  1
  O  O317  1  0.01602579  0.62257768  0.01422105  1
  O  O318  1  0.00721729  0.61913941  0.49531111  1
  O  O319  1  0.51055271  0.11635534  -0.00150633  1
  O  O320  1  0.51426739  0.12609429  0.49730942  1
  O  O321  1  0.50517669  0.62508050  0.00852915  1
  O  O322  1  0.49832855  0.61848336  0.51264426  1
  O  O323  1  0.49209914  0.38587004  0.50504247  1
  O  O324  1  0.48903369  0.37736229  0.98919729  1
  O  O325  1  0.49182880  0.86884545  0.49253266  1
  O  O326  1  0.49405892  0.88075137  0.99410699  1
  O  O327  1  0.98698934  0.38099849  0.50272495  1
  O  O328  1  0.97708954  0.35696216  0.99028336  1
  O  O329  1  1.00053736  0.88770665  0.49446986  1
  O  O330  1  0.99780137  0.89124965  0.99901354  1
  O  O331  1  0.49692489  0.50810019  0.38824285  1
  O  O332  1  0.50260963  0.48484899  0.87108228  1
  O  O333  1  0.48909427  0.98804423  0.37072380  1
  O  O334  1  0.49162480  0.99299010  0.87794082  1
  O  O335  1  1.00786201  0.50168620  0.38737638  1
  O  O336  1  1.01300985  0.49261425  0.88419379  1
  O  O337  1  0.99236064  0.99603887  0.38248877  1
  O  O338  1  0.99295175  1.01183981  0.88620028  1
  O  O339  1  0.01645066  0.01099992  0.10940591  1
  O  O340  1  0.00340635  0.00264843  0.61828764  1
  O  O341  1  0.00009205  0.47356184  0.10758847  1
  O  O342  1  0.01534078  0.49648316  0.61351990  1
  O  O343  1  0.50426546  0.00248846  0.11905246  1
  O  O344  1  0.49952365  -0.00225820  0.63387535  1
  O  O345  1  0.49895041  0.51410782  0.12369274  1
  O  O346  1  0.50965775  0.50617109  0.61597399  1
  O  O347  1  0.25303350  0.38421082  0.24317757  1
  O  O348  1  0.24364320  0.37273605  0.73349514  1
  O  O349  1  0.24167556  0.88135588  0.23694112  1
  O  O350  1  0.24069914  0.87833371  0.74701435  1
  O  O351  1  0.72971287  0.36068782  0.22765273  1
  O  O352  1  0.74641922  0.38157773  0.74299360  1
  O  O353  1  0.74121952  0.88202433  0.24175068  1
  O  O354  1  0.75161607  0.87816435  0.74686733  1
  O  O355  1  0.26328276  0.12785336  0.24766252  1
  O  O356  1  0.24976491  0.11765316  0.75432010  1
  O  O357  1  0.25966291  0.61737298  0.26256089  1
  O  O358  1  0.25242273  0.62166683  0.76296820  1
  O  O359  1  0.75444261  0.11893176  0.25477935  1
  O  O360  1  0.75268810  0.11622042  0.75824969  1
  O  O361  1  0.74048874  0.62153327  0.26569718  1
  O  O362  1  0.76757662  0.61712655  0.74979368  1
  O  O363  1  0.38002360  0.11652571  0.36908622  1
  O  O364  1  0.36883223  0.11825006  0.87143688  1
  O  O365  1  0.37191966  0.62200320  0.37415887  1
  O  O366  1  0.36171945  0.63137011  0.87507901  1
  O  O367  1  0.87263411  0.11367408  0.37224449  1
  O  O368  1  0.86556898  0.11713302  0.87616760  1
  O  O369  1  0.85559337  0.63087264  0.36261968  1
  O  O370  1  0.88316246  0.62709031  0.86599070  1
  O  O371  1  0.14232277  0.37027652  0.13052766  1
  O  O372  1  0.13256816  0.37897910  0.62263979  1
  O  O373  1  0.13941938  0.89929228  0.11995685  1
  O  O374  1  0.12789934  0.88125486  0.63436616  1
  O  O375  1  0.62338674  0.38119325  0.12439171  1
  O  O376  1  0.63238578  0.38329725  0.63084787  1
  O  O377  1  0.61512834  0.88627972  0.13313958  1
  O  O378  1  0.64063882  0.87848674  0.62409148  1
  O  O379  1  0.11863960  0.24971035  0.26148011  1
  O  O380  1  0.11820471  0.25431246  0.75183886  1
  O  O381  1  0.14750344  0.75740103  0.27731880  1
  O  O382  1  0.12205483  0.75504508  0.75295081  1
  O  O383  1  0.61450518  0.25218639  0.25679554  1
  O  O384  1  0.61772537  0.25312500  0.75752572  1
  O  O385  1  0.61827846  0.76432680  0.25017571  1
  O  O386  1  0.61370100  0.74327061  0.74416913  1
  O  O387  1  0.37922282  0.24818891  0.24585394  1
  O  O388  1  0.38264798  0.24885176  0.73768155  1
  O  O389  1  0.37821531  0.74681487  0.24441667  1
  O  O390  1  0.38629884  0.74685129  0.74139862  1
  O  O391  1  0.88724227  0.24508537  0.25828322  1
  O  O392  1  0.88645222  0.24624037  0.75147207  1
  O  O393  1  0.84966911  0.77280047  0.22764664  1
  O  O394  1  0.88752627  0.73841436  0.74652835  1
  O  O395  1  0.38335113  0.49278318  0.49710472  1
  O  O396  1  0.37419849  0.49023715  1.00339765  1
  O  O397  1  0.37704393  0.98887123  0.49505766  1
  O  O398  1  0.37908696  1.00291331  0.98833843  1
  O  O399  1  0.88718503  0.49540515  0.50652462  1
  O  O400  1  0.86500337  0.47261559  1.00431611  1
  O  O401  1  0.88066321  0.99799071  0.49328002  1
  O  O402  1  0.88427638  0.99729258  0.99614455  1
  O  O403  1  0.12057410  0.01398882  0.00011708  1
  O  O404  1  0.11729029  0.00724754  0.50310585  1
  O  O405  1  0.13160983  0.51206330  0.00187837  1
  O  O406  1  0.11866711  0.50924302  0.50395692  1
  O  O407  1  0.62121858  0.00259441  0.00986593  1
  O  O408  1  0.62903793  0.01291998  0.50117590  1
  O  O409  1  0.61589241  0.51197230  0.00680850  1
  O  O410  1  0.61831086  0.48982183  0.50826424  1
  O  O411  1  0.36900218  0.36934580  0.11620390  1
  O  O412  1  0.36860714  0.36538187  0.61234117  1
  O  O413  1  0.37138919  0.86658046  0.12741213  1
  O  O414  1  0.37175881  0.86501053  0.62057964  1
  O  O415  1  0.84754057  0.35706677  0.11106536  1
  O  O416  1  0.86795660  0.37860086  0.61339166  1
  O  O417  1  0.88883875  0.86999296  0.11700157  1
  O  O418  1  0.86519558  0.86126904  0.62697473  1
  O  O419  1  0.12205639  0.12461796  0.38654020  1
  O  O420  1  0.13166979  0.13738727  0.87696832  1
  O  O421  1  0.13235104  0.63571548  0.38916744  1
  O  O422  1  0.13512386  0.63302809  0.88353992  1
  O  O423  1  0.62548405  0.13236772  0.38463218  1
  O  O424  1  0.62910641  0.12872868  0.88245563  1
  O  O425  1  0.63656534  0.63129328  0.37819812  1
  O  O426  1  0.61482819  0.62287639  0.88651044  1
