# generated using pymatgen
data_V85Zn86O256
_symmetry_space_group_name_H-M   'P 1'
_cell_length_a   16.94165298
_cell_length_b   16.94407093
_cell_length_c   16.95130056
_cell_angle_alpha   90.01874175
_cell_angle_beta   89.97984505
_cell_angle_gamma   89.94067256
_symmetry_Int_Tables_number   1
_chemical_formula_structural   V85Zn86O256
_chemical_formula_sum   'V85 Zn86 O256'
_cell_volume   4866.04682465
_cell_formula_units_Z   1
loop_
 _symmetry_equiv_pos_site_id
 _symmetry_equiv_pos_as_xyz
  1  'x, y, z'
loop_
 _atom_site_type_symbol
 _atom_site_label
 _atom_site_symmetry_multiplicity
 _atom_site_fract_x
 _atom_site_fract_y
 _atom_site_fract_z
 _atom_site_occupancy
  V  V0  1  0.50317070  0.74786257  0.24690233  1
  V  V1  1  0.24985859  0.87500860  0.12560064  1
  V  V2  1  0.12754909  0.37390877  0.24477884  1
  V  V3  1  0.12969393  0.49668949  0.12236086  1
  V  V4  1  0.87550188  -0.00105797  0.37640836  1
  V  V5  1  -0.00146835  0.00054043  0.49873780  1
  V  V6  1  0.63623813  0.00181637  0.62699829  1
  V  V7  1  0.25348139  0.50134184  0.75119635  1
  V  V8  1  0.50306014  0.62115669  0.11563806  1
  V  V9  1  0.12095543  0.12730825  0.49772886  1
  V  V10  1  0.75036896  0.24894156  0.00273106  1
  V  V11  1  0.50112665  0.87464147  0.37144001  1
  V  V12  1  0.37147364  0.37579113  0.00767471  1
  V  V13  1  -0.00241393  0.25627940  0.25313923  1
  V  V14  1  0.37545049  0.24577963  0.63181481  1
  V  V15  1  0.49899975  0.00019264  0.00026659  1
  V  V16  1  0.25340249  0.88278350  0.62488221  1
  V  V17  1  0.37470803  0.01471846  0.86740352  1
  V  V18  1  0.13410987  0.74218600  0.38292781  1
  V  V19  1  0.51771204  0.37859122  0.37356106  1
  V  V20  1  0.50018696  0.12782433  0.12815639  1
  V  V21  1  0.88127987  0.86331501  0.51034541  1
  V  V22  1  0.12128412  0.00193802  0.62795509  1
  V  V23  1  0.25917311  0.62523513  0.87375790  1
  V  V24  1  0.62832860  -0.00193604  0.12397627  1
  V  V25  1  0.11984000  0.25829151  0.37653126  1
  V  V26  1  0.51339714  0.00287019  0.49956662  1
  V  V27  1  0.63196429  0.74342006  0.87863959  1
  V  V28  1  0.00143488  0.00412018  -0.00162355  1
  V  V29  1  0.38188441  0.49161365  0.87268729  1
  V  V30  1  0.37346290  0.37261269  0.48612297  1
  V  V31  1  0.00395150  0.12723302  0.12348152  1
  V  V32  1  0.50948700  0.12705412  0.62189202  1
  V  V33  1  0.88152025  0.37719519  0.47983577  1
  V  V34  1  0.00387973  0.87337455  0.37584367  1
  V  V35  1  0.86312479  0.50756731  0.87490978  1
  V  V36  1  0.73994661  0.25080918  0.49650170  1
  V  V37  1  0.12333614  0.62530662  -0.00090871  1
  V  V38  1  0.27149359  0.72123070  0.52908466  1
  V  V39  1  0.74554260  0.49813406  0.26363071  1
  V  V40  1  0.25001737  0.75042848  -0.00031808  1
  V  V41  1  0.00270998  0.49904238  0.48643349  1
  V  V42  1  0.86790738  0.12641232  0.74922180  1
  V  V43  1  0.12678123  0.00094804  0.12050120  1
  V  V44  1  0.00345467  0.37583819  0.87013179  1
  V  V45  1  0.75473061  0.86177453  0.12247987  1
  V  V46  1  0.62444748  0.37840258  0.74847489  1
  V  V47  1  0.37597056  0.12771755  0.25238817  1
  V  V48  1  0.13088009  0.23651260  0.87688942  1
  V  V49  1  0.24671021  0.23951516  0.00674663  1
  V  V50  1  0.12587239  0.87270190  0.24985085  1
  V  V51  1  -0.00729650  0.62648087  0.12210532  1
  V  V52  1  0.49758223  0.24823285  0.75586570  1
  V  V53  1  0.75479136  0.86347113  0.62916899  1
  V  V54  1  0.49519923  0.50417001  0.51045222  1
  V  V55  1  0.12809276  0.74982123  0.86674297  1
  V  V56  1  0.12311907  0.50774554  0.62190815  1
  V  V57  1  0.87550574  0.26338789  0.62637602  1
  V  V58  1  0.24924033  0.12562343  0.37798701  1
  V  V59  1  0.00124132  0.86663679  0.87338086  1
  V  V60  1  0.87627467  0.12459276  0.25230035  1
  V  V61  1  0.26062438  0.62194308  0.36979973  1
  V  V62  1  0.87670934  0.37276217  0.00302998  1
  V  V63  1  0.49798650  0.87345146  0.87313303  1
  V  V64  1  0.73759159  0.12456647  0.37980798  1
  V  V65  1  0.87159665  0.00108547  0.87256299  1
  V  V66  1  0.73935161  0.37596291  0.12975341  1
  V  V67  1  0.87379347  0.61622138  0.26432426  1
  V  V68  1  0.74855713  0.12358352  0.87320773  1
  V  V69  1  0.25700259  0.49463247  0.24773335  1
  V  V70  1  0.87273640  0.86394769  0.00098511  1
  V  V71  1  0.62142038  0.25692330  0.87728212  1
  V  V72  1  0.24900569  0.37293244  0.62620184  1
  V  V73  1  -0.00550612  0.12805007  0.62473970  1
  V  V74  1  0.24903444  0.25086636  0.50018534  1
  V  V75  1  0.37325792  0.87443427  0.50186742  1
  V  V76  1  0.00193396  0.50030499  -0.00225247  1
  V  V77  1  0.37388067  0.74874957  0.12425657  1
  V  V78  1  0.37416313  0.00359512  0.38281100  1
  V  V79  1  -0.00239091  0.74717661  0.24709769  1
  V  V80  1  0.75227050  -0.00128275  0.24829609  1
  V  V81  1  0.51528918  0.25219152  0.25784754  1
  V  V82  1  0.62721404  0.87828550  0.75081157  1
  V  V83  1  0.62487415  0.12564697  -0.00117904  1
  V  V84  1  0.48623578  0.74292709  0.73858738  1
  Zn  Zn85  1  0.63163177  0.63161214  0.50564011  1
  Zn  Zn86  1  -0.00336523  0.75337734  0.73044814  1
  Zn  Zn87  1  0.37043489  0.25491113  0.13064084  1
  Zn  Zn88  1  0.50578262  0.48953379  -0.00391926  1
  Zn  Zn89  1  0.75467902  0.73925184  0.49447072  1
  Zn  Zn90  1  0.63863091  0.73327888  0.37210411  1
  Zn  Zn91  1  0.25066844  0.00058993  0.25036910  1
  Zn  Zn92  1  0.64250680  0.62004168  -0.00148284  1
  Zn  Zn93  1  0.37950782  0.61507933  0.24576340  1
  Zn  Zn94  1  0.12908579  0.88021795  0.75128874  1
  Zn  Zn95  1  0.62870044  0.87024966  0.24676478  1
  Zn  Zn96  1  0.12549628  0.37449194  0.75288538  1
  Zn  Zn97  1  0.24826596  0.01504307  0.76176797  1
  Zn  Zn98  1  0.74781586  0.37952453  0.62319526  1
  Zn  Zn99  1  0.62047151  0.51484278  0.62972281  1
  Zn  Zn100  1  0.74582212  0.51342233  0.74976831  1
  Zn  Zn101  1  -0.00024218  0.25081924  0.75354735  1
  Zn  Zn102  1  0.37405699  0.87824087  -0.00051269  1
  Zn  Zn103  1  0.87565522  0.25040036  0.12671107  1
  Zn  Zn104  1  -0.00676993  0.63222237  0.62078846  1
  Zn  Zn105  1  0.62521897  0.50079707  0.12618956  1
  Zn  Zn106  1  0.86797981  0.64413665  0.74086504  1
  Zn  Zn107  1  0.18735836  0.18563412  0.18762879  1
  Zn  Zn108  1  0.18467027  0.18672962  0.69405847  1
  Zn  Zn109  1  0.18523897  0.68406405  0.18953451  1
  Zn  Zn110  1  0.20218928  0.68339034  0.68450525  1
  Zn  Zn111  1  0.68985531  0.18508991  0.18752168  1
  Zn  Zn112  1  0.68861511  0.19205095  0.68563044  1
  Zn  Zn113  1  0.68945232  0.68098375  0.18704465  1
  Zn  Zn114  1  0.68289956  0.68331427  0.68981315  1
  Zn  Zn115  1  0.30916641  0.30991548  0.30937122  1
  Zn  Zn116  1  0.31088644  0.31202114  0.81597433  1
  Zn  Zn117  1  0.31677698  0.81163309  0.31081938  1
  Zn  Zn118  1  0.31322570  0.82240295  0.80963839  1
  Zn  Zn119  1  0.80518596  0.31093146  0.31210804  1
  Zn  Zn120  1  0.81105213  0.31613624  0.81493935  1
  Zn  Zn121  1  0.81943000  0.81080848  0.30944476  1
  Zn  Zn122  1  0.81102501  0.81820153  0.80647917  1
  Zn  Zn123  1  0.18713505  0.44046397  0.43475039  1
  Zn  Zn124  1  0.19216954  0.43186806  0.93854594  1
  Zn  Zn125  1  0.18814228  0.93779539  0.43942260  1
  Zn  Zn126  1  0.19052256  0.93985733  0.93827031  1
  Zn  Zn127  1  0.68759212  0.44336925  0.44716895  1
  Zn  Zn128  1  0.68481919  0.43532617  0.94276296  1
  Zn  Zn129  1  0.70322401  0.90073550  0.42443334  1
  Zn  Zn130  1  0.68908289  0.93568917  0.93657802  1
  Zn  Zn131  1  0.31486226  0.06400429  0.06205466  1
  Zn  Zn132  1  0.29736368  0.08449065  0.59779995  1
  Zn  Zn133  1  0.31286802  0.56162519  0.06146677  1
  Zn  Zn134  1  0.31510642  0.55548760  0.55940526  1
  Zn  Zn135  1  0.81618419  0.06061097  0.06169736  1
  Zn  Zn136  1  0.81226273  0.06468019  0.56017671  1
  Zn  Zn137  1  0.81329399  0.55831171  0.06807450  1
  Zn  Zn138  1  0.80330379  0.56638732  0.56592191  1
  Zn  Zn139  1  0.44256652  0.43239366  0.18652095  1
  Zn  Zn140  1  0.43514257  0.42888284  0.69030334  1
  Zn  Zn141  1  0.43559048  0.93900433  0.18815382  1
  Zn  Zn142  1  0.44109921  0.93721181  0.68649643  1
  Zn  Zn143  1  0.93713614  0.43949679  0.18842094  1
  Zn  Zn144  1  0.91870786  0.47160780  0.67205897  1
  Zn  Zn145  1  0.93774570  0.93513968  0.18535358  1
  Zn  Zn146  1  0.93856904  0.93579005  0.69231839  1
  Zn  Zn147  1  0.06382738  0.06403332  0.30942502  1
  Zn  Zn148  1  0.05584606  0.06364056  0.81093304  1
  Zn  Zn149  1  0.06759823  0.56335420  0.31043307  1
  Zn  Zn150  1  0.05857980  0.56722316  0.80749336  1
  Zn  Zn151  1  0.56332141  0.05831343  0.31052295  1
  Zn  Zn152  1  0.56007491  0.06516000  0.80981591  1
  Zn  Zn153  1  0.56156463  0.55873646  0.31567143  1
  Zn  Zn154  1  0.55792433  0.56896340  0.80973508  1
  Zn  Zn155  1  0.44421933  0.18957254  0.44088523  1
  Zn  Zn156  1  0.43610192  0.19196086  0.94124144  1
  Zn  Zn157  1  0.46340441  0.66911878  0.42090152  1
  Zn  Zn158  1  0.43966540  0.68964507  0.93429521  1
  Zn  Zn159  1  0.93204454  0.19021772  0.43672370  1
  Zn  Zn160  1  0.94025921  0.18851996  0.93775424  1
  Zn  Zn161  1  0.94503907  0.68447621  0.44082205  1
  Zn  Zn162  1  0.80987824  0.68588048  0.92991449  1
  Zn  Zn163  1  0.06581782  0.31183833  0.06027380  1
  Zn  Zn164  1  0.05963280  0.31784792  0.56403535  1
  Zn  Zn165  1  0.06066550  0.81076820  0.05945085  1
  Zn  Zn166  1  0.07708230  0.80787434  0.55886488  1
  Zn  Zn167  1  0.55574890  0.31251238  0.06337935  1
  Zn  Zn168  1  0.55933404  0.31744284  0.56399284  1
  Zn  Zn169  1  0.56464245  0.81266083  0.06090941  1
  Zn  Zn170  1  0.56551531  0.80760330  0.56297866  1
  O  O171  1  0.11282875  0.11535742  0.13152402  1
  O  O172  1  0.11400705  0.11951085  0.61718715  1
  O  O173  1  0.11713423  0.61713638  0.12061986  1
  O  O174  1  0.12924491  0.60808554  0.62393676  1
  O  O175  1  0.62040814  0.11861603  0.11856230  1
  O  O176  1  0.61818144  0.11864712  0.62859960  1
  O  O177  1  0.61565298  0.62644566  0.11997036  1
  O  O178  1  0.61579619  0.62869367  0.61970150  1
  O  O179  1  0.37191591  0.36919821  0.38472478  1
  O  O180  1  0.36951616  0.38371117  0.88536065  1
  O  O181  1  0.38059697  0.88516399  0.37773940  1
  O  O182  1  0.38766447  0.88290778  0.87960041  1
  O  O183  1  0.87862078  0.36876356  0.38203266  1
  O  O184  1  0.88270904  0.37373008  0.88929855  1
  O  O185  1  0.88717536  0.88210012  0.38334105  1
  O  O186  1  0.88215978  0.88495672  0.88330518  1
  O  O187  1  0.25757655  0.00757618  0.37512356  1
  O  O188  1  0.26847583  -0.00058500  0.87790692  1
  O  O189  1  0.24226043  0.51106765  0.36144155  1
  O  O190  1  0.25426794  0.50572951  0.86782993  1
  O  O191  1  0.75789231  -0.00060154  0.36867539  1
  O  O192  1  0.76043232  0.00950893  0.88160828  1
  O  O193  1  0.74815119  0.49237978  0.36230502  1
  O  O194  1  0.76132924  0.49461733  0.88036662  1
  O  O195  1  0.23649166  0.50567118  0.13066102  1
  O  O196  1  0.24291431  0.49044326  0.62967167  1
  O  O197  1  0.24291761  0.99599663  0.12486434  1
  O  O198  1  0.23476053  0.99064275  0.60946951  1
  O  O199  1  0.74984065  0.48874503  0.13558919  1
  O  O200  1  0.73807182  0.49326584  0.63190356  1
  O  O201  1  0.74706461  0.99689449  0.13033684  1
  O  O202  1  0.73825462  1.00131231  0.62151713  1
  O  O203  1  0.00767434  0.36257345  0.24448121  1
  O  O204  1  -0.00031461  0.37308044  0.76607539  1
  O  O205  1  0.00334678  0.86551642  0.25459619  1
  O  O206  1  0.00895760  0.87570923  0.76055389  1
  O  O207  1  0.49750363  0.36752453  0.26491830  1
  O  O208  1  0.51122888  0.36043407  0.74942306  1
  O  O209  1  0.50018051  0.86817993  0.25302612  1
  O  O210  1  0.50638241  0.87268100  0.75902197  1
  O  O211  1  0.49394427  0.13119392  0.25020531  1
  O  O212  1  0.50502557  0.13910474  0.73908471  1
  O  O213  1  0.49782207  0.63230716  0.23790155  1
  O  O214  1  0.49812423  0.64310361  0.74912760  1
  O  O215  1  0.99654737  0.13471482  0.24340380  1
  O  O216  1  0.98568431  0.12960677  0.74469721  1
  O  O217  1  0.99481631  0.62774454  0.24454750  1
  O  O218  1  0.99658156  0.63240729  0.74238837  1
  O  O219  1  0.36460220  0.25737386  0.00226320  1
  O  O220  1  0.36977940  0.25598000  0.50731763  1
  O  O221  1  0.37028228  0.75263587  0.00981859  1
  O  O222  1  0.36143803  0.75828622  0.49337470  1
  O  O223  1  0.87034454  0.25554461  0.00336641  1
  O  O224  1  0.87251789  0.26217830  0.50704864  1
  O  O225  1  0.87838627  0.76654196  -0.01018660  1
  O  O226  1  0.87782492  0.76149220  0.49531343  1
  O  O227  1  0.12585508  0.24815096  0.49247926  1
  O  O228  1  0.13757777  0.25154636  0.99176312  1
  O  O229  1  0.15313337  0.75331722  0.48562086  1
  O  O230  1  0.13172298  0.74590416  0.99090130  1
  O  O231  1  0.64180937  0.25814950  0.50541490  1
  O  O232  1  0.62736405  0.24603621  0.99414662  1
  O  O233  1  0.63127349  0.75634046  0.49084048  1
  O  O234  1  0.61954816  0.75226116  0.98098979  1
  O  O235  1  0.49589290  0.24411463  0.13737139  1
  O  O236  1  0.49538939  0.24569862  0.63022784  1
  O  O237  1  0.49398361  0.74739363  0.13041127  1
  O  O238  1  0.49608986  0.76426048  0.64025005  1
  O  O239  1  1.00113447  0.24135806  0.13033881  1
  O  O240  1  0.99164583  0.24605800  0.62753711  1
  O  O241  1  1.00807042  0.73977576  0.13492955  1
  O  O242  1  1.00780057  0.74572280  0.61557873  1
  O  O243  1  0.00853655  0.24222078  0.36472920  1
  O  O244  1  0.01308381  0.25705677  0.88010299  1
  O  O245  1  0.01454192  0.75265641  0.37218033  1
  O  O246  1  0.01352189  0.76486821  0.88064261  1
  O  O247  1  0.49713593  0.26366867  0.36986055  1
  O  O248  1  0.50940777  0.24205223  0.86799032  1
  O  O249  1  0.48460496  0.76220268  0.35651834  1
  O  O250  1  0.50640724  0.75981168  0.86948659  1
  O  O251  1  0.24138296  0.13297779  0.49930282  1
  O  O252  1  0.25679435  0.14038718  0.99898475  1
  O  O253  1  0.25220299  0.61973977  0.47563031  1
  O  O254  1  0.24322358  0.63054787  0.99420313  1
  O  O255  1  0.75634106  0.14033891  0.49266009  1
  O  O256  1  0.74448647  0.13064043  0.99743048  1
  O  O257  1  0.74815443  0.62488777  0.49139577  1
  O  O258  1  0.75497117  0.62985535  1.00835575  1
  O  O259  1  0.26225974  0.36196074  -0.00265823  1
  O  O260  1  0.25485298  0.36996272  0.50469464  1
  O  O261  1  0.25144973  0.86831614  0.00874985  1
  O  O262  1  0.26461439  0.87876115  0.50206339  1
  O  O263  1  0.75805273  0.36770889  0.00868002  1
  O  O264  1  0.76307834  0.36738245  0.49847312  1
  O  O265  1  0.76491896  0.88175079  0.00660760  1
  O  O266  1  0.76794057  0.88141432  0.51582803  1
  O  O267  1  0.12976605  0.49045854  0.24168441  1
  O  O268  1  0.13487722  0.49606201  0.73947253  1
  O  O269  1  0.12437346  0.99213597  0.23828040  1
  O  O270  1  0.12645194  1.00502691  0.74078256  1
  O  O271  1  0.64178415  0.50971564  0.24813629  1
  O  O272  1  0.61984069  0.48672388  0.75684826  1
  O  O273  1  0.63370312  0.99696537  0.24054375  1
  O  O274  1  0.61549008  0.98908568  0.74041425  1
  O  O275  1  0.37705414  0.01179167  0.26224339  1
  O  O276  1  0.38190753  -0.00085386  0.76599178  1
  O  O277  1  0.36006519  0.49389524  0.24141542  1
  O  O278  1  0.36328975  0.49117290  0.75685881  1
  O  O279  1  0.87276458  0.00423716  0.25560673  1
  O  O280  1  0.88100840  0.00941259  0.76464850  1
  O  O281  1  0.86972981  0.50947471  0.25149900  1
  O  O282  1  0.86716588  0.48107004  0.77394370  1
  O  O283  1  0.12790720  0.36272699  0.36699901  1
  O  O284  1  0.11783490  0.36752352  0.87568910  1
  O  O285  1  0.12315385  0.86851256  0.36910501  1
  O  O286  1  0.12133527  0.86982089  0.87546573  1
  O  O287  1  0.61564466  0.37677588  0.37867139  1
  O  O288  1  0.62666988  0.36233896  0.86959849  1
  O  O289  1  0.60493079  0.88444900  0.36744306  1
  O  O290  1  0.61594716  0.87495942  0.86979063  1
  O  O291  1  0.38208707  0.12427949  0.13702288  1
  O  O292  1  0.39452224  0.14094607  0.61352154  1
  O  O293  1  0.38052110  0.63304678  0.12516142  1
  O  O294  1  0.30227745  0.65549103  0.60917297  1
  O  O295  1  0.88790181  0.12361446  0.13278752  1
  O  O296  1  0.87640370  0.13438145  0.63157676  1
  O  O297  1  0.89051778  0.61753801  0.13620288  1
  O  O298  1  0.88677321  0.58233453  0.63966221  1
  O  O299  1  0.24940453  0.24621798  0.11239160  1
  O  O300  1  0.25651010  0.25533863  0.62001820  1
  O  O301  1  0.25576268  0.75332515  0.12209996  1
  O  O302  1  0.22761136  0.77791691  0.61968157  1
  O  O303  1  0.75396549  0.25602606  0.12200877  1
  O  O304  1  0.75890200  0.25330349  0.61329640  1
  O  O305  1  0.75037934  0.76327689  0.13362663  1
  O  O306  1  0.74863916  0.76254790  0.62309826  1
  O  O307  1  0.24075415  0.24384986  0.38072396  1
  O  O308  1  0.23716597  0.24997945  0.88205558  1
  O  O309  1  0.24730412  0.73454181  0.36139321  1
  O  O310  1  0.24780433  0.74513881  0.87867722  1
  O  O311  1  0.75319178  0.24018363  0.38687572  1
  O  O312  1  0.74240753  0.24365229  0.88331926  1
  O  O313  1  0.73987004  0.78835190  0.38378663  1
  O  O314  1  0.73568673  0.75994655  0.87519557  1
  O  O315  1  -0.00398979  0.11278552  0.00811962  1
  O  O316  1  0.00109575  0.12093387  0.50406576  1
  O  O317  1  0.00843863  0.61564528  0.00915224  1
  O  O318  1  -0.00311271  0.60319584  0.50283435  1
  O  O319  1  0.50538597  0.12031637  0.00738008  1
  O  O320  1  0.50478278  0.11534421  0.50580808  1
  O  O321  1  0.49783868  0.62525682  0.01090304  1
  O  O322  1  0.46945224  0.60170344  0.51267068  1
  O  O323  1  0.49174032  0.37537965  0.48925369  1
  O  O324  1  0.48031834  0.37158909  0.99991306  1
  O  O325  1  0.48882714  0.87935270  0.49139074  1
  O  O326  1  0.50006705  0.88517888  0.99368808  1
  O  O327  1  0.98906117  0.37899287  0.49829386  1
  O  O328  1  0.99439092  0.37969923  0.99503204  1
  O  O329  1  0.99891407  0.88207627  0.49524901  1
  O  O330  1  0.99094629  0.88440434  0.99692721  1
  O  O331  1  0.49700761  0.48335547  0.38400037  1
  O  O332  1  0.48423417  0.50783855  0.87642047  1
  O  O333  1  0.49281209  0.99667597  0.38108094  1
  O  O334  1  0.49511791  0.99605136  0.88249360  1
  O  O335  1  1.01417921  0.49683697  0.38788295  1
  O  O336  1  0.99666572  0.49265869  0.88136710  1
  O  O337  1  0.99719330  0.99557953  0.37901192  1
  O  O338  1  0.99656498  0.99315912  0.88352046  1
  O  O339  1  0.00648733  0.00473507  0.11840027  1
  O  O340  1  0.00372924  0.00691652  0.61958250  1
  O  O341  1  0.01048325  0.50488223  0.11989822  1
  O  O342  1  0.01975912  0.48771702  0.61855425  1
  O  O343  1  0.50517526  0.00508378  0.11824169  1
  O  O344  1  0.50682075  0.00915937  0.61793098  1
  O  O345  1  0.50215025  0.50783229  0.12397861  1
  O  O346  1  0.49987245  0.48437989  0.61334354  1
  O  O347  1  0.23690252  0.37916280  0.25167850  1
  O  O348  1  0.24864868  0.38016746  0.74193888  1
  O  O349  1  0.24562622  0.87825079  0.24271531  1
  O  O350  1  0.24867527  0.88995009  0.74025017  1
  O  O351  1  0.75753721  0.38749502  0.24260608  1
  O  O352  1  0.73228569  0.37183884  0.75177174  1
  O  O353  1  0.75587986  0.88471015  0.23888993  1
  O  O354  1  0.73991613  0.88091303  0.74207784  1
  O  O355  1  0.25815864  0.12331021  0.25804204  1
  O  O356  1  0.26438634  0.11260906  0.70805060  1
  O  O357  1  0.25220491  0.61301274  0.25291060  1
  O  O358  1  0.24750362  0.61322455  0.76279068  1
  O  O359  1  0.75686628  0.11787313  0.25704049  1
  O  O360  1  0.76099068  0.13024980  0.75452373  1
  O  O361  1  0.76545800  0.61434851  0.24763629  1
  O  O362  1  0.75436683  0.62719071  0.75519321  1
  O  O363  1  0.37126720  0.12076825  0.37324023  1
  O  O364  1  0.38338867  0.11300495  0.87596562  1
  O  O365  1  0.36477215  0.62628324  0.36412256  1
  O  O366  1  0.36244693  0.61648222  0.88482856  1
  O  O367  1  0.86908373  0.11653343  0.36986992  1
  O  O368  1  0.87107848  0.12128814  0.86896800  1
  O  O369  1  0.88366060  0.62458109  0.36200514  1
  O  O370  1  0.87780981  0.60812236  0.87509626  1
  O  O371  1  0.12111965  0.38307367  0.13288927  1
  O  O372  1  0.13889979  0.37405854  0.62760370  1
  O  O373  1  0.13004724  0.88012907  0.12929510  1
  O  O374  1  0.12636384  0.89305611  0.62391716  1
  O  O375  1  0.63657089  0.37306539  0.12222349  1
  O  O376  1  0.62527175  0.37205837  0.64150135  1
  O  O377  1  0.63607189  0.88063318  0.12323854  1
  O  O378  1  0.63378720  0.88241936  0.63287512  1
  O  O379  1  0.11957980  0.25557688  0.25517760  1
  O  O380  1  0.12280533  0.25170692  0.76347777  1
  O  O381  1  0.11662232  0.75488414  0.25567322  1
  O  O382  1  0.13154199  0.75116308  0.76166812  1
  O  O383  1  0.61438615  0.24279869  0.25130683  1
  O  O384  1  0.61966608  0.25619870  0.75840918  1
  O  O385  1  0.61697660  0.74980967  0.25381637  1
  O  O386  1  0.61682978  0.76439661  0.76198611  1
  O  O387  1  0.37911700  0.23825937  0.25149102  1
  O  O388  1  0.38303800  0.25689906  0.74215731  1
  O  O389  1  0.38077067  0.74981693  0.23416285  1
  O  O390  1  0.38705077  0.75609090  0.75599517  1
  O  O391  1  0.88250221  0.24454353  0.24947718  1
  O  O392  1  0.87458025  0.24581428  0.74339428  1
  O  O393  1  0.89031437  0.73845314  0.25451743  1
  O  O394  1  0.88619323  0.75558946  0.75975042  1
  O  O395  1  0.38084845  0.48104549  0.50617964  1
  O  O396  1  0.37141500  0.48771103  0.99362848  1
  O  O397  1  0.38435454  0.99466971  0.48923376  1
  O  O398  1  0.38747161  1.00116913  0.99462387  1
  O  O399  1  0.88928402  0.48264841  0.50004184  1
  O  O400  1  0.88142250  0.49064248  0.99184401  1
  O  O401  1  0.88413167  0.99577304  0.49558526  1
  O  O402  1  0.88409317  0.99716345  0.98957059  1
  O  O403  1  0.11752090  -0.00504381  0.01217709  1
  O  O404  1  0.11488268  0.00681578  0.50286504  1
  O  O405  1  0.12343142  0.50264323  0.00549062  1
  O  O406  1  0.11591439  0.48852741  0.51116888  1
  O  O407  1  0.61569108  0.00453131  0.00261690  1
  O  O408  1  0.61430256  -0.01270866  0.50898011  1
  O  O409  1  0.62043311  0.50254146  0.00449747  1
  O  O410  1  0.60499596  0.49958011  0.50340045  1
  O  O411  1  0.37302572  0.37349790  0.11318614  1
  O  O412  1  0.36487347  0.36347216  0.61820667  1
  O  O413  1  0.36715646  0.86986602  0.12309535  1
  O  O414  1  0.36625906  0.88577603  0.61431992  1
  O  O415  1  0.87216199  0.37479597  0.11406049  1
  O  O416  1  0.87435074  0.36878225  0.62602947  1
  O  O417  1  0.87127251  0.87914940  0.10937631  1
  O  O418  1  0.86862332  0.88286014  0.61998847  1
  O  O419  1  0.12953940  0.13303352  0.37899624  1
  O  O420  1  0.11952651  0.13764450  0.87422758  1
  O  O421  1  0.13798497  0.63521862  0.36559326  1
  O  O422  1  0.13287224  0.63209855  0.88047898  1
  O  O423  1  0.63887636  0.11537843  0.37489294  1
  O  O424  1  0.62985150  0.13160887  0.87959360  1
  O  O425  1  0.57928614  0.63656290  0.39527798  1
  O  O426  1  0.62170379  0.64030145  0.87672808  1
