# generated using pymatgen
data_V85Zn86O256
_symmetry_space_group_name_H-M   'P 1'
_cell_length_a   16.92989747
_cell_length_b   16.93487021
_cell_length_c   16.93399642
_cell_angle_alpha   89.95926343
_cell_angle_beta   89.99489179
_cell_angle_gamma   90.00285332
_symmetry_Int_Tables_number   1
_chemical_formula_structural   V85Zn86O256
_chemical_formula_sum   'V85 Zn86 O256'
_cell_volume   4855.07062676
_cell_formula_units_Z   1
loop_
 _symmetry_equiv_pos_site_id
 _symmetry_equiv_pos_as_xyz
  1  'x, y, z'
loop_
 _atom_site_type_symbol
 _atom_site_label
 _atom_site_symmetry_multiplicity
 _atom_site_fract_x
 _atom_site_fract_y
 _atom_site_fract_z
 _atom_site_occupancy
  V  V0  1  0.87982995  0.24994815  0.13589882  1
  V  V1  1  0.49507118  0.24984144  0.75136863  1
  V  V2  1  0.37454487  0.63420174  0.24601668  1
  V  V3  1  0.50322454  -0.00504822  -0.00258792  1
  V  V4  1  0.63762688  0.49975141  0.12397321  1
  V  V5  1  0.50506363  0.75812574  0.24542538  1
  V  V6  1  0.74489303  0.24846785  0.49858241  1
  V  V7  1  0.25228304  0.24799147  -0.00305441  1
  V  V8  1  -0.00052650  0.62614393  0.62409087  1
  V  V9  1  0.61770356  0.25641480  0.37516810  1
  V  V10  1  0.25634300  0.12353916  0.86606284  1
  V  V11  1  0.37230866  0.24603370  0.62628267  1
  V  V12  1  0.50032483  0.25940427  0.24730646  1
  V  V13  1  0.74767238  0.11673843  0.36212793  1
  V  V14  1  0.62341530  -0.00061446  0.14068122  1
  V  V15  1  0.12700067  0.62367738  -0.00272118  1
  V  V16  1  0.05864965  0.20040896  0.30673989  1
  V  V17  1  0.74642092  0.12609756  0.88087955  1
  V  V18  1  0.13151489  0.87306453  0.24399111  1
  V  V19  1  0.61845221  0.74571154  0.88070125  1
  V  V20  1  0.25007329  0.37400697  0.62438065  1
  V  V21  1  0.00038410  0.87865060  0.38304516  1
  V  V22  1  0.74765218  -0.00064901  0.75140299  1
  V  V23  1  0.49775529  0.62708008  0.62513542  1
  V  V24  1  0.24876720  0.50124915  0.25067746  1
  V  V25  1  0.62499792  0.74450453  0.37533985  1
  V  V26  1  0.25187581  0.37401493  0.12412690  1
  V  V27  1  0.74621259  0.87745710  0.14319709  1
  V  V28  1  0.00291424  0.37448566  0.36865394  1
  V  V29  1  0.75677463  0.50231606  0.75423536  1
  V  V30  1  0.00223337  0.86978183  0.87461035  1
  V  V31  1  0.62250638  -0.00038241  0.62565486  1
  V  V32  1  0.74505596  0.73931641  0.50141079  1
  V  V33  1  0.37195998  0.75324084  0.61153375  1
  V  V34  1  0.12447209  0.24988881  0.87374416  1
  V  V35  1  0.50445440  0.50449083  0.00187328  1
  V  V36  1  0.12455077  0.37475874  0.75014912  1
  V  V37  1  0.25062545  0.87269397  0.60722659  1
  V  V38  1  0.37937292  0.12686711  0.26172201  1
  V  V39  1  0.12463319  0.12305929  -0.00111466  1
  V  V40  1  0.38174630  0.23822697  0.12181935  1
  V  V41  1  -0.00109635  0.24809320  0.75047018  1
  V  V42  1  0.87352530  0.12454809  0.75088099  1
  V  V43  1  0.37715751  0.86843657  0.00314019  1
  V  V44  1  0.87289835  0.37804055  0.49301450  1
  V  V45  1  0.13286092  0.62764522  0.49825349  1
  V  V46  1  0.37795350  0.49828513  0.37159625  1
  V  V47  1  0.12558338  0.49713868  0.12120854  1
  V  V48  1  0.75575088  0.62565682  0.88340026  1
  V  V49  1  0.49199554  -0.00483989  0.50132292  1
  V  V50  1  0.25548038  0.00479936  0.25004052  1
  V  V51  1  0.87477952  -0.00203406  0.87657031  1
  V  V52  1  0.61479836  0.87331347  0.75531801  1
  V  V53  1  0.74803707  0.37640344  0.62461861  1
  V  V54  1  0.13769854  0.74736212  0.87391957  1
  V  V55  1  -0.01981047  0.59084740  0.15911551  1
  V  V56  1  0.37284810  0.50793057  0.87683450  1
  V  V57  1  0.25143741  -0.00393090  0.74568244  1
  V  V58  1  0.13156298  0.75031353  0.37661853  1
  V  V59  1  0.63941726  0.38415078  0.25162732  1
  V  V60  1  0.49707552  0.12472441  0.62823076  1
  V  V61  1  0.74785291  0.87434031  0.62517258  1
  V  V62  1  0.37909958  0.37541483  0.49650666  1
  V  V63  1  0.50357665  0.62722736  0.12547985  1
  V  V64  1  0.74826791  0.25496178  0.00894540  1
  V  V65  1  0.12611309  0.49998855  0.62375163  1
  V  V66  1  0.87522340  0.75067763  0.62580578  1
  V  V67  1  0.86882810  0.87172110  0.00173061  1
  V  V68  1  0.62284276  0.37713043  0.75135403  1
  V  V69  1  0.00282900  0.11772884  0.61657291  1
  V  V70  1  -0.00044279  -0.00076082  0.00025874  1
  V  V71  1  0.49925599  0.87379004  0.37822057  1
  V  V72  1  0.38081093  -0.00373347  0.87065804  1
  V  V73  1  0.76342987  0.61773580  0.36082094  1
  V  V74  1  0.25054707  0.50751738  0.75374313  1
  V  V75  1  -0.00378265  0.49975313  0.49610660  1
  V  V76  1  0.24423954  0.24578554  0.48552859  1
  V  V77  1  0.62421954  0.50903166  0.62303720  1
  V  V78  1  0.61944778  0.12252127  0.00393155  1
  V  V79  1  -0.00534156  0.75551020  0.24430578  1
  V  V80  1  0.87286329  0.24982332  0.62609815  1
  V  V81  1  0.87440041  0.88637224  0.50129657  1
  V  V82  1  0.50450344  0.50226648  0.49389427  1
  V  V83  1  -0.00755624  0.49901078  -0.01338702  1
  V  V84  1  0.37710548  0.37596628  0.00116010  1
  Zn  Zn85  1  0.87755434  0.62316148  0.75393970  1
  Zn  Zn86  1  0.12616362  0.37159647  0.25509809  1
  Zn  Zn87  1  0.13108619  -0.00191917  0.11997117  1
  Zn  Zn88  1  0.49414725  0.75295903  0.75061877  1
  Zn  Zn89  1  0.87113240  0.00053322  0.36241888  1
  Zn  Zn90  1  0.12687825  0.87379119  0.74718363  1
  Zn  Zn91  1  0.62266134  0.12332984  0.49879661  1
  Zn  Zn92  1  0.25708114  0.74134194  0.00444700  1
  Zn  Zn93  1  0.12416335  0.12505626  0.48418230  1
  Zn  Zn94  1  0.62129685  0.25126213  0.87841249  1
  Zn  Zn95  1  0.74303682  0.74986840  0.00571066  1
  Zn  Zn96  1  -0.01311732  0.37723321  0.86924393  1
  Zn  Zn97  1  0.00162184  0.74883301  0.75168852  1
  Zn  Zn98  1  0.25189594  0.62767171  0.37662849  1
  Zn  Zn99  1  0.37084414  -0.00480975  0.38035016  1
  Zn  Zn100  1  0.12297056  -0.00374811  0.61384347  1
  Zn  Zn101  1  0.86964580  0.74608883  0.12807708  1
  Zn  Zn102  1  0.86675081  0.37808441  -0.00330981  1
  Zn  Zn103  1  0.25993138  0.86359243  0.12791922  1
  Zn  Zn104  1  0.49939825  0.37718841  0.87548419  1
  Zn  Zn105  1  0.36997049  0.63335699  0.75406517  1
  Zn  Zn106  1  -0.00699341  0.12560656  0.12691732  1
  Zn  Zn107  1  0.19542969  0.18183975  0.18013811  1
  Zn  Zn108  1  0.18733858  0.18636392  0.68578918  1
  Zn  Zn109  1  0.18304395  0.68527235  0.18255683  1
  Zn  Zn110  1  0.18827867  0.69213770  0.68517765  1
  Zn  Zn111  1  0.67885924  0.19059002  0.18439090  1
  Zn  Zn112  1  0.68322095  0.18768701  0.68923625  1
  Zn  Zn113  1  0.68647046  0.68693693  0.19028580  1
  Zn  Zn114  1  0.68692402  0.68746735  0.69218676  1
  Zn  Zn115  1  0.31593371  0.31688225  0.30964627  1
  Zn  Zn116  1  0.31411968  0.31882556  0.81327047  1
  Zn  Zn117  1  0.31421862  0.81442468  0.31596549  1
  Zn  Zn118  1  0.31548897  0.81644492  0.81007230  1
  Zn  Zn119  1  0.81054160  0.31144422  0.31539560  1
  Zn  Zn120  1  0.81000803  0.31253756  0.81790421  1
  Zn  Zn121  1  0.81302721  0.80952078  0.31837754  1
  Zn  Zn122  1  0.80934344  0.80998396  0.81235046  1
  Zn  Zn123  1  0.18751171  0.43602628  0.43644116  1
  Zn  Zn124  1  0.18700781  0.43658720  0.93529410  1
  Zn  Zn125  1  0.18432071  0.94572309  0.43333120  1
  Zn  Zn126  1  0.19190698  0.93473730  0.93588087  1
  Zn  Zn127  1  0.68741221  0.44204485  0.43329572  1
  Zn  Zn128  1  0.68619356  0.44010615  0.93630814  1
  Zn  Zn129  1  0.67979108  0.93216733  0.43843232  1
  Zn  Zn130  1  0.68650576  0.93465447  0.93790766  1
  Zn  Zn131  1  0.31368622  0.05750018  0.06210973  1
  Zn  Zn132  1  0.30884175  0.06509507  0.56050565  1
  Zn  Zn133  1  0.31461527  0.56583374  0.06491881  1
  Zn  Zn134  1  0.31504574  0.56337033  0.56397377  1
  Zn  Zn135  1  0.81434291  0.06452096  0.18347332  1
  Zn  Zn136  1  0.80925703  0.06501948  0.56205870  1
  Zn  Zn137  1  0.81462661  0.56468786  0.06172966  1
  Zn  Zn138  1  0.81286432  0.56272842  0.56180703  1
  Zn  Zn139  1  0.44073629  0.43733849  0.18704809  1
  Zn  Zn140  1  0.43593817  0.43884065  0.68652722  1
  Zn  Zn141  1  0.44142074  0.94084684  0.18534813  1
  Zn  Zn142  1  0.43110463  0.93557424  0.68560488  1
  Zn  Zn143  1  0.93514667  0.42323016  0.18171820  1
  Zn  Zn144  1  0.93718030  0.43561051  0.68430587  1
  Zn  Zn145  1  0.93929838  0.93409000  0.18477645  1
  Zn  Zn146  1  0.93731370  0.93707351  0.69014683  1
  Zn  Zn147  1  0.05678838  0.04093508  0.30643653  1
  Zn  Zn148  1  0.06569088  0.06020598  0.80937173  1
  Zn  Zn149  1  0.05413620  0.55783454  0.31184838  1
  Zn  Zn150  1  0.06624945  0.56694728  0.81118054  1
  Zn  Zn151  1  0.55639924  0.07004507  0.31580040  1
  Zn  Zn152  1  0.56034535  0.06451362  0.81185832  1
  Zn  Zn153  1  0.56709133  0.56794940  0.31229354  1
  Zn  Zn154  1  0.56331024  0.56621560  0.81225712  1
  Zn  Zn155  1  0.43929848  0.18794673  0.44076272  1
  Zn  Zn156  1  0.43900271  0.18280930  0.93567531  1
  Zn  Zn157  1  0.43986650  0.68341336  0.43586890  1
  Zn  Zn158  1  0.44213219  0.68483198  0.93806191  1
  Zn  Zn159  1  0.92643092  0.18499556  0.43948391  1
  Zn  Zn160  1  0.93368564  0.18873619  0.93938083  1
  Zn  Zn161  1  0.93882551  0.69426250  0.43820740  1
  Zn  Zn162  1  0.94010625  0.68650733  0.94176570  1
  Zn  Zn163  1  0.05910168  0.31412986  0.06025810  1
  Zn  Zn164  1  0.06180012  0.30921932  0.56076313  1
  Zn  Zn165  1  0.06633224  0.81082401  0.06085541  1
  Zn  Zn166  1  0.06399358  0.81251099  0.56089338  1
  Zn  Zn167  1  0.56430097  0.31778187  0.06582061  1
  Zn  Zn168  1  0.56049840  0.31704137  0.56393088  1
  Zn  Zn169  1  0.56180823  0.81686848  0.06243014  1
  Zn  Zn170  1  0.56228446  0.81194848  0.56108348  1
  O  O171  1  0.12366982  0.12375364  0.10814137  1
  O  O172  1  0.10819498  0.12646759  0.62686646  1
  O  O173  1  0.10677927  0.60870886  0.12312789  1
  O  O174  1  0.11783697  0.62285873  0.61762211  1
  O  O175  1  0.63158298  0.10877953  0.11680779  1
  O  O176  1  0.61568566  0.11768323  0.62513668  1
  O  O177  1  0.61576646  0.60983383  0.13441924  1
  O  O178  1  0.61823814  0.61504247  0.62909787  1
  O  O179  1  0.37451491  0.38882282  0.38140881  1
  O  O180  1  0.37814229  0.38652969  0.88364053  1
  O  O181  1  0.39232822  0.87518228  0.37280108  1
  O  O182  1  0.37206362  0.88931214  0.88389604  1
  O  O183  1  0.88132314  0.36879980  0.38727453  1
  O  O184  1  0.87398321  0.37421928  0.88233330  1
  O  O185  1  0.88071949  0.87426057  0.38597820  1
  O  O186  1  0.88093989  0.87687521  0.87992784  1
  O  O187  1  0.25600264  -0.00650293  0.35669920  1
  O  O188  1  0.25593213  0.00587964  0.86612771  1
  O  O189  1  0.25790096  0.50158867  0.36756634  1
  O  O190  1  0.25875451  0.49463663  0.86509661  1
  O  O191  1  0.74104463  0.01514688  0.38048102  1
  O  O192  1  0.75365843  0.00726176  0.87121514  1
  O  O193  1  0.74993377  0.51866706  0.37975194  1
  O  O194  1  0.74137192  0.51582836  0.86833332  1
  O  O195  1  0.24388248  0.49542020  0.12962110  1
  O  O196  1  0.24578973  0.49288321  0.62972898  1
  O  O197  1  0.25120222  0.99403202  0.13504324  1
  O  O198  1  0.25455568  0.98891782  0.62888842  1
  O  O199  1  0.73698307  0.50515366  0.12107153  1
  O  O200  1  0.74092924  0.49675318  0.63009804  1
  O  O201  1  0.73745141  0.98819139  0.13033393  1
  O  O202  1  0.74285048  0.99655254  0.63128556  1
  O  O203  1  0.00050879  0.37239874  0.26536863  1
  O  O204  1  0.00581667  0.36747269  0.74861185  1
  O  O205  1  0.01047567  0.86904596  0.25670225  1
  O  O206  1  0.00289389  0.87518606  0.76282919  1
  O  O207  1  0.50504816  0.36469859  0.25092751  1
  O  O208  1  0.50683572  0.37008962  0.74890796  1
  O  O209  1  0.49498796  0.86236842  0.25360900  1
  O  O210  1  0.51153960  0.87642680  0.74540137  1
  O  O211  1  0.49250602  0.14237839  0.25111047  1
  O  O212  1  0.50208593  0.13467688  0.73767374  1
  O  O213  1  0.49384106  0.63334745  0.24487111  1
  O  O214  1  0.49615191  0.62374254  0.73589295  1
  O  O215  1  1.00694516  0.13278233  0.24905654  1
  O  O216  1  0.99279543  0.12943738  0.74404720  1
  O  O217  1  1.01494408  0.65060330  0.25032049  1
  O  O218  1  0.99744471  0.62374981  0.73638310  1
  O  O219  1  0.37408183  0.25368381  0.00480681  1
  O  O220  1  0.36933920  0.25813839  0.50523846  1
  O  O221  1  0.37790523  0.76508776  -0.01067007  1
  O  O222  1  0.37560035  0.74288675  0.51235957  1
  O  O223  1  0.85668796  0.24672687  0.00266009  1
  O  O224  1  0.86380090  0.25728038  0.50683366  1
  O  O225  1  0.87633699  0.76173315  0.00412485  1
  O  O226  1  0.86790177  0.75827886  0.51188734  1
  O  O227  1  0.13994981  0.24732568  0.50210055  1
  O  O228  1  0.13037048  0.24306332  0.99299592  1
  O  O229  1  0.11771157  0.73887541  0.48971513  1
  O  O230  1  0.12292642  0.73985057  0.99149661  1
  O  O231  1  0.62899919  0.25517699  0.49284615  1
  O  O232  1  0.62979656  0.24246233  1.00366245  1
  O  O233  1  0.63502954  0.75359220  0.49341366  1
  O  O234  1  0.62398818  0.75547767  0.98416336  1
  O  O235  1  0.49212883  0.25541716  0.13210322  1
  O  O236  1  0.49297052  0.24468148  0.62907788  1
  O  O237  1  0.51046327  0.74010686  0.13196979  1
  O  O238  1  0.49029519  0.74421452  0.62430734  1
  O  O239  1  0.98555834  0.24633839  0.11732277  1
  O  O240  1  0.99355826  0.24308980  0.63281471  1
  O  O241  1  0.99823326  0.75822646  0.13947922  1
  O  O242  1  0.99317044  0.74260239  0.62562979  1
  O  O243  1  -0.00376052  0.25299802  0.37297718  1
  O  O244  1  0.00503392  0.24766938  0.86569296  1
  O  O245  1  0.00806542  0.76049317  0.36741480  1
  O  O246  1  0.00652894  0.75660768  0.87385683  1
  O  O247  1  0.51237914  0.24854186  0.37118858  1
  O  O248  1  0.50012999  0.25225021  0.86536277  1
  O  O249  1  0.50650098  0.75237874  0.37043776  1
  O  O250  1  0.51418242  0.74273895  0.86905356  1
  O  O251  1  0.25138909  0.14238455  0.49803701  1
  O  O252  1  0.24417899  0.12759764  0.99006706  1
  O  O253  1  0.23619922  0.61828834  0.49903698  1
  O  O254  1  0.23277704  0.62115702  1.00705651  1
  O  O255  1  0.74376463  0.13874200  0.49908346  1
  O  O256  1  0.73629317  0.13397187  0.98904920  1
  O  O257  1  0.75155208  0.63733444  0.50082563  1
  O  O258  1  0.75147887  0.62852181  0.98760219  1
  O  O259  1  0.25672318  0.36758906  0.00316531  1
  O  O260  1  0.25956538  0.36885362  0.50540924  1
  O  O261  1  0.26750607  0.87792110  0.00223315  1
  O  O262  1  0.24959438  0.87939400  0.50894813  1
  O  O263  1  0.74169209  0.35744040  -0.00487641  1
  O  O264  1  0.75436402  0.36781105  0.50150696  1
  O  O265  1  0.75797535  0.87247303  0.00379815  1
  O  O266  1  0.75515363  0.86705250  0.50689654  1
  O  O267  1  0.13085267  0.49757497  0.24068676  1
  O  O268  1  0.13131109  0.49498254  0.74418993  1
  O  O269  1  0.13563222  0.99049142  0.24394121  1
  O  O270  1  0.13855816  0.99828127  0.74356234  1
  O  O271  1  0.62002272  0.48979755  0.24313679  1
  O  O272  1  0.63166973  0.49490074  0.74307418  1
  O  O273  1  0.61366641  1.00363038  0.23865105  1
  O  O274  1  0.62869295  0.99323551  0.74685448  1
  O  O275  1  0.37502480  0.01112630  0.24906626  1
  O  O276  1  0.36438240  -0.00287247  0.75704923  1
  O  O277  1  0.37175688  0.50553295  0.25643912  1
  O  O278  1  0.36714744  0.49951459  0.75819164  1
  O  O279  1  0.87795570  0.00041242  0.24906826  1
  O  O280  1  0.86785515  0.00512148  0.75667788  1
  O  O281  1  0.94620207  0.52371928  0.23527776  1
  O  O282  1  0.85968430  0.49928841  0.74209753  1
  O  O283  1  0.11263019  0.37490171  0.37557651  1
  O  O284  1  0.12567782  0.36576376  0.86477605  1
  O  O285  1  0.11934885  0.86920955  0.36798921  1
  O  O286  1  0.11819529  0.86626098  0.87565562  1
  O  O287  1  0.62708403  0.37114665  0.36236323  1
  O  O288  1  0.62177287  0.37508793  0.86208850  1
  O  O289  1  0.61240064  0.86169372  0.37701472  1
  O  O290  1  0.63307745  0.86014557  0.86520416  1
  O  O291  1  0.37410812  0.13584560  0.12726686  1
  O  O292  1  0.37965997  0.13898402  0.62228108  1
  O  O293  1  0.38975832  0.61844161  0.13537602  1
  O  O294  1  0.37909657  0.63535800  0.62790325  1
  O  O295  1  0.87440855  0.14139388  0.12207343  1
  O  O296  1  0.88191658  0.13020714  0.62908128  1
  O  O297  1  0.88969729  0.62889209  0.12134596  1
  O  O298  1  0.88287530  0.63313615  0.62498561  1
  O  O299  1  0.26007296  0.25449531  0.11539724  1
  O  O300  1  0.25740829  0.25511978  0.62085056  1
  O  O301  1  0.24538686  0.75024853  0.11777944  1
  O  O302  1  0.25855300  0.76198757  0.62332578  1
  O  O303  1  0.75308841  0.24594951  0.11279041  1
  O  O304  1  0.74973207  0.25651470  0.61834113  1
  O  O305  1  0.74808226  0.76121473  0.12435738  1
  O  O306  1  0.75486215  0.75357654  0.62055924  1
  O  O307  1  0.25409036  0.25817339  0.38764260  1
  O  O308  1  0.24876020  0.24229569  0.87719358  1
  O  O309  1  0.23636904  0.74765918  0.37096800  1
  O  O310  1  0.24059097  0.75549844  0.88004819  1
  O  O311  1  0.73954028  0.24343956  0.38111771  1
  O  O312  1  0.74278962  0.23995741  0.88151159  1
  O  O313  1  0.74338307  0.74500434  0.38374259  1
  O  O314  1  0.74155344  0.73912305  0.87538103  1
  O  O315  1  0.00765846  0.11543985  -0.00502081  1
  O  O316  1  -0.00127486  0.13426199  0.51436305  1
  O  O317  1  0.00892413  0.61069808  -0.00063834  1
  O  O318  1  0.00364730  0.61795483  0.50765383  1
  O  O319  1  0.51246921  0.11634768  -0.00317205  1
  O  O320  1  0.50269021  0.12123011  0.51288164  1
  O  O321  1  0.49747333  0.61364421  0.00989228  1
  O  O322  1  0.49629577  0.61452343  0.51324260  1
  O  O323  1  0.48593572  0.38450661  0.50596699  1
  O  O324  1  0.49479753  0.38654527  1.00008184  1
  O  O325  1  0.50176688  0.88408520  0.49387548  1
  O  O326  1  0.49222043  0.88508995  0.99703432  1
  O  O327  1  0.99204156  0.37927368  0.49613331  1
  O  O328  1  1.00439539  0.38929752  0.99065024  1
  O  O329  1  0.98844501  0.86817717  0.49411469  1
  O  O330  1  0.99673632  0.87976617  0.99093318  1
  O  O331  1  0.49502665  0.50847905  0.38603217  1
  O  O332  1  0.49576933  0.50140539  0.88396493  1
  O  O333  1  0.50224380  0.99263041  0.38477345  1
  O  O334  1  0.49150956  1.00529731  0.88170010  1
  O  O335  1  1.00156184  0.49113245  0.39057578  1
  O  O336  1  1.00598059  0.49952417  0.88300385  1
  O  O337  1  0.99315469  0.98368859  0.37764093  1
  O  O338  1  0.99758458  0.99261976  0.88130455  1
  O  O339  1  0.00390477  0.00172517  0.10980324  1
  O  O340  1  -0.00131198  0.01447466  0.62940399  1
  O  O341  1  0.00963873  0.49198709  0.10606117  1
  O  O342  1  0.00553284  0.50572884  0.61687595  1
  O  O343  1  0.51627606  -0.00561145  0.11401951  1
  O  O344  1  0.50015556  0.00720001  0.62233384  1
  O  O345  1  0.50726270  0.50584323  0.11911690  1
  O  O346  1  0.50484174  0.50609134  0.61822190  1
  O  O347  1  0.24920508  0.38309801  0.24205641  1
  O  O348  1  0.24451948  0.38301921  0.74305421  1
  O  O349  1  0.24652226  0.87910247  0.24685615  1
  O  O350  1  0.24819380  0.88308048  0.74057901  1
  O  O351  1  0.73835321  0.37736445  0.25268016  1
  O  O352  1  0.74071764  0.38071570  0.74573669  1
  O  O353  1  0.75057581  0.87086164  0.24167252  1
  O  O354  1  0.74254724  0.88059956  0.74384872  1
  O  O355  1  0.26425758  0.11773441  0.24460507  1
  O  O356  1  0.24694452  0.11936782  0.75973433  1
  O  O357  1  0.25754855  0.61695196  0.24869824  1
  O  O358  1  0.24948867  0.61094252  0.74229592  1
  O  O359  1  0.74318227  0.12692301  0.25910170  1
  O  O360  1  0.75263736  0.12135318  0.75850256  1
  O  O361  1  0.75633256  0.62874425  0.26068938  1
  O  O362  1  0.75298198  0.61748930  0.75788523  1
  O  O363  1  0.37988777  0.12409163  0.36472604  1
  O  O364  1  0.36528555  0.11245358  0.88011835  1
  O  O365  1  0.37282283  0.61465659  0.36780102  1
  O  O366  1  0.37670460  0.61294757  0.87381807  1
  O  O367  1  0.85228483  0.12250141  0.37991762  1
  O  O368  1  0.86487389  0.11871544  0.87195705  1
  O  O369  1  0.86197360  0.63354819  0.38106010  1
  O  O370  1  0.86063014  0.63227927  0.87218475  1
  O  O371  1  0.13146249  0.38297803  0.12416609  1
  O  O372  1  0.12917116  0.37941908  0.62983285  1
  O  O373  1  0.12598372  0.87663041  0.13542442  1
  O  O374  1  0.13768702  0.87446530  0.62451337  1
  O  O375  1  0.62303268  0.38834033  0.13878542  1
  O  O376  1  0.62825974  0.38440703  0.63425932  1
  O  O377  1  0.63698988  0.88609554  0.12145819  1
  O  O378  1  0.62949813  0.87995174  0.63286565  1
  O  O379  1  0.12550933  0.25086191  0.24599731  1
  O  O380  1  0.11906557  0.25395423  0.75341722  1
  O  O381  1  0.12022054  0.75897635  0.25611310  1
  O  O382  1  0.12299074  0.75112462  0.75903536  1
  O  O383  1  0.61999804  0.26266082  0.25362212  1
  O  O384  1  0.61204627  0.25944178  0.74822631  1
  O  O385  1  0.61498426  0.74730930  0.25992773  1
  O  O386  1  0.62165595  0.75828951  0.75648053  1
  O  O387  1  0.38057072  0.24635806  0.24275387  1
  O  O388  1  0.38628620  0.25926167  0.74134702  1
  O  O389  1  0.38197833  0.73778083  0.25637585  1
  O  O390  1  0.37635788  0.75023398  0.73937606  1
  O  O391  1  0.86952436  0.25562331  0.23511548  1
  O  O392  1  0.87737591  0.24366997  0.74467595  1
  O  O393  1  0.89137223  0.75744293  0.24987081  1
  O  O394  1  0.87626701  0.75035675  0.73636391  1
  O  O395  1  0.38009141  0.49467480  0.49297821  1
  O  O396  1  0.38088391  0.49652902  0.99501992  1
  O  O397  1  0.38748244  1.00748340  0.49910444  1
  O  O398  1  0.38523263  0.99471370  0.99361970  1
  O  O399  1  0.88332975  0.48879871  0.50920998  1
  O  O400  1  0.88952717  0.50016938  1.00125950  1
  O  O401  1  0.86692401  0.98852871  0.49850503  1
  O  O402  1  0.88583940  0.98581329  0.99119600  1
  O  O403  1  0.12000616  0.00632814  -0.00377091  1
  O  O404  1  0.12978457  0.01368574  0.50140755  1
  O  O405  1  0.12087856  0.50379524  0.00351418  1
  O  O406  1  0.11746037  0.50532389  0.50621332  1
  O  O407  1  0.61860890  0.00471690  0.00035420  1
  O  O408  1  0.61353890  0.00045860  0.51014382  1
  O  O409  1  0.61836379  0.49388191  0.01448556  1
  O  O410  1  0.61444221  0.49049933  0.51025074  1
  O  O411  1  0.37037056  0.36889557  0.11843134  1
  O  O412  1  0.37050986  0.36677949  0.61749488  1
  O  O413  1  0.38048355  0.87834023  0.10723459  1
  O  O414  1  0.36490785  0.86358852  0.62248715  1
  O  O415  1  0.87410465  0.35909411  0.11335709  1
  O  O416  1  0.86697239  0.36831470  0.61660832  1
  O  O417  1  0.86063468  0.87479798  0.11811766  1
  O  O418  1  0.87014039  0.87007392  0.62077620  1
  O  O419  1  0.11144025  0.13434911  0.36410272  1
  O  O420  1  0.13297779  0.12928133  0.88143374  1
  O  O421  1  0.12313192  0.63104425  0.38231501  1
  O  O422  1  0.12319299  0.63515368  0.88349424  1
  O  O423  1  0.63278135  0.13564211  0.37766056  1
  O  O424  1  0.63087658  0.12661858  0.88079787  1
  O  O425  1  0.63580783  0.63743757  0.37373208  1
  O  O426  1  0.63583359  0.63907791  0.86813046  1
