# generated using pymatgen
data_V85Zn86O256
_symmetry_space_group_name_H-M   'P 1'
_cell_length_a   16.91707878
_cell_length_b   16.93351591
_cell_length_c   16.93837849
_cell_angle_alpha   89.99439418
_cell_angle_beta   89.97923394
_cell_angle_gamma   90.00170433
_symmetry_Int_Tables_number   1
_chemical_formula_structural   V85Zn86O256
_chemical_formula_sum   'V85 Zn86 O256'
_cell_volume   4852.26279505
_cell_formula_units_Z   1
loop_
 _symmetry_equiv_pos_site_id
 _symmetry_equiv_pos_as_xyz
  1  'x, y, z'
loop_
 _atom_site_type_symbol
 _atom_site_label
 _atom_site_symmetry_multiplicity
 _atom_site_fract_x
 _atom_site_fract_y
 _atom_site_fract_z
 _atom_site_occupancy
  V  V0  1  0.12282976  0.25195059  0.37365004  1
  V  V1  1  0.49151518  0.01992417  -0.02136856  1
  V  V2  1  0.37925088  0.24715383  0.14023164  1
  V  V3  1  0.00573238  0.62016011  0.12401731  1
  V  V4  1  0.25380830  0.00515406  0.24875148  1
  V  V5  1  0.37718176  0.00716690  0.37198737  1
  V  V6  1  0.00323984  0.86812172  0.86286563  1
  V  V7  1  0.37732763  0.37057828  0.00167283  1
  V  V8  1  0.74986536  0.88186881  0.12488374  1
  V  V9  1  -0.00462601  0.49447519  0.50555503  1
  V  V10  1  0.87062111  0.48955902  0.87802931  1
  V  V11  1  0.86904692  0.12004689  0.24649897  1
  V  V12  1  0.87174230  0.74253015  0.12794521  1
  V  V13  1  0.26909726  0.01495633  0.76575001  1
  V  V14  1  0.62416798  0.00284333  0.12815634  1
  V  V15  1  -0.00540712  0.74282519  0.25007329  1
  V  V16  1  0.00313051  0.49273460  0.00375128  1
  V  V17  1  0.87424388  0.61877480  0.75108540  1
  V  V18  1  0.00197715  0.37183411  0.87626063  1
  V  V19  1  0.75007472  0.87272493  0.62487026  1
  V  V20  1  0.86490286  -0.00234804  0.37150986  1
  V  V21  1  0.87897194  0.74783040  0.63095212  1
  V  V22  1  0.62915381  0.13196364  0.00540447  1
  V  V23  1  0.12312289  0.74900985  0.37567445  1
  V  V24  1  0.62607662  0.50029012  0.12713315  1
  V  V25  1  0.86910975  0.51775336  0.37714884  1
  V  V26  1  0.25090669  0.24032218  -0.00471592  1
  V  V27  1  0.00205716  -0.00050428  0.50238919  1
  V  V28  1  0.49593451  0.75439925  0.24741375  1
  V  V29  1  0.49756482  0.36617835  0.37212932  1
  V  V30  1  0.62448799  0.36812484  0.25017928  1
  V  V31  1  0.36930528  0.87961383  0.49937249  1
  V  V32  1  0.74988201  0.12686784  0.87529692  1
  V  V33  1  0.37809310  0.87572448  -0.00345708  1
  V  V34  1  0.62810055  0.74261924  0.37373392  1
  V  V35  1  0.50017380  0.00084536  0.50193061  1
  V  V36  1  0.25840555  0.87054741  0.12570551  1
  V  V37  1  0.50292773  0.49343561  0.49658656  1
  V  V38  1  0.62552578  0.25400576  0.86853782  1
  V  V39  1  0.62088866  0.87372621  0.74787223  1
  V  V40  1  0.13582349  0.38680731  0.73696624  1
  V  V41  1  0.00482440  0.12079565  0.12674777  1
  V  V42  1  0.74844201  0.61850944  0.86989421  1
  V  V43  1  0.49775052  0.62771863  0.12588968  1
  V  V44  1  0.87675717  0.12806487  0.74713026  1
  V  V45  1  0.75420257  0.51269038  0.25369887  1
  V  V46  1  0.37266293  0.62978206  0.24984746  1
  V  V47  1  0.63010734  0.13474285  0.50325117  1
  V  V48  1  0.50151064  0.62788506  0.61897205  1
  V  V49  1  0.87870218  0.24979637  0.11207474  1
  V  V50  1  0.86845975  0.25404066  0.60929622  1
  V  V51  1  0.75088722  0.74217762  0.49784272  1
  V  V52  1  0.24719154  0.75307021  0.50129448  1
  V  V53  1  0.74718013  0.75029522  -0.00166184  1
  V  V54  1  0.49162873  0.74783150  0.74854736  1
  V  V55  1  0.36673159  0.25994458  0.62320415  1
  V  V56  1  0.12099074  0.38507783  0.24861813  1
  V  V57  1  0.25239761  0.26436362  0.50052312  1
  V  V58  1  -0.01401203  0.37403346  0.37640044  1
  V  V59  1  -0.00305975  0.87600144  0.37315247  1
  V  V60  1  0.24545506  0.37856302  0.12528610  1
  V  V61  1  0.00488986  0.62259009  0.63404960  1
  V  V62  1  0.75764682  0.37638535  0.12079325  1
  V  V63  1  0.12326142  0.61851785  0.50390074  1
  V  V64  1  0.37380638  0.49636380  0.37340437  1
  V  V65  1  0.62158005  0.74662555  0.87202093  1
  V  V66  1  0.25174351  0.74490886  0.00004067  1
  V  V67  1  0.49130991  0.12546527  0.62781233  1
  V  V68  1  0.50130807  0.12981222  0.14267906  1
  V  V69  1  0.25185336  0.12792349  0.37395637  1
  V  V70  1  0.74770389  0.00027842  0.74996188  1
  V  V71  1  0.62886558  0.87978521  0.25191975  1
  V  V72  1  0.87328493  -0.00273119  0.87524908  1
  V  V73  1  0.00095610  0.25422898  0.74451179  1
  V  V74  1  0.62561572  0.49499305  0.63904101  1
  V  V75  1  0.35485400  0.58768405  0.71397729  1
  V  V76  1  0.12635453  0.87435525  0.24823142  1
  V  V77  1  0.50192690  0.37889105  0.87004246  1
  V  V78  1  0.36641677  0.50566548  0.88226331  1
  V  V79  1  0.62434419  0.00234963  0.62632709  1
  V  V80  1  0.00256231  -0.00864137  0.00155011  1
  V  V81  1  0.49475571  0.25156428  0.74803036  1
  V  V82  1  0.37092353  0.75963663  0.62680830  1
  V  V83  1  0.75164023  0.37853700  0.62527731  1
  V  V84  1  0.75111346  0.13505133  0.37656237  1
  Zn  Zn85  1  0.50125708  0.87663815  0.37457002  1
  Zn  Zn86  1  0.14446010  0.87503989  0.73464607  1
  Zn  Zn87  1  0.14025669  0.00119239  0.63104817  1
  Zn  Zn88  1  0.75804115  0.25905954  -0.00666743  1
  Zn  Zn89  1  0.24699320  0.62369670  0.37178074  1
  Zn  Zn90  1  0.12525145  0.12498450  0.50015685  1
  Zn  Zn91  1  0.49265047  0.87346217  0.87285552  1
  Zn  Zn92  1  0.24617219  0.62545064  0.86528025  1
  Zn  Zn93  1  0.62560317  0.25199372  0.37644463  1
  Zn  Zn94  1  0.62245378  0.62379010  -0.00011941  1
  Zn  Zn95  1  0.00041268  0.12638106  0.61997889  1
  Zn  Zn96  1  0.13233230  0.11799874  -0.00673786  1
  Zn  Zn97  1  0.87341936  0.87403396  0.50002748  1
  Zn  Zn98  1  0.62967646  0.62067334  0.49521604  1
  Zn  Zn99  1  0.50097195  0.50095041  0.00344583  1
  Zn  Zn100  1  0.24531122  0.50465507  0.24636510  1
  Zn  Zn101  1  0.12765143  0.61839678  -0.00173562  1
  Zn  Zn102  1  0.87326113  0.87260023  -0.00192750  1
  Zn  Zn103  1  0.12953616  -0.00014052  0.12301081  1
  Zn  Zn104  1  0.11838598  0.74428034  0.86876299  1
  Zn  Zn105  1  -0.00112772  0.25027295  0.24739038  1
  Zn  Zn106  1  0.13942067  0.24155681  0.86079702  1
  Zn  Zn107  1  0.18814647  0.19071243  0.18783248  1
  Zn  Zn108  1  0.18917226  0.17409422  0.68544318  1
  Zn  Zn109  1  0.18608804  0.68968424  0.18425588  1
  Zn  Zn110  1  0.18465371  0.69317795  0.68725807  1
  Zn  Zn111  1  0.69492225  0.18977769  0.18959006  1
  Zn  Zn112  1  0.68795932  0.19280788  0.68794034  1
  Zn  Zn113  1  0.68464561  0.68994524  0.18807619  1
  Zn  Zn114  1  0.68742661  0.68350967  0.68719969  1
  Zn  Zn115  1  0.30889051  0.31715871  0.31346797  1
  Zn  Zn116  1  0.31556600  0.31135765  0.81024314  1
  Zn  Zn117  1  0.31326781  0.81462838  0.31566359  1
  Zn  Zn118  1  0.30485815  0.81890886  0.81350834  1
  Zn  Zn119  1  0.81225913  0.31103953  0.30232743  1
  Zn  Zn120  1  0.80815235  0.31511859  0.80181050  1
  Zn  Zn121  1  0.81008393  0.80936508  0.31056473  1
  Zn  Zn122  1  0.81352662  0.80940912  0.81133900  1
  Zn  Zn123  1  0.18340696  0.43949916  0.43371714  1
  Zn  Zn124  1  0.18328994  0.42950546  0.93500006  1
  Zn  Zn125  1  0.18628819  0.93746701  0.43718418  1
  Zn  Zn126  1  0.18941795  0.93692380  0.93216073  1
  Zn  Zn127  1  0.68927329  0.43432932  0.44137894  1
  Zn  Zn128  1  0.68510528  0.43751705  0.93954870  1
  Zn  Zn129  1  0.68774077  0.93647088  0.43925787  1
  Zn  Zn130  1  0.67269970  0.94096457  0.93545858  1
  Zn  Zn131  1  0.31851552  0.06319881  0.06614407  1
  Zn  Zn132  1  0.30797890  0.06621855  0.56433037  1
  Zn  Zn133  1  0.31511081  0.56149549  0.06558267  1
  Zn  Zn134  1  0.31430901  0.56351456  0.54867039  1
  Zn  Zn135  1  0.81454627  0.06206300  0.05958268  1
  Zn  Zn136  1  0.81455823  0.06241573  0.55994915  1
  Zn  Zn137  1  0.81480577  0.56242625  0.05786987  1
  Zn  Zn138  1  0.81173969  0.55849665  0.56359795  1
  Zn  Zn139  1  0.43767451  0.43760345  0.19045885  1
  Zn  Zn140  1  0.43037953  0.43729929  0.68386948  1
  Zn  Zn141  1  0.43855664  0.94196240  0.18358039  1
  Zn  Zn142  1  0.42629095  0.94034485  0.69305409  1
  Zn  Zn143  1  0.93486621  0.43913214  0.19092751  1
  Zn  Zn144  1  0.93598510  0.43595807  0.68905794  1
  Zn  Zn145  1  0.93499133  0.93393447  0.18726771  1
  Zn  Zn146  1  0.93817699  0.93730955  0.68697526  1
  Zn  Zn147  1  0.06298028  0.06136625  0.31330666  1
  Zn  Zn148  1  0.07290458  0.06160381  0.81412102  1
  Zn  Zn149  1  0.05662595  0.56306748  0.31600583  1
  Zn  Zn150  1  0.06476805  0.55897664  0.81549804  1
  Zn  Zn151  1  0.56798269  0.06158794  0.31688027  1
  Zn  Zn152  1  0.54302124  0.06719295  0.81966238  1
  Zn  Zn153  1  0.56214925  0.56016488  0.31003175  1
  Zn  Zn154  1  0.54850067  0.56618060  0.81095722  1
  Zn  Zn155  1  0.43680442  0.18757798  0.44158708  1
  Zn  Zn156  1  0.44187229  0.18886665  0.94279309  1
  Zn  Zn157  1  0.43830742  0.68852333  0.43444043  1
  Zn  Zn158  1  0.43300679  0.69088019  0.94383722  1
  Zn  Zn159  1  0.93815862  0.18466642  0.43385818  1
  Zn  Zn160  1  0.96147831  0.17444577  0.92735699  1
  Zn  Zn161  1  0.93906699  0.68823422  0.44407292  1
  Zn  Zn162  1  0.93501706  0.68401946  0.94067237  1
  Zn  Zn163  1  0.06420744  0.31126990  0.06098020  1
  Zn  Zn164  1  0.06411592  0.31327253  0.56209082  1
  Zn  Zn165  1  0.06785809  0.81030275  0.06253621  1
  Zn  Zn166  1  0.06138075  0.81418424  0.56602147  1
  Zn  Zn167  1  0.56282376  0.31243536  0.06341472  1
  Zn  Zn168  1  0.56223734  0.31637705  0.56326782  1
  Zn  Zn169  1  0.56085958  0.81389248  0.06309298  1
  Zn  Zn170  1  0.56141283  0.81406362  0.55890933  1
  O  O171  1  0.11729478  0.12299223  0.12299051  1
  O  O172  1  0.11719476  0.11877075  0.61702204  1
  O  O173  1  0.10969488  0.62818387  0.12194254  1
  O  O174  1  0.11631158  0.62872501  0.61718223  1
  O  O175  1  0.62551149  0.12503294  0.12313691  1
  O  O176  1  0.62080900  0.12183519  0.61955944  1
  O  O177  1  0.61523156  0.61792265  0.12751756  1
  O  O178  1  0.61609123  0.61692530  0.62284560  1
  O  O179  1  0.38447503  0.38445318  0.36608704  1
  O  O180  1  0.38282019  0.37973858  0.88397643  1
  O  O181  1  0.37657882  0.88882253  0.38189689  1
  O  O182  1  0.37659761  0.87294498  0.89213959  1
  O  O183  1  0.88430273  0.37369917  0.37008878  1
  O  O184  1  0.87582638  0.38595559  0.86622481  1
  O  O185  1  0.87872932  0.88227123  0.37154842  1
  O  O186  1  0.88021604  0.88018246  0.87553694  1
  O  O187  1  0.25641029  0.00804788  0.36980996  1
  O  O188  1  0.25091076  0.00421897  0.86816399  1
  O  O189  1  0.25885861  0.50274717  0.37109403  1
  O  O190  1  0.26341854  0.49900304  0.88439108  1
  O  O191  1  0.76096143  0.00555301  0.37791472  1
  O  O192  1  0.75111547  0.00581956  0.86955505  1
  O  O193  1  0.76194569  0.49625223  0.37126914  1
  O  O194  1  0.75607036  0.50718700  0.88198317  1
  O  O195  1  0.25606470  0.48304821  0.12613964  1
  O  O196  1  0.32639294  0.50969371  0.64682821  1
  O  O197  1  0.25101240  0.99589692  0.13418623  1
  O  O198  1  0.25550720  1.01397986  0.64569638  1
  O  O199  1  0.74774463  0.49635170  0.13092100  1
  O  O200  1  0.73552767  0.49548209  0.62470880  1
  O  O201  1  0.74549604  0.98755899  0.11908029  1
  O  O202  1  0.74647817  0.99314144  0.63013917  1
  O  O203  1  0.00478910  0.37278591  0.25731087  1
  O  O204  1  0.00612348  0.36956996  0.75426983  1
  O  O205  1  0.00436571  0.86496091  0.25447506  1
  O  O206  1  -0.00377562  0.87481871  0.76280157  1
  O  O207  1  0.51220310  0.38188778  0.25913166  1
  O  O208  1  0.49431007  0.36455022  0.75788681  1
  O  O209  1  0.50618132  0.86930212  0.24888800  1
  O  O210  1  0.50440964  0.86848243  0.75141457  1
  O  O211  1  0.51040165  0.12601555  0.24226845  1
  O  O212  1  0.50762991  0.14055777  0.73961573  1
  O  O213  1  0.49455623  0.63349097  0.24569617  1
  O  O214  1  0.47687334  0.62446564  0.73244580  1
  O  O215  1  0.99446039  0.12327605  0.23933200  1
  O  O216  1  0.98636055  0.13181579  0.74668443  1
  O  O217  1  1.00191480  0.63600786  0.24356417  1
  O  O218  1  0.99436917  0.61925645  0.73985294  1
  O  O219  1  0.36880267  0.25350593  0.00626130  1
  O  O220  1  0.36639294  0.24698452  0.51139776  1
  O  O221  1  0.36409412  0.75987645  0.00572262  1
  O  O222  1  0.36841877  0.76004939  0.50060665  1
  O  O223  1  0.87839004  0.23895059  0.01041379  1
  O  O224  1  0.87783167  0.24672248  0.51116912  1
  O  O225  1  0.86043032  0.75105910  0.00551099  1
  O  O226  1  0.86669330  0.75169570  0.50847164  1
  O  O227  1  0.13060774  0.25033538  0.48782800  1
  O  O228  1  0.14584995  0.24984401  1.00341909  1
  O  O229  1  0.12993802  0.74316402  0.49595712  1
  O  O230  1  0.13993300  0.74862545  0.99644938  1
  O  O231  1  0.62024891  0.23761695  0.50019230  1
  O  O232  1  0.62821702  0.24664190  0.99158420  1
  O  O233  1  0.63085514  0.74906973  0.49090763  1
  O  O234  1  0.63182046  0.74787133  0.99214202  1
  O  O235  1  0.48748848  0.24756537  0.12568368  1
  O  O236  1  0.49403344  0.24668201  0.63042995  1
  O  O237  1  0.50750085  0.74244223  0.13885170  1
  O  O238  1  0.49503668  0.74412274  0.62719961  1
  O  O239  1  0.99611346  0.23945603  0.12509175  1
  O  O240  1  0.98685622  0.25186013  0.62841843  1
  O  O241  1  0.99183277  0.74530611  0.13086255  1
  O  O242  1  0.98604714  0.73781685  0.61644706  1
  O  O243  1  0.00598189  0.25695855  0.37298040  1
  O  O244  1  -0.01661951  0.26604810  0.86157650  1
  O  O245  1  0.00061008  0.75492911  0.36841858  1
  O  O246  1  -0.00529429  0.76526795  0.88403619  1
  O  O247  1  0.50013335  0.26258853  0.37984903  1
  O  O248  1  0.50359258  0.25790179  0.86809608  1
  O  O249  1  0.50738488  0.75427199  0.36453701  1
  O  O250  1  0.50560834  0.74763752  0.86937297  1
  O  O251  1  0.24849099  0.13204350  0.48528637  1
  O  O252  1  0.25203993  0.13633081  1.00543406  1
  O  O253  1  0.23987717  0.63136542  0.49663888  1
  O  O254  1  0.25084011  0.63658549  1.00786171  1
  O  O255  1  0.74125709  0.11945413  0.49079422  1
  O  O256  1  0.74176132  0.12893071  0.99539678  1
  O  O257  1  0.74801215  0.63803690  0.50650855  1
  O  O258  1  0.74587057  0.63240340  0.98993317  1
  O  O259  1  0.25976483  0.36560427  0.00610075  1
  O  O260  1  0.24621043  0.36387414  0.49317763  1
  O  O261  1  0.25595505  0.86954421  0.00727665  1
  O  O262  1  0.26095626  0.86943737  0.49444853  1
  O  O263  1  0.74809421  0.37634787  0.01578845  1
  O  O264  1  0.73484679  0.37053033  0.52255476  1
  O  O265  1  0.74494196  0.86691414  0.00599411  1
  O  O266  1  0.75014663  0.86565828  0.51008315  1
  O  O267  1  0.12359039  0.48945719  0.25595389  1
  O  O268  1  0.12545760  0.48620167  0.75162425  1
  O  O269  1  0.13781022  0.99255031  0.25209182  1
  O  O270  1  0.12877747  0.99357980  0.75028826  1
  O  O271  1  0.63297220  0.49346739  0.24235441  1
  O  O272  1  0.61494113  0.50726619  0.73658678  1
  O  O273  1  0.62240610  0.98700512  0.24634034  1
  O  O274  1  0.62945956  0.99615148  0.74363035  1
  O  O275  1  0.36359891  -0.00417982  0.25825572  1
  O  O276  1  0.37264138  0.01291138  0.75829406  1
  O  O277  1  0.37474345  0.50971321  0.25857662  1
  O  O278  1  0.38748895  0.49791708  0.77710758  1
  O  O279  1  0.87931460  0.01039648  0.25613900  1
  O  O280  1  0.86787561  0.00815814  0.75340075  1
  O  O281  1  0.86811799  0.49845179  0.26680774  1
  O  O282  1  0.87738198  0.51102993  0.75927206  1
  O  O283  1  0.11430938  0.37001680  0.36717602  1
  O  O284  1  0.11526564  0.36384926  0.86638927  1
  O  O285  1  0.11788307  0.86851528  0.36840282  1
  O  O286  1  0.10699023  0.87265165  0.87985504  1
  O  O287  1  0.61933370  0.37449210  0.36718950  1
  O  O288  1  0.61136163  0.36927220  0.88219358  1
  O  O289  1  0.62410459  0.86834339  0.36760662  1
  O  O290  1  0.63388380  0.85414146  0.86461321  1
  O  O291  1  0.38496154  0.13909904  0.12620794  1
  O  O292  1  0.38942678  0.13444516  0.61755478  1
  O  O293  1  0.38718778  0.61916988  0.13756278  1
  O  O294  1  0.38187178  0.64458494  0.61499406  1
  O  O295  1  0.87912258  0.12789018  0.13144670  1
  O  O296  1  0.87320521  0.13640319  0.63015593  1
  O  O297  1  0.88183960  0.63750267  0.11941366  1
  O  O298  1  0.87840232  0.62749797  0.63362334  1
  O  O299  1  0.26223404  0.25660373  0.11904947  1
  O  O300  1  0.26058315  0.24186436  0.61651639  1
  O  O301  1  0.24708037  0.75966908  0.11503099  1
  O  O302  1  0.25805653  0.74809660  0.60942875  1
  O  O303  1  0.76062736  0.25856865  0.12192296  1
  O  O304  1  0.76267006  0.25459097  0.62480758  1
  O  O305  1  0.75281396  0.75463919  0.11748930  1
  O  O306  1  0.75606732  0.75374284  0.62039905  1
  O  O307  1  0.24477176  0.24564078  0.37913602  1
  O  O308  1  0.25519124  0.25060003  0.89102326  1
  O  O309  1  0.24436996  0.74829571  0.38562917  1
  O  O310  1  0.25540369  0.74610423  0.89082591  1
  O  O311  1  0.75113920  0.23868134  0.37204519  1
  O  O312  1  0.74320230  0.24751114  0.87465005  1
  O  O313  1  0.74158628  0.75498835  0.38500651  1
  O  O314  1  0.74438688  0.74050958  0.88075407  1
  O  O315  1  -0.00653543  0.10758050  0.01650213  1
  O  O316  1  0.00089788  0.11370457  0.49634617  1
  O  O317  1  0.00108967  0.61597470  0.00761241  1
  O  O318  1  0.00506122  0.61665537  0.50957305  1
  O  O319  1  0.51633926  0.12931153  0.02022325  1
  O  O320  1  0.50892221  0.11899195  0.50718926  1
  O  O321  1  0.50121200  0.62600015  0.01259765  1
  O  O322  1  0.50163737  0.61980955  0.50730763  1
  O  O323  1  0.50445491  0.38598427  0.48995688  1
  O  O324  1  0.48883529  0.37311378  0.99520423  1
  O  O325  1  0.48895672  0.88242536  0.49728517  1
  O  O326  1  0.49091560  0.88106992  1.00270288  1
  O  O327  1  1.00587797  0.38702954  0.49092193  1
  O  O328  1  1.00161323  0.37804011  0.99066536  1
  O  O329  1  0.99507112  0.87965629  0.48713093  1
  O  O330  1  0.99621507  0.88292310  1.00370690  1
  O  O331  1  0.49684835  0.49283594  0.37947384  1
  O  O332  1  0.49495208  0.49344262  0.88396750  1
  O  O333  1  0.49260349  1.00067203  0.38186119  1
  O  O334  1  0.54549136  0.97606585  0.89143587  1
  O  O335  1  0.98592852  0.49481418  0.38118043  1
  O  O336  1  0.99204412  0.48795222  0.87994896  1
  O  O337  1  0.99016347  0.99409425  0.37858509  1
  O  O338  1  0.99274934  0.98720636  0.88400635  1
  O  O339  1  0.00256993  0.00224654  0.12096565  1
  O  O340  1  -0.01398670  0.00238263  0.60687668  1
  O  O341  1  -0.01051903  0.50830730  0.11722983  1
  O  O342  1  -0.01057155  0.50782123  0.61427496  1
  O  O343  1  0.50637656  0.01351479  0.12130684  1
  O  O344  1  0.50341221  0.00861554  0.62307809  1
  O  O345  1  0.50921061  0.50705953  0.12727610  1
  O  O346  1  0.50571641  0.50547828  0.61596402  1
  O  O347  1  0.23955007  0.37725387  0.24260346  1
  O  O348  1  0.23393092  0.36653222  0.75409809  1
  O  O349  1  0.24737271  0.87996750  0.24421457  1
  O  O350  1  0.25806731  0.89878847  0.75283742  1
  O  O351  1  0.74419693  0.38440500  0.23956481  1
  O  O352  1  0.74032038  0.36790038  0.72842174  1
  O  O353  1  0.74034905  0.86828841  0.23757331  1
  O  O354  1  0.74327439  0.87741459  0.74221912  1
  O  O355  1  0.24627709  0.11824952  0.26136836  1
  O  O356  1  0.24383440  0.11775655  0.76486241  1
  O  O357  1  0.25764615  0.62545891  0.24868554  1
  O  O358  1  0.26503134  0.62648764  0.74719993  1
  O  O359  1  0.75814757  0.12295074  0.25966500  1
  O  O360  1  0.75870219  0.12324402  0.75523561  1
  O  O361  1  0.74608223  0.61204847  0.24596306  1
  O  O362  1  0.75626892  0.62650843  0.76234038  1
  O  O363  1  0.36971471  0.11501526  0.37780123  1
  O  O364  1  0.45073696  0.08521318  0.89867468  1
  O  O365  1  0.37480665  0.62018906  0.36327112  1
  O  O366  1  0.37225673  0.61005400  0.88432329  1
  O  O367  1  0.86871956  0.11867672  0.36697966  1
  O  O368  1  0.87139875  0.11801966  0.86677271  1
  O  O369  1  0.87651162  0.61607268  0.37673822  1
  O  O370  1  0.86750605  0.61787111  0.86912803  1
  O  O371  1  0.13357272  0.36683745  0.13544037  1
  O  O372  1  0.12292685  0.37486566  0.63709255  1
  O  O373  1  0.13679902  0.87652612  0.13286739  1
  O  O374  1  0.11567924  0.88901040  0.62312055  1
  O  O375  1  0.63039176  0.38209689  0.13136847  1
  O  O376  1  0.62293011  0.39070293  0.62769192  1
  O  O377  1  0.63085662  0.88040538  0.13143416  1
  O  O378  1  0.62942883  0.87988153  0.62955153  1
  O  O379  1  0.12405194  0.25869962  0.26092614  1
  O  O380  1  0.10923896  0.24913949  0.74557069  1
  O  O381  1  0.11708101  0.75464655  0.25601628  1
  O  O382  1  0.13836654  0.76290247  0.75801503  1
  O  O383  1  0.63154986  0.26458632  0.25168294  1
  O  O384  1  0.61791095  0.24786255  0.76334138  1
  O  O385  1  0.61973743  0.75987185  0.25633062  1
  O  O386  1  0.61381100  0.74892623  0.75400309  1
  O  O387  1  0.37061099  0.25324455  0.23819891  1
  O  O388  1  0.38083822  0.24951601  0.73654405  1
  O  O389  1  0.38431503  0.74416751  0.25600018  1
  O  O390  1  0.37732511  0.75689978  0.73917964  1
  O  O391  1  0.87781425  0.23534213  0.24012229  1
  O  O392  1  0.88135324  0.24425748  0.74006599  1
  O  O393  1  0.88243554  0.75231272  0.24098463  1
  O  O394  1  0.87057044  0.73579855  0.74097939  1
  O  O395  1  0.38718757  0.50666478  0.48080447  1
  O  O396  1  0.37830018  0.48944172  0.99594163  1
  O  O397  1  0.37761637  0.99607279  0.49429834  1
  O  O398  1  0.38957342  0.99328495  1.00899589  1
  O  O399  1  0.88006861  0.50209457  0.48772290  1
  O  O400  1  0.88633928  0.50395096  0.98742484  1
  O  O401  1  0.88002605  0.99639530  0.48789993  1
  O  O402  1  0.88030157  0.99525804  0.99195566  1
  O  O403  1  0.11691650  0.00018421  0.00208837  1
  O  O404  1  0.11226218  0.00250899  0.49284371  1
  O  O405  1  0.10922454  0.49716906  -0.00448144  1
  O  O406  1  0.11449569  0.51178551  0.49362192  1
  O  O407  1  0.61958672  0.01516672  0.01182045  1
  O  O408  1  0.61909425  0.00564555  0.50716399  1
  O  O409  1  0.62377716  0.50235452  0.01561483  1
  O  O410  1  0.61647522  0.50432021  0.50542425  1
  O  O411  1  0.37244761  0.36544768  0.12022699  1
  O  O412  1  0.37809748  0.35792203  0.62021437  1
  O  O413  1  0.36398077  0.87935745  0.11953067  1
  O  O414  1  0.38109146  0.86713745  0.61416605  1
  O  O415  1  0.86931591  0.36317310  0.13187996  1
  O  O416  1  0.86590034  0.36525437  0.62559417  1
  O  O417  1  0.86524325  0.86373302  0.12339993  1
  O  O418  1  0.86861747  0.86403212  0.62650365  1
  O  O419  1  0.13163206  0.13543862  0.37365214  1
  O  O420  1  0.08399123  0.14387112  0.89034921  1
  O  O421  1  0.12196222  0.63246358  0.38416094  1
  O  O422  1  0.12980790  0.62642001  0.87929125  1
  O  O423  1  0.63425276  0.12701228  0.38382278  1
  O  O424  1  0.62905226  0.13535626  0.88514337  1
  O  O425  1  0.62068359  0.63842370  0.37346614  1
  O  O426  1  0.62822635  0.63125758  0.87284947  1
