# generated using pymatgen
data_V85Zn86O256
_symmetry_space_group_name_H-M   'P 1'
_cell_length_a   16.99158424
_cell_length_b   16.99445272
_cell_length_c   16.97801573
_cell_angle_alpha   89.98299952
_cell_angle_beta   89.94440003
_cell_angle_gamma   90.10582710
_symmetry_Int_Tables_number   1
_chemical_formula_structural   V85Zn86O256
_chemical_formula_sum   'V85 Zn86 O256'
_cell_volume   4902.60634760
_cell_formula_units_Z   1
loop_
 _symmetry_equiv_pos_site_id
 _symmetry_equiv_pos_as_xyz
  1  'x, y, z'
loop_
 _atom_site_type_symbol
 _atom_site_label
 _atom_site_symmetry_multiplicity
 _atom_site_fract_x
 _atom_site_fract_y
 _atom_site_fract_z
 _atom_site_occupancy
  V  V0  1  0.87565681  0.49714552  0.37419230  1
  V  V1  1  0.24780362  0.87164094  0.62397777  1
  V  V2  1  0.49738252  0.37405375  0.87729620  1
  V  V3  1  0.13396213  0.13177598  0.50539212  1
  V  V4  1  0.12210645  0.49715612  0.62560846  1
  V  V5  1  0.38053090  0.22892829  0.13081457  1
  V  V6  1  -0.00697686  0.49764268  -0.00189660  1
  V  V7  1  0.51247208  0.37685830  0.36520415  1
  V  V8  1  -0.00493320  0.24289552  0.75454767  1
  V  V9  1  0.61825321  0.75875040  0.87771210  1
  V  V10  1  0.74418883  0.23832666  0.50278077  1
  V  V11  1  0.25232271  0.74949615  0.49818257  1
  V  V12  1  0.75511137  0.13484505  0.87664214  1
  V  V13  1  -0.00030359  0.50016988  0.50044902  1
  V  V14  1  0.75556502  0.89094186  0.12567870  1
  V  V15  1  0.12325104  0.25404489  0.87726163  1
  V  V16  1  0.62940804  0.49640906  0.12950746  1
  V  V17  1  0.74796873  0.75130809  0.49841904  1
  V  V18  1  0.62182670  0.12778947  0.00221321  1
  V  V19  1  0.62275614  0.62650924  0.00016022  1
  V  V20  1  0.37431964  0.37848129  0.50365776  1
  V  V21  1  0.87052458  0.75531527  0.11405400  1
  V  V22  1  0.37697896  0.12508651  0.74738514  1
  V  V23  1  0.50666493  0.12573127  0.60835076  1
  V  V24  1  0.74707494  0.36270585  0.12975464  1
  V  V25  1  0.49838493  0.76185466  0.74836549  1
  V  V26  1  0.61521853  0.00834834  0.13395394  1
  V  V27  1  0.12186528  -0.00530538  0.12139277  1
  V  V28  1  0.62483786  0.00617084  0.61087463  1
  V  V29  1  0.50568196  0.87998288  0.39709150  1
  V  V30  1  0.87078739  0.62729051  0.24889194  1
  V  V31  1  0.87426978  0.49757739  0.87436119  1
  V  V32  1  0.74833673  0.87763226  0.62632692  1
  V  V33  1  0.87328064  0.00407792  0.36084793  1
  V  V34  1  0.12169040  0.87290276  0.75339437  1
  V  V35  1  -0.00280560  0.00116925  0.50296698  1
  V  V36  1  0.11944793  0.37368071  0.75392750  1
  V  V37  1  0.38607897  -0.00737690  0.86974173  1
  V  V38  1  0.74890433  0.62590547  0.37493731  1
  V  V39  1  0.49626501  0.50271609  0.49753374  1
  V  V40  1  0.12388797  0.74417123  0.87703304  1
  V  V41  1  -0.00334095  0.75121606  0.24861996  1
  V  V42  1  0.38586509  0.62330074  0.74823273  1
  V  V43  1  0.12116192  0.12337820  -0.00065958  1
  V  V44  1  0.75095364  0.12454597  0.35906531  1
  V  V45  1  0.61789172  0.87019919  0.24716334  1
  V  V46  1  0.61908823  0.50387995  0.62629951  1
  V  V47  1  0.24624566  0.37079736  0.62106315  1
  V  V48  1  0.24962494  0.62070448  0.86935502  1
  V  V49  1  -0.00803843  0.87212836  0.88389389  1
  V  V50  1  0.87204414  0.62347618  0.74919169  1
  V  V51  1  0.87196890  0.75049677  0.62547519  1
  V  V52  1  0.50344061  0.24817091  0.74980858  1
  V  V53  1  0.62367349  0.37615264  0.75111745  1
  V  V54  1  0.50559227  0.62933744  0.13572192  1
  V  V55  1  0.25928186  0.62947216  0.36975141  1
  V  V56  1  0.87252602  0.87775812  0.49858327  1
  V  V57  1  0.25307656  0.24584132  0.00862343  1
  V  V58  1  -0.00861555  0.00024304  0.00096838  1
  V  V59  1  0.12157915  -0.00281220  0.62883272  1
  V  V60  1  0.25109134  0.49934697  0.74864954  1
  V  V61  1  0.37434635  0.37192692  0.01107613  1
  V  V62  1  0.87560780  0.24236594  0.63216396  1
  V  V63  1  0.61784883  0.62803717  0.50328571  1
  V  V64  1  0.25746278  0.87615668  0.12143326  1
  V  V65  1  0.86862913  0.36602131  -0.00254573  1
  V  V66  1  0.74788857  0.49978342  0.74817547  1
  V  V67  1  0.74580921  0.62763938  0.87459058  1
  V  V68  1  0.24914124  0.74999646  -0.00253776  1
  V  V69  1  -0.00264204  0.62355791  0.62610622  1
  V  V70  1  0.87404481  0.37008469  0.50150213  1
  V  V71  1  0.62249318  0.88363269  0.75351830  1
  V  V72  1  0.12283552  0.74834075  0.37850625  1
  V  V73  1  0.87056676  -0.00040466  0.87022809  1
  V  V74  1  -0.00335497  0.74827285  0.75152955  1
  V  V75  1  0.15657837  0.58644896  0.03780643  1
  V  V76  1  0.26177846  0.12369232  0.37431791  1
  V  V77  1  0.38023015  0.74851893  0.12728810  1
  V  V78  1  -0.00518110  0.62487189  0.11812732  1
  V  V79  1  0.37479781  0.25081226  0.62091444  1
  V  V80  1  0.37799175  0.74567814  0.62261839  1
  V  V81  1  0.12952508  0.87268788  0.24796856  1
  V  V82  1  0.89268144  0.24284585  0.13766178  1
  V  V83  1  0.25212432  0.12336380  0.87103611  1
  V  V84  1  0.32939052  0.45395422  0.32719167  1
  Zn  Zn85  1  0.74674812  0.37223507  0.62449785  1
  Zn  Zn86  1  0.75190468  0.00670194  0.75086936  1
  Zn  Zn87  1  0.62674308  0.24715282  0.37117490  1
  Zn  Zn88  1  0.38808513  0.86624336  -0.01272113  1
  Zn  Zn89  1  0.50144320  0.49817289  -0.00008399  1
  Zn  Zn90  1  -0.00436849  0.12284156  0.63261796  1
  Zn  Zn91  1  0.12565304  0.62316511  0.50025790  1
  Zn  Zn92  1  0.25793286  -0.00299279  0.26609658  1
  Zn  Zn93  1  0.62855788  0.25352205  0.88462717  1
  Zn  Zn94  1  0.74910300  0.75880719  -0.00178480  1
  Zn  Zn95  1  -0.00289552  0.87436460  0.37336777  1
  Zn  Zn96  1  0.09751507  0.23252574  0.33555284  1
  Zn  Zn97  1  0.15525094  0.46166320  0.17142443  1
  Zn  Zn98  1  0.50052487  -0.00380439  0.00197919  1
  Zn  Zn99  1  0.37588355  0.49813833  0.87713586  1
  Zn  Zn100  1  0.74650333  0.49322708  0.25240907  1
  Zn  Zn101  1  0.36564816  0.89976568  0.48131090  1
  Zn  Zn102  1  -0.00591764  0.35648992  0.34152770  1
  Zn  Zn103  1  0.62292496  0.74559781  0.36261857  1
  Zn  Zn104  1  0.38273870  0.63172669  0.25717642  1
  Zn  Zn105  1  0.51012429  0.23326419  0.24551558  1
  Zn  Zn106  1  0.24942803  -0.00131176  0.75108500  1
  Zn  Zn107  1  0.15752972  0.15913848  0.20429555  1
  Zn  Zn108  1  0.18553363  0.18862846  0.68572247  1
  Zn  Zn109  1  0.19016895  0.69041739  0.19136414  1
  Zn  Zn110  1  0.18588500  0.68475876  0.68707590  1
  Zn  Zn111  1  0.68610645  0.19073800  0.18953763  1
  Zn  Zn112  1  0.68822907  0.18568364  0.69116845  1
  Zn  Zn113  1  0.69076608  0.69004314  0.18518498  1
  Zn  Zn114  1  0.68367772  0.68957513  0.68731660  1
  Zn  Zn115  1  0.26359355  0.27752331  0.27657618  1
  Zn  Zn116  1  0.31213663  0.31181977  0.81296626  1
  Zn  Zn117  1  0.39883296  0.87358490  0.25782426  1
  Zn  Zn118  1  0.31049386  0.81034144  0.80788123  1
  Zn  Zn119  1  0.81291468  0.30782859  0.30988149  1
  Zn  Zn120  1  0.81098757  0.31421960  0.81379757  1
  Zn  Zn121  1  0.80729661  0.81713191  0.30670526  1
  Zn  Zn122  1  0.80799476  0.81528722  0.81373790  1
  Zn  Zn123  1  0.16437589  0.43846227  0.35023039  1
  Zn  Zn124  1  0.15717200  0.40057478  0.99049541  1
  Zn  Zn125  1  0.18324411  0.93665400  0.43889596  1
  Zn  Zn126  1  0.18776285  0.93698761  0.93567787  1
  Zn  Zn127  1  0.68941572  0.43811213  0.44196687  1
  Zn  Zn128  1  0.68797414  0.43799614  0.94080447  1
  Zn  Zn129  1  0.68969430  0.94016364  0.42956428  1
  Zn  Zn130  1  0.68678026  0.94101713  0.94442626  1
  Zn  Zn131  1  0.31064107  0.05668286  0.05592440  1
  Zn  Zn132  1  0.31171675  0.06229519  0.56380037  1
  Zn  Zn133  1  0.32626591  0.56107274  0.06348501  1
  Zn  Zn134  1  0.30996034  0.56381636  0.56093802  1
  Zn  Zn135  1  0.81167012  0.07155557  0.05955234  1
  Zn  Zn136  1  0.81157932  0.06267200  0.56443375  1
  Zn  Zn137  1  0.80658631  0.56353151  0.06182560  1
  Zn  Zn138  1  0.80801078  0.56094151  0.56161575  1
  Zn  Zn139  1  0.44358225  0.43751789  0.18208751  1
  Zn  Zn140  1  0.44029995  0.43894195  0.68717029  1
  Zn  Zn141  1  0.43075204  1.05697617  0.20807483  1
  Zn  Zn142  1  0.42690239  0.94666346  0.66024172  1
  Zn  Zn143  1  0.93180250  0.43866277  0.18250778  1
  Zn  Zn144  1  0.93683384  0.42875962  0.68592015  1
  Zn  Zn145  1  0.94058928  0.93546127  0.18505557  1
  Zn  Zn146  1  0.93564192  0.93569519  0.69164477  1
  Zn  Zn147  1  0.06034344  0.05738549  0.31606051  1
  Zn  Zn148  1  0.06052063  0.06213633  0.81677125  1
  Zn  Zn149  1  0.05542826  0.56824482  0.31020068  1
  Zn  Zn150  1  0.06185205  0.55939143  0.81555787  1
  Zn  Zn151  1  0.57025608  0.06198167  0.31876510  1
  Zn  Zn152  1  0.56668053  0.06855306  0.81142589  1
  Zn  Zn153  1  0.56344909  0.55920048  0.31384277  1
  Zn  Zn154  1  0.55952423  0.56336600  0.81461436  1
  Zn  Zn155  1  0.43499665  0.19404163  0.43122485  1
  Zn  Zn156  1  0.44076649  0.18423394  0.93759073  1
  Zn  Zn157  1  0.44112340  0.70017393  0.43413016  1
  Zn  Zn158  1  0.43959910  0.68670366  0.93621204  1
  Zn  Zn159  1  0.93269113  0.18020053  0.44370933  1
  Zn  Zn160  1  0.93965636  0.18737051  0.93932524  1
  Zn  Zn161  1  0.93564114  0.68738811  0.43822166  1
  Zn  Zn162  1  0.93406212  0.68467025  0.93710441  1
  Zn  Zn163  1  0.07317794  0.31369761  0.16756070  1
  Zn  Zn164  1  0.06521784  0.31222911  0.48630376  1
  Zn  Zn165  1  0.06466490  0.80706235  0.05991980  1
  Zn  Zn166  1  0.05864971  0.81266590  0.56154486  1
  Zn  Zn167  1  0.56111299  0.30914610  0.06660628  1
  Zn  Zn168  1  0.56324780  0.31490885  0.56005844  1
  Zn  Zn169  1  0.56134270  0.82006371  0.06164902  1
  Zn  Zn170  1  0.56352253  0.81103715  0.56808260  1
  O  O171  1  0.13460186  0.10763180  0.10529894  1
  O  O172  1  0.12265582  0.11030207  0.62477110  1
  O  O173  1  0.11049915  0.63737361  0.12075253  1
  O  O174  1  0.11633140  0.61585276  0.62484345  1
  O  O175  1  0.63808470  0.11444533  0.11545025  1
  O  O176  1  0.62179539  0.11458931  0.62680290  1
  O  O177  1  0.62286889  0.62131433  0.11763499  1
  O  O178  1  0.62983198  0.61701619  0.61497356  1
  O  O179  1  0.38393858  0.38680815  0.38682801  1
  O  O180  1  0.38718864  0.37237069  0.87927843  1
  O  O181  1  0.40120260  0.87792706  0.37603209  1
  O  O182  1  0.36642784  0.88972873  0.86929463  1
  O  O183  1  0.87769434  0.38220893  0.38088034  1
  O  O184  1  0.86628605  0.38510746  0.88714523  1
  O  O185  1  0.87198041  0.88758124  0.37887688  1
  O  O186  1  0.88241809  0.88136771  0.87372782  1
  O  O187  1  0.24153918  0.01207460  0.38095746  1
  O  O188  1  0.25368356  0.01074826  0.87108447  1
  O  O189  1  0.26284932  0.51022306  0.38355048  1
  O  O190  1  0.25407069  0.51440367  0.86595000  1
  O  O191  1  0.76437189  0.01100909  0.37619063  1
  O  O192  1  0.75775213  0.00468313  0.87572149  1
  O  O193  1  0.75929733  0.50625657  0.37589231  1
  O  O194  1  0.75535137  0.50702964  0.86901607  1
  O  O195  1  0.22410662  0.53000974  0.10082527  1
  O  O196  1  0.24192732  0.49509752  0.63047749  1
  O  O197  1  0.23593364  0.98570933  0.11010695  1
  O  O198  1  0.23259310  0.99074647  0.63198046  1
  O  O199  1  0.74467097  0.49127610  0.12702683  1
  O  O200  1  0.73857103  0.49808433  0.63070413  1
  O  O201  1  0.75032651  0.99270391  0.12193827  1
  O  O202  1  0.74043403  0.99827530  0.63062197  1
  O  O203  1  0.01252050  0.38584321  0.23591687  1
  O  O204  1  0.01507107  0.36806088  0.74881086  1
  O  O205  1  0.01126463  0.86726524  0.24928946  1
  O  O206  1  0.00572271  0.86782637  0.75963384  1
  O  O207  1  0.49642463  0.37830314  0.26533542  1
  O  O208  1  0.50444287  0.36891883  0.75715900  1
  O  O209  1  0.51751257  0.87601816  0.25074595  1
  O  O210  1  0.50608176  0.86585628  0.74282205  1
  O  O211  1  0.49199726  0.12365908  0.27039105  1
  O  O212  1  0.49731821  0.13512827  0.74339762  1
  O  O213  1  0.50430195  0.62669531  0.23934337  1
  O  O214  1  0.48948423  0.63279964  0.75255887  1
  O  O215  1  1.05659259  0.14987213  0.25959362  1
  O  O216  1  1.00442935  0.13804191  0.75154683  1
  O  O217  1  0.98983029  0.63216757  0.23933283  1
  O  O218  1  0.99148582  0.62902533  0.74584599  1
  O  O219  1  0.37387959  0.25046957  0.00708916  1
  O  O220  1  0.38123963  0.26328097  0.51382252  1
  O  O221  1  0.36361909  0.74644272  0.00087085  1
  O  O222  1  0.36658755  0.75298800  0.50970824  1
  O  O223  1  0.87885811  0.26567994  -0.00167755  1
  O  O224  1  0.86618998  0.25545185  0.51096049  1
  O  O225  1  0.87236746  0.74894883  0.01058175  1
  O  O226  1  0.86814003  0.75698913  0.50498163  1
  O  O227  1  0.12626097  0.22856601  0.52933350  1
  O  O228  1  0.13750145  0.23734210  0.99053423  1
  O  O229  1  0.12862164  0.74960201  0.49383930  1
  O  O230  1  0.13726957  0.74259896  0.99343484  1
  O  O231  1  0.64230143  0.25894282  0.49510613  1
  O  O232  1  0.62054916  0.23294815  1.00352245  1
  O  O233  1  0.63284501  0.74116010  0.50525865  1
  O  O234  1  0.62464479  0.74490238  0.99133084  1
  O  O235  1  0.48423101  0.24962062  0.12865694  1
  O  O236  1  0.49732165  0.24625034  0.63084536  1
  O  O237  1  0.49249747  0.73959976  0.11346221  1
  O  O238  1  0.48978564  0.74991280  0.63425726  1
  O  O239  1  0.99005230  0.25169405  0.11728434  1
  O  O240  1  0.98720242  0.24709276  0.63925649  1
  O  O241  1  0.98986380  0.74469993  0.12621766  1
  O  O242  1  0.99105354  0.74444026  0.63042618  1
  O  O243  1  0.00029276  0.25579413  0.40011046  1
  O  O244  1  0.01167415  0.24635586  0.86951924  1
  O  O245  1  0.00532117  0.75138358  0.37037717  1
  O  O246  1  0.00120479  0.75479963  0.87210768  1
  O  O247  1  0.50178246  0.26926200  0.37811620  1
  O  O248  1  0.50291552  0.25571707  0.86624864  1
  O  O249  1  0.51318062  0.76935886  0.38099204  1
  O  O250  1  0.51172963  0.74669469  0.86517513  1
  O  O251  1  0.23790518  0.11930606  0.50313078  1
  O  O252  1  0.24577573  0.12785022  0.98799811  1
  O  O253  1  0.24676821  0.63184923  0.49220030  1
  O  O254  1  0.24965932  0.62904393  0.98828136  1
  O  O255  1  0.75480950  0.13718445  0.49744516  1
  O  O256  1  0.73726929  0.11951682  0.98555103  1
  O  O257  1  0.74229512  0.62840941  0.49038987  1
  O  O258  1  0.73715806  0.63022288  0.99426129  1
  O  O259  1  0.26469847  0.35525831  -0.01460275  1
  O  O260  1  0.26687767  0.38309498  0.51721401  1
  O  O261  1  0.24871989  0.86318931  0.00167976  1
  O  O262  1  0.25113469  0.86651059  0.50442824  1
  O  O263  1  0.76229036  0.38033893  0.00944770  1
  O  O264  1  0.76151390  0.36789465  0.50023277  1
  O  O265  1  0.74286662  0.87368912  0.02006925  1
  O  O266  1  0.75371895  0.87129240  0.50556382  1
  O  O267  1  0.13742414  0.50864149  0.26721835  1
  O  O268  1  0.12885393  0.49090390  0.74884719  1
  O  O269  1  0.12696065  0.98717038  0.23796952  1
  O  O270  1  0.12023907  0.98884628  0.74703094  1
  O  O271  1  0.62791674  0.50480892  0.23392515  1
  O  O272  1  0.62648323  0.49813722  0.74363297  1
  O  O273  1  0.62957855  0.99403687  0.23721392  1
  O  O274  1  0.62605415  0.99016876  0.74952164  1
  O  O275  1  0.36056920  -0.02629752  0.22595756  1
  O  O276  1  0.37164289  0.00595590  0.75438293  1
  O  O277  1  0.38005642  0.50612868  0.25473468  1
  O  O278  1  0.37093623  0.50795704  0.74887671  1
  O  O279  1  0.88603491  -0.00042506  0.26317031  1
  O  O280  1  0.87447568  -0.00133976  0.76526005  1
  O  O281  1  0.87108050  0.50874837  0.25892913  1
  O  O282  1  0.86915386  0.50097328  0.75579485  1
  O  O283  1  0.10797565  0.35564426  0.38910610  1
  O  O284  1  0.13277145  0.35888127  0.87382771  1
  O  O285  1  0.12386715  0.86383041  0.36630230  1
  O  O286  1  0.11697291  0.86650603  0.86893424  1
  O  O287  1  0.61444809  0.37853826  0.37835979  1
  O  O288  1  0.61515170  0.37339236  0.87315196  1
  O  O289  1  0.63048017  0.87115383  0.35996328  1
  O  O290  1  0.63192614  0.86849725  0.86668935  1
  O  O291  1  0.37713528  0.12569837  0.12159688  1
  O  O292  1  0.38322073  0.13570277  0.62965219  1
  O  O293  1  0.38734098  0.63143713  0.12918802  1
  O  O294  1  0.36741911  0.63698603  0.63440939  1
  O  O295  1  0.87267560  0.14556518  0.11778357  1
  O  O296  1  0.87338495  0.13745007  0.62710592  1
  O  O297  1  0.87596492  0.63496784  0.12820101  1
  O  O298  1  0.87562649  0.62947563  0.63095158  1
  O  O299  1  0.26475502  0.23934471  0.10925829  1
  O  O300  1  0.26225330  0.26070125  0.63506763  1
  O  O301  1  0.25577355  0.75102560  0.11428972  1
  O  O302  1  0.24958136  0.75010181  0.61349131  1
  O  O303  1  0.75599640  0.26197268  0.12422611  1
  O  O304  1  0.75249374  0.24968168  0.61766192  1
  O  O305  1  0.75853993  0.75816232  0.12185630  1
  O  O306  1  0.75483524  0.75608575  0.62005831  1
  O  O307  1  0.24210704  0.22552465  0.37847801  1
  O  O308  1  0.24693276  0.23624496  0.87618007  1
  O  O309  1  0.24066538  0.74463297  0.38974080  1
  O  O310  1  0.24670703  0.74035918  0.87851997  1
  O  O311  1  0.75847342  0.23753625  0.38486784  1
  O  O312  1  0.74830411  0.23879313  0.87553957  1
  O  O313  1  0.74821662  0.74214757  0.38039517  1
  O  O314  1  0.73711265  0.74549632  0.87506100  1
  O  O315  1  0.01137050  0.11362222  -0.00890150  1
  O  O316  1  0.00503596  0.11039242  0.51019082  1
  O  O317  1  -0.00371307  0.61821059  0.00679023  1
  O  O318  1  -0.00417047  0.61765726  0.50964128  1
  O  O319  1  0.51724570  0.11564773  -0.00896144  1
  O  O320  1  0.49950574  0.13479946  0.51010211  1
  O  O321  1  0.51195842  0.62299366  0.00401627  1
  O  O322  1  0.51201657  0.62007540  0.49250517  1
  O  O323  1  0.49221805  0.38438865  0.49597408  1
  O  O324  1  0.49305733  0.37209245  0.99300526  1
  O  O325  1  0.49987381  0.87508513  0.49938741  1
  O  O326  1  0.49938536  0.88272888  0.99540089  1
  O  O327  1  0.98251497  0.38779075  0.51223790  1
  O  O328  1  0.97923652  0.39539734  1.00212828  1
  O  O329  1  0.99259538  0.88460691  0.49823453  1
  O  O330  1  1.00567380  0.87947937  0.98835196  1
  O  O331  1  0.50463041  0.49037141  0.38557495  1
  O  O332  1  0.49788526  0.48908804  0.87748144  1
  O  O333  1  0.52598738  0.97777750  0.38230607  1
  O  O334  1  0.48617338  1.00361810  0.86583321  1
  O  O335  1  0.98525207  0.50760004  0.38506009  1
  O  O336  1  0.98086230  0.50895815  0.87993053  1
  O  O337  1  0.99058473  0.99703770  0.38447633  1
  O  O338  1  0.99283020  0.99071213  0.88066958  1
  O  O339  1  0.01232803  -0.00973921  0.11412153  1
  O  O340  1  0.00572081  -0.00266624  0.62239103  1
  O  O341  1  -0.01031749  0.51704897  0.11397699  1
  O  O342  1  0.00097400  0.50451816  0.62192992  1
  O  O343  1  0.51491597  0.00748684  0.12779963  1
  O  O344  1  0.51923058  0.01268559  0.63153975  1
  O  O345  1  0.51014823  0.50926070  0.12064264  1
  O  O346  1  0.51252761  0.49877862  0.61806604  1
  O  O347  1  0.26555490  0.39517820  0.27527666  1
  O  O348  1  0.24365589  0.38039244  0.74491197  1
  O  O349  1  0.23541397  0.86940081  0.23554730  1
  O  O350  1  0.23249507  0.87181813  0.74707480  1
  O  O351  1  0.75570696  0.37633834  0.23376926  1
  O  O352  1  0.73996164  0.38235945  0.75072758  1
  O  O353  1  0.73958222  0.87443056  0.23305626  1
  O  O354  1  0.74005034  0.87695024  0.74163302  1
  O  O355  1  0.24829309  0.11501772  0.26764799  1
  O  O356  1  0.25679414  0.12442477  0.75468020  1
  O  O357  1  0.25654927  0.63587241  0.26625338  1
  O  O358  1  0.25958216  0.62217581  0.75362419  1
  O  O359  1  0.75717514  0.12959766  0.26145790  1
  O  O360  1  0.74222395  0.12253398  0.77079744  1
  O  O361  1  0.75255268  0.62507280  0.26187916  1
  O  O362  1  0.75274522  0.61992576  0.75385251  1
  O  O363  1  0.36051292  0.11999006  0.39109953  1
  O  O364  1  0.36977124  0.11829194  0.86662980  1
  O  O365  1  0.36852129  0.63575375  0.37431081  1
  O  O366  1  0.36897966  0.62374018  0.86517466  1
  O  O367  1  0.86842299  0.11042262  0.38036395  1
  O  O368  1  0.86161115  0.11820760  0.88306726  1
  O  O369  1  0.86590447  0.61949435  0.37211217  1
  O  O370  1  0.86464641  0.62033048  0.86789816  1
  O  O371  1  0.13091563  0.38454721  0.09864147  1
  O  O372  1  0.13521817  0.38086901  0.63689549  1
  O  O373  1  0.13143773  0.87486196  0.12741479  1
  O  O374  1  0.12548264  0.87720418  0.63388663  1
  O  O375  1  0.63931476  0.38133042  0.11474601  1
  O  O376  1  0.62566448  0.38450487  0.63195967  1
  O  O377  1  0.63106569  0.88840267  0.13193456  1
  O  O378  1  0.62881390  0.88708884  0.63244905  1
  O  O379  1  0.15639296  0.26913797  0.23683920  1
  O  O380  1  0.11932238  0.25587060  0.75706728  1
  O  O381  1  0.11761616  0.75363856  0.25795251  1
  O  O382  1  0.11571295  0.75446430  0.75437297  1
  O  O383  1  0.62219464  0.24988006  0.25679188  1
  O  O384  1  0.61475926  0.25657364  0.75054678  1
  O  O385  1  0.62812305  0.76522776  0.24415372  1
  O  O386  1  0.61741350  0.76055592  0.75391523  1
  O  O387  1  0.36682602  0.25038995  0.22881876  1
  O  O388  1  0.38722079  0.24843781  0.74157088  1
  O  O389  1  0.37712679  0.75928204  0.22903864  1
  O  O390  1  0.38344946  0.74149196  0.74904211  1
  O  O391  1  0.88394668  0.25625237  0.23778859  1
  O  O392  1  0.88447844  0.25922424  0.74651466  1
  O  O393  1  0.87869360  0.74659988  0.24214839  1
  O  O394  1  0.87808474  0.74498392  0.74595151  1
  O  O395  1  0.39009561  0.49634542  0.51293633  1
  O  O396  1  0.37925939  0.48698044  0.99677829  1
  O  O397  1  0.37989466  0.97839422  0.55739716  1
  O  O398  1  0.37721579  1.00020207  0.97940734  1
  O  O399  1  0.87773787  0.49348164  0.49505706  1
  O  O400  1  0.87386695  0.49973768  0.99048952  1
  O  O401  1  0.88147336  0.99469930  0.49914619  1
  O  O402  1  0.88735113  1.00467973  0.99310721  1
  O  O403  1  0.11466942  0.00287720  -0.00041946  1
  O  O404  1  0.11496304  0.00070441  0.51255844  1
  O  O405  1  0.10885973  0.50921412  -0.01858659  1
  O  O406  1  0.10570966  0.50196484  0.50547083  1
  O  O407  1  0.62425971  0.00874530  0.01382446  1
  O  O408  1  0.63277866  -0.00291816  0.51354988  1
  O  O409  1  0.62572005  0.50993494  0.00917324  1
  O  O410  1  0.61821842  0.50687341  0.50767937  1
  O  O411  1  0.37725594  0.37120083  0.11331075  1
  O  O412  1  0.37219187  0.36955660  0.62270073  1
  O  O413  1  0.36159403  0.86303494  0.10868211  1
  O  O414  1  0.35778566  0.85149244  0.64641271  1
  O  O415  1  0.86466308  0.36858996  0.11389509  1
  O  O416  1  0.86780875  0.36375689  0.61944880  1
  O  O417  1  0.86342277  0.87054362  0.12956474  1
  O  O418  1  0.86794134  0.87048437  0.62118032  1
  O  O419  1  0.12369072  0.12227631  0.40253173  1
  O  O420  1  0.13358162  0.12904883  0.88016066  1
  O  O421  1  0.12837681  0.63888683  0.37805943  1
  O  O422  1  0.13603488  0.63236510  0.86516498  1
  O  O423  1  0.64842850  0.12420217  0.37755626  1
  O  O424  1  0.63405589  0.12683495  0.88575483  1
  O  O425  1  0.63320395  0.62543348  0.38175957  1
  O  O426  1  0.62738007  0.63229257  0.88105804  1
