# generated using pymatgen
data_V85Zn86O256
_symmetry_space_group_name_H-M   'P 1'
_cell_length_a   16.93839647
_cell_length_b   16.93136461
_cell_length_c   16.92959853
_cell_angle_alpha   90.02741123
_cell_angle_beta   90.00149268
_cell_angle_gamma   89.98706321
_symmetry_Int_Tables_number   1
_chemical_formula_structural   V85Zn86O256
_chemical_formula_sum   'V85 Zn86 O256'
_cell_volume   4855.24169922
_cell_formula_units_Z   1
loop_
 _symmetry_equiv_pos_site_id
 _symmetry_equiv_pos_as_xyz
  1  'x, y, z'
loop_
 _atom_site_type_symbol
 _atom_site_label
 _atom_site_symmetry_multiplicity
 _atom_site_fract_x
 _atom_site_fract_y
 _atom_site_fract_z
 _atom_site_occupancy
  V  V0  1  0.79473110  -0.04167020  0.79743353  1
  V  V1  1  0.87507121  0.62608249  0.25096406  1
  V  V2  1  0.75186668  0.12597421  0.87113011  1
  V  V3  1  0.86878838  0.50452718  0.87595656  1
  V  V4  1  0.37308272  0.50285722  0.87071916  1
  V  V5  1  0.62634545  0.25750964  0.87334093  1
  V  V6  1  -0.01480100  0.11061194  0.09918486  1
  V  V7  1  0.74781755  0.74658299  0.50286143  1
  V  V8  1  0.12706850  0.50356471  0.61030448  1
  V  V9  1  0.00377604  0.88118980  0.37054729  1
  V  V10  1  0.87011960  0.11339241  0.25114884  1
  V  V11  1  0.49895744  -0.00364069  0.49952845  1
  V  V12  1  0.24817913  0.12065120  0.37263111  1
  V  V13  1  0.74638324  0.62474109  0.38132996  1
  V  V14  1  0.75783094  0.24932961  0.50264433  1
  V  V15  1  0.86492956  -0.00728987  0.37376808  1
  V  V16  1  0.86927003  0.74746584  0.10841125  1
  V  V17  1  0.00150384  0.63016346  0.62233431  1
  V  V18  1  0.37060501  0.25664172  0.12534254  1
  V  V19  1  0.12371365  0.24698699  0.36824664  1
  V  V20  1  0.50002480  -0.00091478  -0.00303094  1
  V  V21  1  0.49752248  0.12421573  0.62699146  1
  V  V22  1  0.63246253  0.00100540  0.13278486  1
  V  V23  1  0.86860226  0.12883453  0.74340481  1
  V  V24  1  0.75247095  0.87096212  0.12045518  1
  V  V25  1  0.25213126  0.25350525  -0.00011969  1
  V  V26  1  0.74906755  0.50004235  0.25166275  1
  V  V27  1  0.37130581  0.12635060  0.24923039  1
  V  V28  1  0.12817836  0.48147969  0.12222775  1
  V  V29  1  0.75981760  0.87144564  0.62513766  1
  V  V30  1  0.50190964  0.37910894  0.87079643  1
  V  V31  1  0.75223718  0.37141623  0.63399991  1
  V  V32  1  -0.00036128  0.50322001  0.49713467  1
  V  V33  1  0.49098340  0.64167843  0.12712692  1
  V  V34  1  -0.00162658  0.37432255  0.37320969  1
  V  V35  1  0.63247215  -0.00190977  0.63022150  1
  V  V36  1  -0.00617702  0.12686032  0.61875961  1
  V  V37  1  0.62662282  0.12350151  0.50037765  1
  V  V38  1  0.24811497  0.75226395  0.00592687  1
  V  V39  1  0.12108332  0.11924623  0.49723961  1
  V  V40  1  0.87828126  0.37827525  -0.00009653  1
  V  V41  1  0.62687034  0.24909459  0.37639110  1
  V  V42  1  0.12868294  -0.00965862  0.12488400  1
  V  V43  1  0.12509411  0.37770980  0.74682823  1
  V  V44  1  0.37711512  0.37397149  0.50088395  1
  V  V45  1  0.50838062  0.50386009  0.50453752  1
  V  V46  1  0.61211359  0.87229219  0.74975386  1
  V  V47  1  0.36859416  0.00747513  0.87587618  1
  V  V48  1  0.37692431  0.50533424  0.37210020  1
  V  V49  1  0.24674536  0.62770593  0.87504029  1
  V  V50  1  0.24545106  0.74393435  0.50875683  1
  V  V51  1  0.24880159  -0.01422975  0.24517915  1
  V  V52  1  0.13126109  0.24821867  0.87226458  1
  V  V53  1  -0.00373069  0.25182645  0.74322941  1
  V  V54  1  0.86729408  0.62645202  0.74332630  1
  V  V55  1  0.24448861  0.62317018  0.37653827  1
  V  V56  1  0.00023718  0.38066106  0.87500358  1
  V  V57  1  0.00165040  0.61624671  0.11648087  1
  V  V58  1  0.00323801  0.75170232  0.24744219  1
  V  V59  1  0.62648039  0.37547883  0.24939789  1
  V  V60  1  0.49939310  0.25137787  0.25053904  1
  V  V61  1  0.63629564  0.63316062  0.00113536  1
  V  V62  1  0.37003082  0.87366401  0.00474692  1
  V  V63  1  0.37527536  0.86945790  0.50523639  1
  V  V64  1  0.50271710  0.63942795  0.62738473  1
  V  V65  1  0.50097411  0.12817632  0.12379788  1
  V  V66  1  0.24716834  0.01057531  0.75090090  1
  V  V67  1  0.62638206  0.12570926  -0.00187320  1
  V  V68  1  0.50234282  0.25257565  0.74949330  1
  V  V69  1  0.13283246  0.12383288  -0.00029879  1
  V  V70  1  -0.00118891  0.24901634  0.24848002  1
  V  V71  1  0.61780457  0.74658803  0.37080840  1
  V  V72  1  0.62232291  0.49571806  0.63623877  1
  V  V73  1  0.11517978  0.00025936  0.62302951  1
  V  V74  1  0.24960940  0.37494775  0.62180309  1
  V  V75  1  0.87913741  0.87167896  0.49980314  1
  V  V76  1  0.37157044  0.38018738  0.00273412  1
  V  V77  1  0.12004673  0.74706956  0.37919340  1
  V  V78  1  0.62085512  0.50172788  0.12315011  1
  V  V79  1  0.37797006  0.64476778  0.74833381  1
  V  V80  1  0.62559955  0.74294666  0.86992024  1
  V  V81  1  0.11522526  0.75776948  0.87363324  1
  V  V82  1  0.50324304  0.37720363  0.37730739  1
  V  V83  1  0.87225811  0.25135664  0.12597193  1
  V  V84  1  0.25114460  0.87542604  0.62783035  1
  Zn  Zn85  1  0.87355056  0.49800330  0.37632042  1
  Zn  Zn86  1  0.74361877  0.49961426  0.75533032  1
  Zn  Zn87  1  0.50027329  0.50521168  -0.00132257  1
  Zn  Zn88  1  0.31908542  0.80492276  0.16670792  1
  Zn  Zn89  1  0.37129283  0.12962268  0.75521414  1
  Zn  Zn90  1  0.37530830  0.63901693  0.24931356  1
  Zn  Zn91  1  0.74598588  0.11892563  0.37288444  1
  Zn  Zn92  1  0.74994630  0.37621423  0.12353061  1
  Zn  Zn93  1  0.37472082  0.24980540  0.62633919  1
  Zn  Zn94  1  0.24618557  0.49120442  0.24150759  1
  Zn  Zn95  1  0.62330420  0.87245198  0.24919754  1
  Zn  Zn96  1  0.49317975  0.86526454  0.36554809  1
  Zn  Zn97  1  0.12166170  0.87741786  0.75208094  1
  Zn  Zn98  1  0.49352255  0.86586630  0.87227744  1
  Zn  Zn99  1  0.37570714  -0.00068514  0.37463141  1
  Zn  Zn100  1  0.87605429  0.37230519  0.50538511  1
  Zn  Zn101  1  0.12007468  0.61766863  -0.00444608  1
  Zn  Zn102  1  0.25126006  0.24710879  0.49859743  1
  Zn  Zn103  1  0.24887343  0.50328577  0.74625831  1
  Zn  Zn104  1  0.75164090  0.25039027  -0.00051845  1
  Zn  Zn105  1  -0.00606127  0.75305571  0.74600204  1
  Zn  Zn106  1  0.98559016  0.97109959  -0.02858987  1
  Zn  Zn107  1  0.18512434  0.18430417  0.18248825  1
  Zn  Zn108  1  0.18587142  0.18982687  0.68319474  1
  Zn  Zn109  1  0.18292722  0.67802413  0.19385177  1
  Zn  Zn110  1  0.18569992  0.68552132  0.68903513  1
  Zn  Zn111  1  0.69006684  0.18664733  0.18832023  1
  Zn  Zn112  1  0.68433237  0.19017410  0.68803225  1
  Zn  Zn113  1  0.68786876  0.68836893  0.18784736  1
  Zn  Zn114  1  0.68421164  0.68730695  0.68517339  1
  Zn  Zn115  1  0.31027550  0.31487641  0.31164412  1
  Zn  Zn116  1  0.31331900  0.31455258  0.81115095  1
  Zn  Zn117  1  0.31268455  0.81005567  0.32917829  1
  Zn  Zn118  1  0.30524185  0.82069553  0.81902435  1
  Zn  Zn119  1  0.81279573  0.31107904  0.31401694  1
  Zn  Zn120  1  0.81483626  0.31205670  0.81066279  1
  Zn  Zn121  1  0.80697263  0.81303894  0.30319844  1
  Zn  Zn122  1  0.80452289  0.79201335  0.81729545  1
  Zn  Zn123  1  0.19757484  0.42485366  0.41196843  1
  Zn  Zn124  1  0.18602939  0.43948043  0.94056727  1
  Zn  Zn125  1  0.18541459  0.93491289  0.43709894  1
  Zn  Zn126  1  0.18668983  0.93905313  0.93865388  1
  Zn  Zn127  1  0.68835432  0.43748873  0.44304981  1
  Zn  Zn128  1  0.69029553  0.43883745  0.94177541  1
  Zn  Zn129  1  0.68592697  0.93197512  0.43779484  1
  Zn  Zn130  1  0.68096843  0.92837856  0.94292173  1
  Zn  Zn131  1  0.31194610  0.06477282  0.06349411  1
  Zn  Zn132  1  0.31118547  0.06049848  0.56312232  1
  Zn  Zn133  1  0.30847058  0.56241366  0.06221026  1
  Zn  Zn134  1  0.31914571  0.56253869  0.56297125  1
  Zn  Zn135  1  0.81218581  0.05798706  0.05878399  1
  Zn  Zn136  1  0.81553703  0.05660878  0.55969605  1
  Zn  Zn137  1  0.81354123  0.55816633  0.06296045  1
  Zn  Zn138  1  0.81314639  0.55735708  0.56351066  1
  Zn  Zn139  1  0.43904065  0.44088917  0.18826378  1
  Zn  Zn140  1  0.43616468  0.43973751  0.68991835  1
  Zn  Zn141  1  0.44282204  0.94147386  0.18833854  1
  Zn  Zn142  1  0.43427643  0.93993274  0.68704302  1
  Zn  Zn143  1  0.94074421  0.43736682  0.18984815  1
  Zn  Zn144  1  0.93539458  0.44192933  0.68599514  1
  Zn  Zn145  1  0.95675332  0.91636364  0.14993437  1
  Zn  Zn146  1  0.95644881  0.93176668  0.79050202  1
  Zn  Zn147  1  0.05843834  0.05860580  0.30234787  1
  Zn  Zn148  1  0.06536801  0.07040175  0.81053974  1
  Zn  Zn149  1  0.06527749  0.56126878  0.30744042  1
  Zn  Zn150  1  0.06121191  0.56254843  0.80571656  1
  Zn  Zn151  1  0.55951488  0.06108598  0.31300950  1
  Zn  Zn152  1  0.56385301  0.06198601  0.81221156  1
  Zn  Zn153  1  0.56215361  0.56840776  0.31021800  1
  Zn  Zn154  1  0.55947275  0.56802988  0.81268143  1
  Zn  Zn155  1  0.43775645  0.18647773  0.43777831  1
  Zn  Zn156  1  0.43751776  0.18887287  0.93694028  1
  Zn  Zn157  1  0.43392699  0.68678416  0.44479389  1
  Zn  Zn158  1  0.44006608  0.68964751  0.94237811  1
  Zn  Zn159  1  0.93569187  0.18289279  0.43494180  1
  Zn  Zn160  1  0.93603007  0.18261877  0.93383367  1
  Zn  Zn161  1  0.93437600  0.68764862  0.43831811  1
  Zn  Zn162  1  0.93528237  0.68379946  0.93328853  1
  Zn  Zn163  1  0.05663147  0.30428394  0.05889636  1
  Zn  Zn164  1  0.06407163  0.31143565  0.55613701  1
  Zn  Zn165  1  0.06149809  0.80832032  0.05753403  1
  Zn  Zn166  1  0.06136909  0.81756175  0.56222964  1
  Zn  Zn167  1  0.56032517  0.31540149  0.05908456  1
  Zn  Zn168  1  0.56787455  0.31344161  0.56463039  1
  Zn  Zn169  1  0.56310600  0.81514764  0.06064719  1
  Zn  Zn170  1  0.56982444  0.81272560  0.55701452  1
  O  O171  1  0.11640314  0.11957862  0.11317888  1
  O  O172  1  0.11910567  0.12234497  0.61481383  1
  O  O173  1  0.10905101  0.62287206  0.12174873  1
  O  O174  1  0.11795299  0.61268415  0.62866228  1
  O  O175  1  0.62275063  0.12220930  0.11756370  1
  O  O176  1  0.61628263  0.11688152  0.62282743  1
  O  O177  1  0.61775534  0.62176443  0.11738357  1
  O  O178  1  0.60842458  0.61703947  0.63051867  1
  O  O179  1  0.38603131  0.38170812  0.38493650  1
  O  O180  1  0.38098346  0.38462613  0.87895823  1
  O  O181  1  0.37747165  0.88137675  0.39039189  1
  O  O182  1  0.37621668  0.88820860  0.88412529  1
  O  O183  1  0.88665020  0.37472401  0.37750366  1
  O  O184  1  0.88187688  0.37887973  0.87981591  1
  O  O185  1  0.87859467  0.87799032  0.37556155  1
  O  O186  1  0.85790315  0.89041666  0.84973609  1
  O  O187  1  0.24836516  0.00759832  0.36583607  1
  O  O188  1  0.25589767  -0.00207907  0.86476746  1
  O  O189  1  0.26428659  0.51928779  0.40059180  1
  O  O190  1  0.25542006  0.50973359  0.87302956  1
  O  O191  1  0.76009998  -0.00280574  0.37544448  1
  O  O192  1  0.73863490  0.00756856  0.87242309  1
  O  O193  1  0.74848873  0.50745184  0.37139402  1
  O  O194  1  0.76352794  0.49301379  0.87175954  1
  O  O195  1  0.23537507  0.49742780  0.12412488  1
  O  O196  1  0.24503065  0.49157129  0.62118657  1
  O  O197  1  0.24139837  1.00743070  0.13375748  1
  O  O198  1  0.24173013  0.99596446  0.63139109  1
  O  O199  1  0.73796245  0.49969172  0.13266954  1
  O  O200  1  0.73955837  0.48945861  0.62510046  1
  O  O201  1  0.74369468  0.99120256  0.12001370  1
  O  O202  1  0.73818756  0.99146765  0.61967371  1
  O  O203  1  -0.00478580  0.35936789  0.25697617  1
  O  O204  1  0.00387762  0.36908465  0.75099042  1
  O  O205  1  -0.00648660  0.85770752  0.25253066  1
  O  O206  1  0.01111797  0.86312614  0.72579866  1
  O  O207  1  0.50629434  0.37056525  0.25743393  1
  O  O208  1  0.49570806  0.36896507  0.76250209  1
  O  O209  1  0.51077580  0.88937904  0.25680299  1
  O  O210  1  0.50860870  0.87647708  0.74877272  1
  O  O211  1  0.49141839  0.13198523  0.24553464  1
  O  O212  1  0.49860175  0.13177749  0.74273088  1
  O  O213  1  0.49773953  0.62079040  0.23145352  1
  O  O214  1  0.48717504  0.62700078  0.74174462  1
  O  O215  1  0.98557563  0.13508547  0.24966078  1
  O  O216  1  0.99200555  0.13384971  0.73998517  1
  O  O217  1  0.99175981  0.63051473  0.24308386  1
  O  O218  1  0.99184942  0.62747591  0.73833831  1
  O  O219  1  0.37015890  0.25846316  0.00240718  1
  O  O220  1  0.37728601  0.26261213  0.50179759  1
  O  O221  1  0.36357285  0.76125471  -0.00516209  1
  O  O222  1  0.36463095  0.76265434  0.50012706  1
  O  O223  1  0.87432999  0.25361263  0.00919648  1
  O  O224  1  0.86121786  0.24800720  0.49656587  1
  O  O225  1  0.87480896  0.74351832  0.00901670  1
  O  O226  1  0.86223122  0.76150973  0.49227421  1
  O  O227  1  0.12577323  0.23636936  0.48759916  1
  O  O228  1  0.13759156  0.25279466  0.99160923  1
  O  O229  1  0.13204906  0.75409887  0.48875413  1
  O  O230  1  0.12842407  0.74442775  0.98842005  1
  O  O231  1  0.63172424  0.24316712  0.49514137  1
  O  O232  1  0.62572483  0.24412735  0.99114117  1
  O  O233  1  0.63990972  0.74985458  0.48935190  1
  O  O234  1  0.62268881  0.73769718  0.99600674  1
  O  O235  1  0.49438299  0.24707630  0.13077347  1
  O  O236  1  0.50212370  0.24329770  0.63268288  1
  O  O237  1  0.49898657  0.74064212  0.12246597  1
  O  O238  1  0.50604816  0.73787306  0.62009661  1
  O  O239  1  0.98859943  0.23780187  0.13056399  1
  O  O240  1  1.00799822  0.24341872  0.63504211  1
  O  O241  1  0.99291676  0.73714233  0.13181618  1
  O  O242  1  1.00671403  0.73229584  0.61634277  1
  O  O243  1  0.00327356  0.25158525  0.36769953  1
  O  O244  1  0.00613005  0.25840546  0.86081052  1
  O  O245  1  0.00422151  0.75336989  0.36850392  1
  O  O246  1  0.01214360  0.74626947  0.87342237  1
  O  O247  1  0.50701897  0.25476663  0.37020277  1
  O  O248  1  0.50596147  0.25735807  0.86943748  1
  O  O249  1  0.51451588  0.74625410  0.38749940  1
  O  O250  1  0.51582332  0.75190990  0.88257782  1
  O  O251  1  0.24350897  0.12490501  0.49046944  1
  O  O252  1  0.24076135  0.13523454  1.00085615  1
  O  O253  1  0.25846067  0.64013991  0.50139568  1
  O  O254  1  0.25028550  0.63184716  0.98709931  1
  O  O255  1  0.74352332  0.13079650  0.50074784  1
  O  O256  1  0.74454405  0.12659610  0.98896859  1
  O  O257  1  0.75886828  0.63060327  0.48994199  1
  O  O258  1  0.73452211  0.62174146  1.00649675  1
  O  O259  1  0.26451319  0.37018070  -0.00597693  1
  O  O260  1  0.26049985  0.37201395  0.50297634  1
  O  O261  1  0.25655849  0.86570055  -0.00399355  1
  O  O262  1  0.25622563  0.86898652  0.50639856  1
  O  O263  1  0.76399586  0.37120280  0.00240894  1
  O  O264  1  0.75127313  0.36591890  0.50894807  1
  O  O265  1  0.74744264  0.87654335  0.01824610  1
  O  O266  1  0.75423167  0.86609320  0.50643409  1
  O  O267  1  0.12307222  0.50271616  0.22802323  1
  O  O268  1  0.12722762  0.49235433  0.73743689  1
  O  O269  1  0.13843298  1.00536053  0.23982718  1
  O  O270  1  0.13194171  1.00293054  0.74034965  1
  O  O271  1  0.62838944  0.49518106  0.24356134  1
  O  O272  1  0.62433835  0.50394435  0.74157913  1
  O  O273  1  0.62521050  1.01024881  0.23428588  1
  O  O274  1  0.62157944  0.99030157  0.74094941  1
  O  O275  1  0.36631235  0.01046085  0.24978315  1
  O  O276  1  0.36698493  0.00291999  0.75798684  1
  O  O277  1  0.37499970  0.49902976  0.26584311  1
  O  O278  1  0.37179315  0.50599603  0.76144919  1
  O  O279  1  0.87670449  0.01226969  0.25356736  1
  O  O280  1  0.86819573  0.01184013  0.74510244  1
  O  O281  1  0.86951209  0.50953955  0.25088475  1
  O  O282  1  0.87230021  0.50826151  0.75696766  1
  O  O283  1  0.10683401  0.35759516  0.38550929  1
  O  O284  1  0.11880273  0.36918564  0.86948250  1
  O  O285  1  0.11329958  0.86650019  0.37706319  1
  O  O286  1  0.12532578  0.86144973  0.87559301  1
  O  O287  1  0.62056484  0.37029292  0.37144786  1
  O  O288  1  0.61733441  0.36610189  0.88287081  1
  O  O289  1  0.62391856  0.85834578  0.37565860  1
  O  O290  1  0.61985806  0.86660640  0.86579686  1
  O  O291  1  0.38108130  0.13551635  0.12899092  1
  O  O292  1  0.38767977  0.12675595  0.62455926  1
  O  O293  1  0.38747045  0.61971289  0.12486032  1
  O  O294  1  0.38313206  0.62353783  0.64151624  1
  O  O295  1  0.87530712  0.13237994  0.13846188  1
  O  O296  1  0.88358624  0.12145150  0.62836079  1
  O  O297  1  0.88204379  0.62679353  0.13042625  1
  O  O298  1  0.88462615  0.61483008  0.63629515  1
  O  O299  1  0.25529970  0.24878023  0.11161171  1
  O  O300  1  0.25225119  0.26169089  0.62019752  1
  O  O301  1  0.23933701  0.74212523  0.11141649  1
  O  O302  1  0.23908761  0.76106014  0.61953189  1
  O  O303  1  0.76178220  0.25293293  0.12466047  1
  O  O304  1  0.74062768  0.26316279  0.61840469  1
  O  O305  1  0.75636929  0.75557615  0.12475147  1
  O  O306  1  0.74351517  0.75772160  0.61556654  1
  O  O307  1  0.24042749  0.23556545  0.37452437  1
  O  O308  1  0.24366885  0.25668392  0.88454753  1
  O  O309  1  0.23988957  0.74026960  0.38565475  1
  O  O310  1  0.23990974  0.74452252  0.88307904  1
  O  O311  1  0.74207096  0.24886487  0.38437511  1
  O  O312  1  0.74097425  0.24548171  0.87385280  1
  O  O313  1  0.74314056  0.74134481  0.37941520  1
  O  O314  1  0.72657228  0.75044320  0.88480231  1
  O  O315  1  0.02454518  0.15452792  0.00319012  1
  O  O316  1  0.00566761  0.12964358  0.50916785  1
  O  O317  1  -0.00257865  0.62485064  0.01389384  1
  O  O318  1  -0.00583470  0.61114285  0.50371560  1
  O  O319  1  0.50605478  0.12111354  0.00393712  1
  O  O320  1  0.50545204  0.11917491  0.50848590  1
  O  O321  1  0.50649762  0.62302277  0.01344105  1
  O  O322  1  0.48822448  0.61622398  0.51967816  1
  O  O323  1  0.49673248  0.38160235  0.49741712  1
  O  O324  1  0.48888413  0.37684764  0.98733108  1
  O  O325  1  0.49250046  0.88136726  0.50350511  1
  O  O326  1  0.49248643  0.88507747  0.99826897  1
  O  O327  1  0.99593955  0.38269500  0.49465716  1
  O  O328  1  0.98801309  0.36581937  0.98792339  1
  O  O329  1  0.98912892  0.86794336  0.48618340  1
  O  O330  1  0.98321406  0.88494235  1.03875161  1
  O  O331  1  0.49578865  0.50039755  0.38409754  1
  O  O332  1  0.49292612  0.49464220  0.87567371  1
  O  O333  1  0.49911173  1.00268183  0.39163311  1
  O  O334  1  0.49523767  1.00049963  0.88622352  1
  O  O335  1  1.00244261  0.49096966  0.37901738  1
  O  O336  1  0.99377720  0.48531811  0.86664694  1
  O  O337  1  0.98961186  0.98527229  0.36339851  1
  O  O338  1  1.00075639  0.99989551  0.86690137  1
  O  O339  1  0.01294697  0.01709602  0.14395344  1
  O  O340  1  0.01382390  0.01424873  0.62682308  1
  O  O341  1  0.00496134  0.51104636  0.12776917  1
  O  O342  1  0.00754291  0.50454540  0.61535692  1
  O  O343  1  0.50673441  0.01049212  0.11298317  1
  O  O344  1  0.50696542  0.00593064  0.61769452  1
  O  O345  1  0.51252312  0.50135977  0.12237391  1
  O  O346  1  0.50564710  0.50256349  0.62192385  1
  O  O347  1  0.23902062  0.39719604  0.30371187  1
  O  O348  1  0.24506744  0.37754156  0.73865354  1
  O  O349  1  0.25850960  0.88447604  0.24959131  1
  O  O350  1  0.24391180  0.88605937  0.74283875  1
  O  O351  1  0.74422547  0.38175633  0.24949449  1
  O  O352  1  0.74963650  0.37466816  0.73781658  1
  O  O353  1  0.73835862  0.87166244  0.23324570  1
  O  O354  1  0.74161602  0.87659108  0.74342803  1
  O  O355  1  0.25520699  0.12242191  0.25611551  1
  O  O356  1  0.25253536  0.11557737  0.74176672  1
  O  O357  1  0.25314405  0.61448537  0.26282342  1
  O  O358  1  0.26146562  0.62546382  0.75812797  1
  O  O359  1  0.76573839  0.13106321  0.25506825  1
  O  O360  1  0.75661307  0.12848484  0.75345308  1
  O  O361  1  0.75595380  0.61938014  0.25787561  1
  O  O362  1  0.76309296  0.62067430  0.74076999  1
  O  O363  1  0.36503322  0.12319254  0.37063578  1
  O  O364  1  0.37827353  0.11265514  0.87515712  1
  O  O365  1  0.37084788  0.61971962  0.37444567  1
  O  O366  1  0.37143593  0.62179666  0.86683563  1
  O  O367  1  0.87341562  0.11316870  0.36722971  1
  O  O368  1  0.85930789  0.13007604  0.86467432  1
  O  O369  1  0.86661408  0.62273364  0.36614132  1
  O  O370  1  0.88233656  0.61383311  0.86035917  1
  O  O371  1  0.11543255  0.38265659  0.12045115  1
  O  O372  1  0.13310539  0.37956848  0.62532143  1
  O  O373  1  0.12487009  0.89074921  0.11940918  1
  O  O374  1  0.13571617  0.88739661  0.61757301  1
  O  O375  1  0.62575931  0.38293292  0.12852504  1
  O  O376  1  0.63551267  0.38502840  0.62323499  1
  O  O377  1  0.63107418  0.88463107  0.12376365  1
  O  O378  1  0.63130513  0.88012524  0.63196194  1
  O  O379  1  0.11572223  0.23969791  0.25966108  1
  O  O380  1  0.12077224  0.25660145  0.75509877  1
  O  O381  1  0.11506200  0.74317309  0.26355023  1
  O  O382  1  0.12746442  0.74860876  0.76664549  1
  O  O383  1  0.62106915  0.25552914  0.25536916  1
  O  O384  1  0.61162578  0.24819231  0.75915461  1
  O  O385  1  0.62566842  0.74563177  0.26710749  1
  O  O386  1  0.62664270  0.75459015  0.76117049  1
  O  O387  1  0.37711605  0.24827397  0.24639111  1
  O  O388  1  0.38714406  0.24856633  0.74905049  1
  O  O389  1  0.36699195  0.75220645  0.25132192  1
  O  O390  1  0.37070077  0.74277494  0.75759516  1
  O  O391  1  0.87975336  0.24404642  0.24438799  1
  O  O392  1  0.88316602  0.23980409  0.74939523  1
  O  O393  1  0.87930291  0.73653041  0.24486770  1
  O  O394  1  0.87577877  0.73147177  0.75309404  1
  O  O395  1  0.38721334  0.49056313  0.49633527  1
  O  O396  1  0.37523746  0.49588340  0.98881378  1
  O  O397  1  0.38257065  0.99123232  0.50248193  1
  O  O398  1  0.37958480  0.99827296  0.99457089  1
  O  O399  1  0.88458144  0.49479649  0.49574127  1
  O  O400  1  0.87501791  0.49136227  0.99121836  1
  O  O401  1  0.87222561  0.98415115  0.48804299  1
  O  O402  1  0.91938966  1.05735665  1.02124827  1
  O  O403  1  0.12356724  0.01115456  0.00434064  1
  O  O404  1  0.12907275  0.01187609  0.50508301  1
  O  O405  1  0.12418048  0.50145999  0.01378978  1
  O  O406  1  0.11907839  0.49072415  0.50726412  1
  O  O407  1  0.61612078  0.00653460  0.00497689  1
  O  O408  1  0.61852958  0.00237818  0.50774932  1
  O  O409  1  0.62344421  0.50938932  0.00654983  1
  O  O410  1  0.61269787  0.49847855  0.50905622  1
  O  O411  1  0.38128554  0.37095018  0.11506483  1
  O  O412  1  0.36815801  0.37597177  0.61838579  1
  O  O413  1  0.37553239  0.88635061  0.10995084  1
  O  O414  1  0.36021677  0.88084545  0.62102169  1
  O  O415  1  0.87790754  0.36853887  0.11798254  1
  O  O416  1  0.85749300  0.37977786  0.62427189  1
  O  O417  1  0.85919948  0.85936933  0.13582367  1
  O  O418  1  0.86071585  0.87880007  0.61507245  1
  O  O419  1  0.12703074  0.12520240  0.37860806  1
  O  O420  1  0.12494932  0.14225630  0.87927386  1
  O  O421  1  0.13284623  0.63015347  0.37544983  1
  O  O422  1  0.13178655  0.62916859  0.87444369  1
  O  O423  1  0.62598233  0.13021262  0.38112866  1
  O  O424  1  0.63307362  0.13467474  0.87614485  1
  O  O425  1  0.63401519  0.63299575  0.37514856  1
  O  O426  1  0.61966096  0.63154277  0.88799357  1
