# generated using pymatgen
data_V85Zn86O256
_symmetry_space_group_name_H-M   'P 1'
_cell_length_a   16.95010221
_cell_length_b   16.93762592
_cell_length_c   16.93135688
_cell_angle_alpha   90.00130342
_cell_angle_beta   90.00403098
_cell_angle_gamma   90.02705463
_symmetry_Int_Tables_number   1
_chemical_formula_structural   V85Zn86O256
_chemical_formula_sum   'V85 Zn86 O256'
_cell_volume   4860.89872174
_cell_formula_units_Z   1
loop_
 _symmetry_equiv_pos_site_id
 _symmetry_equiv_pos_as_xyz
  1  'x, y, z'
loop_
 _atom_site_type_symbol
 _atom_site_label
 _atom_site_symmetry_multiplicity
 _atom_site_fract_x
 _atom_site_fract_y
 _atom_site_fract_z
 _atom_site_occupancy
  V  V0  1  -0.00413666  0.01651121  0.00601868  1
  V  V1  1  0.37215399  0.49963207  0.36933861  1
  V  V2  1  0.74779129  0.24581222  -0.00023439  1
  V  V3  1  -0.00573086  0.00191861  0.49434833  1
  V  V4  1  0.75255864  0.61792402  0.87215124  1
  V  V5  1  -0.00231546  0.50093694  0.49633100  1
  V  V6  1  0.37633770  0.37317208  -0.00776705  1
  V  V7  1  0.37547959  0.25034963  0.12313227  1
  V  V8  1  0.38250133  0.50247617  0.86902809  1
  V  V9  1  -0.00099380  0.12013482  0.62784983  1
  V  V10  1  0.87256985  0.62350612  0.75061432  1
  V  V11  1  0.74336504  0.49549573  0.26091707  1
  V  V12  1  0.50184136  0.88175478  0.87870835  1
  V  V13  1  0.87906736  0.38024375  -0.00964880  1
  V  V14  1  0.37354832  0.62478008  0.25056596  1
  V  V15  1  0.24479730  0.88551756  0.62146314  1
  V  V16  1  0.38599180  0.88049892  0.49681553  1
  V  V17  1  0.74871516  -0.00441659  0.75011862  1
  V  V18  1  0.50990926  0.25509889  0.24764850  1
  V  V19  1  0.62298238  0.86326998  0.74957126  1
  V  V20  1  0.24140107  0.23915402  -0.01199677  1
  V  V21  1  0.87493618  0.74696810  0.12993124  1
  V  V22  1  0.00072069  0.63067284  0.63185763  1
  V  V23  1  0.12391220  0.24995380  0.37826440  1
  V  V24  1  0.87495391  0.24884613  0.12668355  1
  V  V25  1  0.62845950  0.62393979  0.00297805  1
  V  V26  1  0.37611984  0.37714400  0.49858287  1
  V  V27  1  -0.00347503  0.88054998  0.37298638  1
  V  V28  1  -0.00477064  0.37674565  0.37602232  1
  V  V29  1  0.24951263  0.75364257  0.49844035  1
  V  V30  1  0.50962161  0.37825985  0.37043445  1
  V  V31  1  0.11617994  0.37250594  0.76227076  1
  V  V32  1  0.75606204  0.48918939  0.75082458  1
  V  V33  1  0.74837147  0.25168535  0.50609294  1
  V  V34  1  0.61813212  0.12226375  0.49936251  1
  V  V35  1  0.63253184  0.74372332  0.38601250  1
  V  V36  1  0.12579219  0.75042246  0.86548336  1
  V  V37  1  0.38919848  -0.00078041  0.37780796  1
  V  V38  1  0.25259002  0.12381637  0.37667390  1
  V  V39  1  0.50062131  0.62315520  0.63381658  1
  V  V40  1  0.25842503  0.62827331  0.87099499  1
  V  V41  1  0.63271231  0.49918319  0.62227468  1
  V  V42  1  0.38088376  0.88542557  0.00305710  1
  V  V43  1  0.87475813  0.75084402  0.62253844  1
  V  V44  1  0.24933420  0.38127185  0.12855693  1
  V  V45  1  0.24909798  0.37641959  0.62551442  1
  V  V46  1  0.25372276  0.75178166  -0.00271556  1
  V  V47  1  0.74431582  0.37554221  0.12957817  1
  V  V48  1  0.87776837  0.12213556  0.25180471  1
  V  V49  1  0.61870020  0.25179069  0.87538197  1
  V  V50  1  0.50443023  0.50897522  0.49923027  1
  V  V51  1  0.25008442  0.25164511  0.50203383  1
  V  V52  1  0.37878440  0.12428574  0.25298322  1
  V  V53  1  0.50279954  0.49617712  -0.00376902  1
  V  V54  1  0.86799700  0.87694613  0.49289824  1
  V  V55  1  0.87662412  0.61508259  0.25917773  1
  V  V56  1  0.74798164  0.86859319  0.61960216  1
  V  V57  1  0.12333585  0.62637217  0.49919567  1
  V  V58  1  0.12331658  0.87582566  0.24969635  1
  V  V59  1  0.50063593  0.62498582  0.12576659  1
  V  V60  1  -0.00669544  0.86551238  0.88698839  1
  V  V61  1  0.75387322  -0.00206977  0.25462944  1
  V  V62  1  0.75370954  0.12325236  0.37791282  1
  V  V63  1  0.37604467  0.75251227  0.12653050  1
  V  V64  1  0.12578917  0.50090518  0.62548820  1
  V  V65  1  0.87414670  0.12198655  0.75311012  1
  V  V66  1  0.87653058  0.25043689  0.62992372  1
  V  V67  1  0.11372747  0.87831897  0.74335446  1
  V  V68  1  0.25451072  0.50581190  0.74945246  1
  V  V69  1  0.24856418  0.00141408  0.76238736  1
  V  V70  1  0.12483714  0.11919341  0.50909752  1
  V  V71  1  0.61549517  -0.00175281  0.62247857  1
  V  V72  1  0.24752674  0.62229700  0.37122120  1
  V  V73  1  0.62260293  -0.00283913  0.11929556  1
  V  V74  1  0.00179418  0.25220486  0.24459009  1
  V  V75  1  0.62145662  0.87467015  0.25822661  1
  V  V76  1  0.61845456  0.37577548  0.75270950  1
  V  V77  1  0.50030039  0.75253657  0.26059278  1
  V  V78  1  0.50053972  0.11952783  0.11866456  1
  V  V79  1  0.23770133  0.87624166  0.12272640  1
  V  V80  1  0.37773238  0.25005400  0.62703056  1
  V  V81  1  0.76004205  0.74857234  -0.00127189  1
  V  V82  1  0.75271633  0.87362343  0.12277883  1
  V  V83  1  0.37448713  0.74670423  0.63007351  1
  V  V84  1  0.87272876  0.37572873  0.50446283  1
  Zn  Zn85  1  0.25191970  -0.00012604  0.24786738  1
  Zn  Zn86  1  0.12133278  0.75145526  0.37593044  1
  Zn  Zn87  1  0.62308651  0.74801669  0.87680832  1
  Zn  Zn88  1  0.62226523  0.49473420  0.13109394  1
  Zn  Zn89  1  0.62161690  0.11835927  -0.00573839  1
  Zn  Zn90  1  0.49701200  0.12264209  0.62453740  1
  Zn  Zn91  1  0.37432385  0.12711070  0.75605846  1
  Zn  Zn92  1  0.08413404  0.23285097  0.88461757  1
  Zn  Zn93  1  0.12530092  0.50554270  0.13167476  1
  Zn  Zn94  1  0.75335072  0.62163972  0.38882896  1
  Zn  Zn95  1  -0.00217272  0.74759273  0.25658391  1
  Zn  Zn96  1  0.62900720  0.25335932  0.37281110  1
  Zn  Zn97  1  0.49727649  0.24945079  0.75486648  1
  Zn  Zn98  1  0.86967645  -0.01023021  0.88373014  1
  Zn  Zn99  1  0.12693333  0.61848481  0.00177093  1
  Zn  Zn100  1  0.01210502  0.48648889  -0.00550878  1
  Zn  Zn101  1  0.37770122  0.00711393  0.88092868  1
  Zn  Zn102  1  0.49213944  0.74545574  0.75630905  1
  Zn  Zn103  1  0.74629315  0.12022544  0.87524724  1
  Zn  Zn104  1  0.00246346  0.61908600  0.12490616  1
  Zn  Zn105  1  0.13269661  0.38081534  0.25473097  1
  Zn  Zn106  1  0.12780645  0.03177849  0.10820504  1
  Zn  Zn107  1  0.19333833  0.19575435  0.18832574  1
  Zn  Zn108  1  0.15854189  0.16571418  0.72881481  1
  Zn  Zn109  1  0.18533144  0.69038918  0.18960631  1
  Zn  Zn110  1  0.19008052  0.68976583  0.68646805  1
  Zn  Zn111  1  0.68861565  0.18413314  0.18605738  1
  Zn  Zn112  1  0.68720565  0.18663988  0.68757322  1
  Zn  Zn113  1  0.68932988  0.68375810  0.19230159  1
  Zn  Zn114  1  0.68467883  0.68336957  0.56270971  1
  Zn  Zn115  1  0.31794173  0.31049701  0.31169055  1
  Zn  Zn116  1  0.30993754  0.31639614  0.81078884  1
  Zn  Zn117  1  0.31155270  0.81430456  0.31397243  1
  Zn  Zn118  1  0.31351795  0.82287407  0.81112512  1
  Zn  Zn119  1  0.81327258  0.31334962  0.31646258  1
  Zn  Zn120  1  0.81920405  0.30632843  0.81676247  1
  Zn  Zn121  1  0.81179757  0.81130003  0.31255493  1
  Zn  Zn122  1  0.81164920  0.80413761  0.80889350  1
  Zn  Zn123  1  0.18585915  0.43936730  0.43648066  1
  Zn  Zn124  1  0.19117072  0.43576246  0.93995237  1
  Zn  Zn125  1  0.18674516  0.94154101  0.43293994  1
  Zn  Zn126  1  0.17861055  0.93736448  0.93907487  1
  Zn  Zn127  1  0.68943257  0.43744056  0.44151787  1
  Zn  Zn128  1  0.69187759  0.43439189  0.93758809  1
  Zn  Zn129  1  0.68295886  0.93804256  0.43609380  1
  Zn  Zn130  1  0.68791723  0.93265950  0.93754171  1
  Zn  Zn131  1  0.31101219  0.06326468  0.06419104  1
  Zn  Zn132  1  0.31350716  0.06369252  0.56412526  1
  Zn  Zn133  1  0.31363370  0.56348135  0.05859066  1
  Zn  Zn134  1  0.31534122  0.56483562  0.55912870  1
  Zn  Zn135  1  0.81678334  0.06165947  0.06452476  1
  Zn  Zn136  1  0.80912202  0.05894971  0.56380810  1
  Zn  Zn137  1  0.81348785  0.55977108  0.06924378  1
  Zn  Zn138  1  0.81558918  0.55765081  0.56531354  1
  Zn  Zn139  1  0.43625764  0.43758026  0.18568842  1
  Zn  Zn140  1  0.44024247  0.43575151  0.68725881  1
  Zn  Zn141  1  0.43699803  0.93664436  0.18986752  1
  Zn  Zn142  1  0.43451956  0.93390012  0.68909746  1
  Zn  Zn143  1  0.93874550  0.43837165  0.18157984  1
  Zn  Zn144  1  0.93868350  0.43952751  0.68468059  1
  Zn  Zn145  1  0.93788776  0.93779632  0.18226128  1
  Zn  Zn146  1  0.93603026  0.94009283  0.68355707  1
  Zn  Zn147  1  0.08105539  0.08124012  0.27923448  1
  Zn  Zn148  1  0.05791158  0.05334753  0.82022888  1
  Zn  Zn149  1  0.06408319  0.55871890  0.30796834  1
  Zn  Zn150  1  0.06613880  0.55714673  0.81636059  1
  Zn  Zn151  1  0.56640601  0.06547915  0.30889430  1
  Zn  Zn152  1  0.56003051  0.06494172  0.80823535  1
  Zn  Zn153  1  0.56374925  0.56601269  0.31353379  1
  Zn  Zn154  1  0.56837934  0.56297251  0.81166740  1
  Zn  Zn155  1  0.44030428  0.19140174  0.43762566  1
  Zn  Zn156  1  0.43597642  0.18520680  0.93493414  1
  Zn  Zn157  1  0.43728666  0.68932263  0.44006216  1
  Zn  Zn158  1  0.43963916  0.68976827  0.93734980  1
  Zn  Zn159  1  0.93618491  0.18842285  0.43708654  1
  Zn  Zn160  1  0.92811916  0.18818493  0.93380011  1
  Zn  Zn161  1  0.93395983  0.69177310  0.43968568  1
  Zn  Zn162  1  0.95718078  0.65406700  0.92574951  1
  Zn  Zn163  1  0.06380888  0.30955618  0.06020420  1
  Zn  Zn164  1  0.06172682  0.30883412  0.57074422  1
  Zn  Zn165  1  0.05158824  0.78122959  0.04948605  1
  Zn  Zn166  1  0.05987560  0.81376528  0.56030575  1
  Zn  Zn167  1  0.56304479  0.31287309  0.06027993  1
  Zn  Zn168  1  0.56439508  0.31846690  0.56229052  1
  Zn  Zn169  1  0.56457594  0.81015165  0.06498500  1
  Zn  Zn170  1  0.55707301  0.81412975  0.56541427  1
  O  O171  1  0.11355170  0.12144936  0.17285750  1
  O  O172  1  0.11191771  0.13143218  0.62029348  1
  O  O173  1  0.12581269  0.62491681  0.12360732  1
  O  O174  1  0.11874141  0.62277017  0.62037318  1
  O  O175  1  0.61771696  0.11379244  0.12666059  1
  O  O176  1  0.62578719  0.11522683  0.61686828  1
  O  O177  1  0.62021692  0.62121920  0.11933134  1
  O  O178  1  0.61371406  0.61160879  0.62171010  1
  O  O179  1  0.38228952  0.38340172  0.37814391  1
  O  O180  1  0.37180273  0.38511962  0.88581818  1
  O  O181  1  0.36970607  0.88307189  0.38820687  1
  O  O182  1  0.38318061  0.87935732  0.88595189  1
  O  O183  1  0.88876374  0.36737148  0.38775393  1
  O  O184  1  0.86535617  0.37745168  0.89196311  1
  O  O185  1  0.87972152  0.87310543  0.38288221  1
  O  O186  1  0.89132119  0.86817096  0.86434467  1
  O  O187  1  0.25905933  0.01098272  0.37390972  1
  O  O188  1  0.24998352  -0.00734203  0.86492357  1
  O  O189  1  0.25999654  0.50993148  0.38110410  1
  O  O190  1  0.25936559  0.50853108  0.86834638  1
  O  O191  1  0.74433006  0.00680476  0.36213688  1
  O  O192  1  0.75093347  -0.00423338  0.86562023  1
  O  O193  1  0.74925784  0.49933787  0.36462854  1
  O  O194  1  0.74801160  0.51079416  0.86939472  1
  O  O195  1  0.25912342  0.48296275  0.12100603  1
  O  O196  1  0.24823616  0.49904258  0.63084128  1
  O  O197  1  0.24241043  0.99215755  0.12552667  1
  O  O198  1  0.24988580  0.98717503  0.62339711  1
  O  O199  1  0.74723211  0.49125702  0.13758367  1
  O  O200  1  0.74074603  0.50228773  0.63605310  1
  O  O201  1  0.74416686  0.99264832  0.13426760  1
  O  O202  1  0.74182658  0.98746778  0.63088072  1
  O  O203  1  -0.00437518  0.36764236  0.26077106  1
  O  O204  1  0.01827567  0.39085829  0.74818738  1
  O  O205  1  0.00476991  0.87832694  0.25843711  1
  O  O206  1  0.01083658  0.88251839  0.75104339  1
  O  O207  1  0.49471453  0.36805042  0.25760356  1
  O  O208  1  0.51434475  0.37352524  0.75051850  1
  O  O209  1  0.50900941  0.86420455  0.24539056  1
  O  O210  1  0.50687328  0.87166449  0.75676236  1
  O  O211  1  0.49639396  0.13426800  0.24185057  1
  O  O212  1  0.49651523  0.13119735  0.74141787  1
  O  O213  1  0.49390918  0.63197776  0.24578760  1
  O  O214  1  0.50198087  0.62523036  0.73835497  1
  O  O215  1  0.98199546  0.13871576  0.26854154  1
  O  O216  1  0.98160402  0.10741229  0.74010049  1
  O  O217  1  0.98728368  0.62611611  0.25052864  1
  O  O218  1  0.99411763  0.61768475  0.73597462  1
  O  O219  1  0.37493331  0.25813362  0.00682590  1
  O  O220  1  0.37017882  0.25882346  0.50252814  1
  O  O221  1  0.36775877  0.75855935  0.00413363  1
  O  O222  1  0.36891608  0.76121285  0.50447964  1
  O  O223  1  0.86485801  0.25512969  0.01095053  1
  O  O224  1  0.86904402  0.25522031  0.50791918  1
  O  O225  1  0.86106266  0.74003009  0.01236490  1
  O  O226  1  0.87683795  0.76412957  0.50999904  1
  O  O227  1  0.12821672  0.24117632  0.49603942  1
  O  O228  1  0.13583046  0.25065439  0.99329825  1
  O  O229  1  0.13320530  0.74416589  0.49893830  1
  O  O230  1  0.14617819  0.76019181  0.98248046  1
  O  O231  1  0.63355443  0.24497558  0.50047227  1
  O  O232  1  0.63184342  0.24854641  0.99366699  1
  O  O233  1  0.62075340  0.75411712  0.48982297  1
  O  O234  1  0.63328650  0.73530070  1.00375971  1
  O  O235  1  0.49238211  0.24711162  0.12971982  1
  O  O236  1  0.48619266  0.25662219  0.62176925  1
  O  O237  1  0.49508658  0.74390318  0.13481793  1
  O  O238  1  0.49187151  0.74076142  0.62564498  1
  O  O239  1  0.99294096  0.25630221  0.13822847  1
  O  O240  1  0.98726343  0.23448110  0.62002973  1
  O  O241  1  0.97936942  0.76229621  0.13885164  1
  O  O242  1  0.99063781  0.74076473  0.61897270  1
  O  O243  1  0.00729605  0.25678838  0.37177043  1
  O  O244  1  -0.02081917  0.26204901  0.87140344  1
  O  O245  1  -0.00036172  0.76502970  0.37626670  1
  O  O246  1  0.01307172  0.75684207  0.87207804  1
  O  O247  1  0.50119531  0.26063999  0.36567241  1
  O  O248  1  0.51480722  0.25057388  0.87737670  1
  O  O249  1  0.50894312  0.74513955  0.36604775  1
  O  O250  1  0.50276942  0.75979077  0.87284780  1
  O  O251  1  0.24196512  0.13071891  0.49710908  1
  O  O252  1  0.25212535  0.14085023  1.00567140  1
  O  O253  1  0.24637660  0.63324306  0.49140602  1
  O  O254  1  0.25281140  0.63583754  0.99019553  1
  O  O255  1  0.74346047  0.12963705  0.49391524  1
  O  O256  1  0.74744343  0.13566062  1.00403614  1
  O  O257  1  0.75426102  0.62269073  0.50109690  1
  O  O258  1  0.74510135  0.62553933  0.99562485  1
  O  O259  1  0.26052066  0.36511062  0.00880576  1
  O  O260  1  0.25607140  0.37286354  0.50398891  1
  O  O261  1  0.25769938  0.87190895  0.00549782  1
  O  O262  1  0.25106069  0.86898099  0.50392874  1
  O  O263  1  0.75545221  0.36397725  0.00972482  1
  O  O264  1  0.76185294  0.36583809  0.49571942  1
  O  O265  1  0.74320821  0.86163259  0.01077693  1
  O  O266  1  0.75778044  0.88279142  0.50538779  1
  O  O267  1  0.12725710  0.49216845  0.24689751  1
  O  O268  1  0.13559395  0.49585185  0.74602481  1
  O  O269  1  0.13232511  0.98179406  0.25459429  1
  O  O270  1  0.13644738  0.98861096  0.75118656  1
  O  O271  1  0.63920383  0.50367304  0.25061157  1
  O  O272  1  0.63324094  0.49314631  0.74496016  1
  O  O273  1  0.63177343  0.99194983  0.24353070  1
  O  O274  1  0.63378159  0.99181666  0.74180107  1
  O  O275  1  0.37297810  0.00594751  0.25824991  1
  O  O276  1  0.35882645  -0.00800260  0.75147345  1
  O  O277  1  0.38010213  0.50685214  0.26218142  1
  O  O278  1  0.37120880  0.49415316  0.76147087  1
  O  O279  1  0.86637269  0.01009927  0.24323259  1
  O  O280  1  0.86055936  0.00162868  0.74766165  1
  O  O281  1  0.86671893  0.51066377  0.24712086  1
  O  O282  1  0.86752144  0.51044594  0.74003727  1
  O  O283  1  0.11563974  0.36472238  0.38081355  1
  O  O284  1  0.13131013  0.37222696  0.86392373  1
  O  O285  1  0.11654408  0.87345764  0.36965058  1
  O  O286  1  0.11397325  0.86918236  0.86537855  1
  O  O287  1  0.61274584  0.37438112  0.37845809  1
  O  O288  1  0.63208241  0.36645504  0.86572149  1
  O  O289  1  0.62648287  0.86489578  0.36492510  1
  O  O290  1  0.61939808  0.87085986  0.86737147  1
  O  O291  1  0.38177271  0.13122495  0.13121298  1
  O  O292  1  0.37744815  0.13719453  0.62282036  1
  O  O293  1  0.37844665  0.63176936  0.13049960  1
  O  O294  1  0.38416989  0.63576408  0.61786329  1
  O  O295  1  0.86872763  0.13925859  0.13748247  1
  O  O296  1  0.87830748  0.12974188  0.62880884  1
  O  O297  1  0.87478032  0.63121445  0.13804864  1
  O  O298  1  0.88232179  0.63218838  0.62921519  1
  O  O299  1  0.26320657  0.25625030  0.11771777  1
  O  O300  1  0.26314897  0.26124044  0.61607234  1
  O  O301  1  0.25710270  0.75667438  0.11568430  1
  O  O302  1  0.25657629  0.75460294  0.61350361  1
  O  O303  1  0.75464916  0.25535294  0.12250829  1
  O  O304  1  0.75846837  0.24356179  0.61251083  1
  O  O305  1  0.75403388  0.75466757  0.12273336  1
  O  O306  1  0.75284739  0.76281210  0.61958507  1
  O  O307  1  0.24434298  0.24675280  0.38166118  1
  O  O308  1  0.25778215  0.25221648  0.89005632  1
  O  O309  1  0.25053759  0.74458075  0.38688153  1
  O  O310  1  0.25313870  0.74603773  0.87688817  1
  O  O311  1  0.74846942  0.24321410  0.38558308  1
  O  O312  1  0.74250977  0.24605132  0.88553032  1
  O  O313  1  0.73462116  0.74883477  0.37338373  1
  O  O314  1  0.74633784  0.74090169  0.88375874  1
  O  O315  1  -0.00627674  0.11597936  -0.00190256  1
  O  O316  1  0.00460810  0.11927316  0.50272744  1
  O  O317  1  0.01900099  0.66933404  0.01811514  1
  O  O318  1  0.00157710  0.61831135  0.50507394  1
  O  O319  1  0.50251571  0.13004169  0.01583201  1
  O  O320  1  0.51471297  0.13114964  0.50181864  1
  O  O321  1  0.50774455  0.61820299  0.00489793  1
  O  O322  1  0.49612744  0.61315928  0.50555284  1
  O  O323  1  0.49408066  0.38548884  0.49111110  1
  O  O324  1  0.49321489  0.38849962  1.00517792  1
  O  O325  1  0.48447158  0.87471458  0.50044943  1
  O  O326  1  0.49230300  0.86804712  0.99503999  1
  O  O327  1  0.99567101  0.38072216  0.49703451  1
  O  O328  1  0.98345600  0.37135261  1.00495494  1
  O  O329  1  0.99262259  0.88377586  0.49504784  1
  O  O330  1  0.99943691  0.86714548  0.98734147  1
  O  O331  1  0.49579821  0.49694486  0.37998260  1
  O  O332  1  0.49325640  0.50851542  0.88297391  1
  O  O333  1  0.48884165  1.00569811  0.37013564  1
  O  O334  1  0.50292273  0.98564831  0.87247405  1
  O  O335  1  1.00434056  0.49214921  0.38840018  1
  O  O336  1  0.99517330  0.54585186  0.89967314  1
  O  O337  1  1.00227472  0.98989395  0.38697921  1
  O  O338  1  0.99483034  0.98356089  0.88748592  1
  O  O339  1  0.00253317  -0.00430223  0.10872580  1
  O  O340  1  -0.00475330  0.01078559  0.61039608  1
  O  O341  1  0.00230101  0.50204233  0.11412432  1
  O  O342  1  0.00650183  0.50858555  0.61360482  1
  O  O343  1  0.50930209  0.00815734  0.13347325  1
  O  O344  1  0.51223139  -0.00319745  0.62844776  1
  O  O345  1  0.50103506  0.50677975  0.11719191  1
  O  O346  1  0.50349488  0.50588551  0.61770755  1
  O  O347  1  0.25582791  0.36638221  0.23286804  1
  O  O348  1  0.24509561  0.38975288  0.74415907  1
  O  O349  1  0.24408731  0.87312166  0.24048216  1
  O  O350  1  0.24213571  0.88319487  0.73993543  1
  O  O351  1  0.75652238  0.38771100  0.24752199  1
  O  O352  1  0.74755442  0.38591117  0.75664556  1
  O  O353  1  0.74266935  0.88183875  0.24666864  1
  O  O354  1  0.74307560  0.87731577  0.74214074  1
  O  O355  1  0.26412153  0.12992853  0.26049008  1
  O  O356  1  0.25476870  0.10163336  0.73520637  1
  O  O357  1  0.25750550  0.63608402  0.26527069  1
  O  O358  1  0.25081795  0.61430358  0.75349561  1
  O  O359  1  0.75670304  0.11915908  0.25748628  1
  O  O360  1  0.75657420  0.11260689  0.74695997  1
  O  O361  1  0.75823261  0.61129175  0.25459400  1
  O  O362  1  0.75867201  0.61273365  0.75924232  1
  O  O363  1  0.37295137  0.11990975  0.37427382  1
  O  O364  1  0.37848330  0.11862083  0.87023938  1
  O  O365  1  0.36889235  0.61867934  0.37285537  1
  O  O366  1  0.36696883  0.61866717  0.87769471  1
  O  O367  1  0.86040027  0.12867313  0.37099774  1
  O  O368  1  0.86607557  0.11574243  0.86457090  1
  O  O369  1  0.87289763  0.62948802  0.36271971  1
  O  O370  1  0.86559611  0.63923413  0.85858483  1
  O  O371  1  0.14355338  0.36908538  0.12430354  1
  O  O372  1  0.13335817  0.38646000  0.62118370  1
  O  O373  1  0.13437598  0.86480586  0.12863278  1
  O  O374  1  0.13299387  0.86696976  0.63152767  1
  O  O375  1  0.63911731  0.37428744  0.12277309  1
  O  O376  1  0.62275556  0.38836488  0.63459152  1
  O  O377  1  0.63260714  0.87771317  0.13617738  1
  O  O378  1  0.62969481  0.87903618  0.62907382  1
  O  O379  1  0.11731534  0.25999834  0.26202343  1
  O  O380  1  0.12962421  0.27671352  0.73234615  1
  O  O381  1  0.12120620  0.76233501  0.25545524  1
  O  O382  1  0.13572536  0.76110047  0.75898046  1
  O  O383  1  0.61345617  0.24607208  0.25051236  1
  O  O384  1  0.62812915  0.25878568  0.75644421  1
  O  O385  1  0.61924743  0.75541512  0.25789713  1
  O  O386  1  0.62305125  0.76216501  0.74847801  1
  O  O387  1  0.38621613  0.24454451  0.24187575  1
  O  O388  1  0.37524798  0.25362981  0.74024455  1
  O  O389  1  0.38340288  0.74703272  0.24897394  1
  O  O390  1  0.37299543  0.75904330  0.73366161  1
  O  O391  1  0.87998173  0.24585108  0.24606692  1
  O  O392  1  0.86422244  0.23690139  0.73846036  1
  O  O393  1  0.86840128  0.73544168  0.24587120  1
  O  O394  1  0.86819861  0.73965147  0.73144326  1
  O  O395  1  0.38279919  0.49653244  0.48905680  1
  O  O396  1  0.38297186  0.49497867  0.99029260  1
  O  O397  1  0.37174394  0.98820325  0.49471112  1
  O  O398  1  0.37475670  0.98851281  1.00418623  1
  O  O399  1  0.88457532  0.48491049  0.50820139  1
  O  O400  1  0.86853791  0.48067565  1.00736853  1
  O  O401  1  0.88133041  0.98995169  0.50253594  1
  O  O402  1  0.88679236  0.99799394  1.00043448  1
  O  O403  1  0.10639591  0.00006119  -0.00057496  1
  O  O404  1  0.11827376  0.01500607  0.49517553  1
  O  O405  1  0.12959456  0.50081749  0.00759169  1
  O  O406  1  0.11871192  0.50793820  0.50522777  1
  O  O407  1  0.63071757  -0.00195196  0.01540248  1
  O  O408  1  0.63003257  0.00927709  0.50901690  1
  O  O409  1  0.61959709  0.50763927  0.00085465  1
  O  O410  1  0.61622408  0.49345733  0.50915434  1
  O  O411  1  0.37100046  0.36806160  0.11556017  1
  O  O412  1  0.36869598  0.37445919  0.61786563  1
  O  O413  1  0.36757081  0.87012756  0.12066263  1
  O  O414  1  0.36662449  0.86995052  0.61245843  1
  O  O415  1  0.86378368  0.36309997  0.12418071  1
  O  O416  1  0.88254717  0.36141566  0.61853244  1
  O  O417  1  0.85792777  0.86657598  0.13522431  1
  O  O418  1  0.86708450  0.86918900  0.61908987  1
  O  O419  1  0.13092604  0.13654755  0.37848301  1
  O  O420  1  0.12467511  0.14032768  0.83590491  1
  O  O421  1  0.13214192  0.62706824  0.38049172  1
  O  O422  1  0.14315438  0.63548412  0.87266370  1
  O  O423  1  0.63531366  0.12752862  0.38105544  1
  O  O424  1  0.62814809  0.13205454  0.87620807  1
  O  O425  1  0.62776963  0.64039863  0.37396279  1
  O  O426  1  0.63437823  0.62686450  0.88350882  1
