# generated using pymatgen
data_V85Zn86O256
_symmetry_space_group_name_H-M   'P 1'
_cell_length_a   16.93650112
_cell_length_b   16.94370745
_cell_length_c   16.94142554
_cell_angle_alpha   89.96130581
_cell_angle_beta   90.04122062
_cell_angle_gamma   90.10517426
_symmetry_Int_Tables_number   1
_chemical_formula_structural   V85Zn86O256
_chemical_formula_sum   'V85 Zn86 O256'
_cell_volume   4861.62154251
_cell_formula_units_Z   1
loop_
 _symmetry_equiv_pos_site_id
 _symmetry_equiv_pos_as_xyz
  1  'x, y, z'
loop_
 _atom_site_type_symbol
 _atom_site_label
 _atom_site_symmetry_multiplicity
 _atom_site_fract_x
 _atom_site_fract_y
 _atom_site_fract_z
 _atom_site_occupancy
  V  V0  1  0.62345263  0.25159290  0.87753022  1
  V  V1  1  0.74932111  0.37706970  0.13058172  1
  V  V2  1  -0.00164296  0.35628165  0.87360451  1
  V  V3  1  0.50307233  0.12686845  0.62006336  1
  V  V4  1  0.87281099  0.12615792  0.25216809  1
  V  V5  1  0.13180147  0.87610586  0.25114536  1
  V  V6  1  -0.00654565  0.61408447  0.11513053  1
  V  V7  1  0.37000292  0.37937000  0.01331789  1
  V  V8  1  0.25126169  0.12152420  0.36129429  1
  V  V9  1  0.37578248  0.37394158  0.49167073  1
  V  V10  1  0.37572651  0.87757964  0.49931209  1
  V  V11  1  0.00383622  0.25262294  0.24911994  1
  V  V12  1  0.25348465  0.87034431  0.12396233  1
  V  V13  1  0.49931972  0.23954987  0.25809270  1
  V  V14  1  0.61466895  -0.00000943  0.12280264  1
  V  V15  1  0.74628832  0.87375360  0.12967323  1
  V  V16  1  0.76490868  0.75945798  0.50431772  1
  V  V17  1  0.37462459  0.61157711  0.75020141  1
  V  V18  1  0.87577894  0.87149380  0.00950841  1
  V  V19  1  0.88050123  0.12955102  0.75376917  1
  V  V20  1  -0.00290375  0.87790530  0.37910359  1
  V  V21  1  0.12777032  -0.00014242  0.62504191  1
  V  V22  1  0.87314969  0.25190291  0.12586454  1
  V  V23  1  0.00185138  0.12676886  0.62695435  1
  V  V24  1  0.73504965  0.12891077  0.37762542  1
  V  V25  1  0.00271381  0.87309301  0.87855822  1
  V  V26  1  0.37863294  0.22870597  0.12807569  1
  V  V27  1  0.13552052  0.00338031  0.12932800  1
  V  V28  1  0.63214862  0.49785769  0.12875310  1
  V  V29  1  0.49021213  0.37763455  0.87458888  1
  V  V30  1  0.87642107  0.00013120  0.37898008  1
  V  V31  1  0.12994242  0.74461418  0.87750069  1
  V  V32  1  0.62534860  0.62981717  0.50046405  1
  V  V33  1  -0.00084884  0.50069383  0.50123253  1
  V  V34  1  0.50327000  0.87755098  0.36944054  1
  V  V35  1  0.00340002  0.00001916  0.00640749  1
  V  V36  1  0.12434106  0.50330660  0.63585667  1
  V  V37  1  0.73573215  0.24704119  0.49709053  1
  V  V38  1  0.24257261  0.13971402  0.87153743  1
  V  V39  1  0.24979344  0.87987082  0.62660790  1
  V  V40  1  0.74309274  -0.00258470  0.25022533  1
  V  V41  1  0.60815282  0.12133396  0.00333010  1
  V  V42  1  0.75036489  0.00131930  0.75089823  1
  V  V43  1  -0.01626630  0.62665992  0.63015934  1
  V  V44  1  0.49405072  0.74579836  0.25184366  1
  V  V45  1  0.37021862  0.00323650  0.36354545  1
  V  V46  1  0.35962835  0.00055697  0.87483088  1
  V  V47  1  0.37417262  0.75069636  0.62594140  1
  V  V48  1  0.25105276  0.60947192  0.86557531  1
  V  V49  1  0.13127744  0.87731983  0.75283706  1
  V  V50  1  0.62607406  0.74805888  0.87619981  1
  V  V51  1  0.75248890  0.74766247  0.00523779  1
  V  V52  1  0.49779784  0.24961449  0.74978075  1
  V  V53  1  0.62596319  0.50070721  0.62412398  1
  V  V54  1  0.00081710  0.37770862  0.37459036  1
  V  V55  1  0.74942444  0.12665725  0.88081581  1
  V  V56  1  0.50102698  0.00254875  0.49917072  1
  V  V57  1  0.12644845  0.25053609  0.37276882  1
  V  V58  1  0.11992948  0.11928909  0.49657665  1
  V  V59  1  0.50185731  0.88660845  0.88117029  1
  V  V60  1  0.12037872  0.35777988  0.75255138  1
  V  V61  1  0.12254387  0.74738035  0.37242899  1
  V  V62  1  0.24897442  0.75032630  0.50063243  1
  V  V63  1  0.24816939  0.38065886  0.62883539  1
  V  V64  1  0.75401881  0.62084546  0.37127092  1
  V  V65  1  0.49873501  0.75002814  0.74934634  1
  V  V66  1  0.87813347  0.24906294  0.62550129  1
  V  V67  1  0.62711831  0.75588669  0.37078440  1
  V  V68  1  0.13528974  0.39309303  0.23846856  1
  V  V69  1  0.62527269  0.37667868  0.75176846  1
  V  V70  1  0.50109309  0.62244596  0.13003201  1
  V  V71  1  0.37371355  0.24960243  0.62429279  1
  V  V72  1  -0.01094024  0.75038546  0.24056815  1
  V  V73  1  0.87547237  0.00166488  0.88159366  1
  V  V74  1  0.61912715  0.37231629  0.26265550  1
  V  V75  1  -0.01127517  0.74681674  0.74851183  1
  V  V76  1  0.37477414  0.50173299  0.36997283  1
  V  V77  1  0.25221244  0.62147055  0.37386408  1
  V  V78  1  0.50308060  0.50159356  -0.00675286  1
  V  V79  1  0.62725494  0.00433902  0.61987871  1
  V  V80  1  0.87824068  0.50658092  0.86885017  1
  V  V81  1  0.62693955  0.87512754  0.74430185  1
  V  V82  1  0.24871850  0.24919370  0.49791364  1
  V  V83  1  0.50072939  0.49716553  0.49400896  1
  V  V84  1  0.75140924  0.37440044  0.62618091  1
  Zn  Zn85  1  0.00334920  0.12551026  0.12697590  1
  Zn  Zn86  1  0.77348815  0.87472970  0.62425933  1
  Zn  Zn87  1  0.87416366  0.37559207  -0.00033430  1
  Zn  Zn88  1  0.87212706  0.49651345  0.36971092  1
  Zn  Zn89  1  0.30949718  0.55747409  0.20749683  1
  Zn  Zn90  1  0.75715736  0.62785127  0.87067348  1
  Zn  Zn91  1  0.86610401  0.62040313  0.23981226  1
  Zn  Zn92  1  0.12596917  0.13065409  -0.00171503  1
  Zn  Zn93  1  0.49885995  0.62524921  0.62409753  1
  Zn  Zn94  1  0.87507486  0.37208772  0.49826811  1
  Zn  Zn95  1  0.74677771  0.24984513  0.00438272  1
  Zn  Zn96  1  0.37269664  0.74141305  0.12443849  1
  Zn  Zn97  1  -0.05706516  -0.05616194  0.54254916  1
  Zn  Zn98  1  0.00548466  0.49508868  -0.00615515  1
  Zn  Zn99  1  0.75638517  0.51192005  0.74537302  1
  Zn  Zn100  1  0.15793909  0.58677725  0.04244914  1
  Zn  Zn101  1  0.37053813  0.11651460  0.74605712  1
  Zn  Zn102  1  0.24375175  0.25767674  0.00798731  1
  Zn  Zn103  1  0.25714791  0.74973374  -0.00633585  1
  Zn  Zn104  1  0.38121352  0.87494394  0.00425953  1
  Zn  Zn105  1  0.62853036  0.62316248  0.00060823  1
  Zn  Zn106  1  0.12337739  0.62381610  0.50397075  1
  Zn  Zn107  1  0.18914591  0.19409275  0.18036265  1
  Zn  Zn108  1  0.19241629  0.18438241  0.68730628  1
  Zn  Zn109  1  0.18774849  0.67862676  0.18254522  1
  Zn  Zn110  1  0.18363405  0.68801879  0.69180210  1
  Zn  Zn111  1  0.68189391  0.18812167  0.18833166  1
  Zn  Zn112  1  0.68806315  0.18847632  0.68941451  1
  Zn  Zn113  1  0.68234116  0.69028583  0.18876113  1
  Zn  Zn114  1  0.69427035  0.68901671  0.68529092  1
  Zn  Zn115  1  0.31363161  0.31049789  0.30583735  1
  Zn  Zn116  1  0.31136381  0.31665329  0.80873077  1
  Zn  Zn117  1  0.31371208  0.81168886  0.31274363  1
  Zn  Zn118  1  0.31498607  0.81368650  0.81184590  1
  Zn  Zn119  1  0.80942806  0.31357671  0.31198888  1
  Zn  Zn120  1  0.81346397  0.31303682  0.81095042  1
  Zn  Zn121  1  0.81201827  0.81469163  0.31577760  1
  Zn  Zn122  1  0.81169449  0.81618575  0.81726808  1
  Zn  Zn123  1  0.18497797  0.43839390  0.43775220  1
  Zn  Zn124  1  0.18534349  0.43343496  0.93187828  1
  Zn  Zn125  1  0.18625784  0.93856881  0.43734316  1
  Zn  Zn126  1  0.18774270  0.93655673  0.94262040  1
  Zn  Zn127  1  0.68852139  0.43666142  0.44085265  1
  Zn  Zn128  1  0.69168773  0.43677033  0.93996551  1
  Zn  Zn129  1  0.68842583  0.93868337  0.43781223  1
  Zn  Zn130  1  0.68575669  0.93767175  0.94055885  1
  Zn  Zn131  1  0.31379560  0.05800554  0.05337929  1
  Zn  Zn132  1  0.31123229  0.06376844  0.55671731  1
  Zn  Zn133  1  0.32334599  0.56823301  0.04439572  1
  Zn  Zn134  1  0.31220736  0.56267806  0.56196450  1
  Zn  Zn135  1  0.81062766  0.06226098  0.06602518  1
  Zn  Zn136  1  0.80764824  0.06810857  0.56282809  1
  Zn  Zn137  1  0.81860612  0.56092752  0.05651520  1
  Zn  Zn138  1  0.81209341  0.56160443  0.55569887  1
  Zn  Zn139  1  0.44917785  0.43344863  0.18745987  1
  Zn  Zn140  1  0.44047417  0.43536686  0.68043315  1
  Zn  Zn141  1  0.43676756  0.93554276  0.19094842  1
  Zn  Zn142  1  0.43824413  0.93866730  0.69091345  1
  Zn  Zn143  1  0.93621026  0.44032865  0.19243214  1
  Zn  Zn144  1  0.94031394  0.43537594  0.69079098  1
  Zn  Zn145  1  0.93805668  0.93670143  0.19117510  1
  Zn  Zn146  1  0.94393860  0.94239535  0.70383093  1
  Zn  Zn147  1  0.06237322  0.06145679  0.30988521  1
  Zn  Zn148  1  0.06486351  0.06219048  0.81179650  1
  Zn  Zn149  1  0.05791023  0.56667488  0.30973232  1
  Zn  Zn150  1  0.06138589  0.55964613  0.81392007  1
  Zn  Zn151  1  0.56012561  0.06095773  0.30829650  1
  Zn  Zn152  1  0.56256140  0.06558782  0.80835067  1
  Zn  Zn153  1  0.56646905  0.56023556  0.31291859  1
  Zn  Zn154  1  0.56601359  0.56410213  0.80993084  1
  Zn  Zn155  1  0.43783529  0.18553014  0.43566787  1
  Zn  Zn156  1  0.42919604  0.19004619  0.93782117  1
  Zn  Zn157  1  0.43788487  0.68636080  0.43748488  1
  Zn  Zn158  1  0.43592866  0.68821829  0.93620781  1
  Zn  Zn159  1  0.93474495  0.18810578  0.43879100  1
  Zn  Zn160  1  0.93877871  0.18642196  0.94449152  1
  Zn  Zn161  1  0.93928415  0.68729401  0.43863301  1
  Zn  Zn162  1  0.93759406  0.68963170  0.93652663  1
  Zn  Zn163  1  0.06587054  0.31599072  0.06263691  1
  Zn  Zn164  1  0.06286218  0.31121502  0.56237413  1
  Zn  Zn165  1  0.06889515  0.80751612  0.06448739  1
  Zn  Zn166  1  0.06275414  0.80684819  0.56524033  1
  Zn  Zn167  1  0.55900490  0.31011616  0.06559269  1
  Zn  Zn168  1  0.56064206  0.31523391  0.56017877  1
  Zn  Zn169  1  0.56487059  0.81148769  0.06489783  1
  Zn  Zn170  1  0.56477050  0.81437983  0.56049188  1
  O  O171  1  0.12322098  0.11397975  0.12831239  1
  O  O172  1  0.12066751  0.11923702  0.61986067  1
  O  O173  1  0.09592986  0.64947007  0.11935062  1
  O  O174  1  0.12145493  0.61566486  0.62479733  1
  O  O175  1  0.62940886  0.11761981  0.10990885  1
  O  O176  1  0.61650341  0.11616873  0.63135675  1
  O  O177  1  0.61917628  0.61625224  0.12411775  1
  O  O178  1  0.62519425  0.62222969  0.61205006  1
  O  O179  1  0.36556193  0.38161053  0.38708847  1
  O  O180  1  0.38786020  0.37052564  0.87944060  1
  O  O181  1  0.38102842  0.88134224  0.38108733  1
  O  O182  1  0.38740906  0.88382803  0.87250351  1
  O  O183  1  0.88820200  0.37317798  0.37542371  1
  O  O184  1  0.88700720  0.37540740  0.87383366  1
  O  O185  1  0.88359378  0.88663912  0.37201261  1
  O  O186  1  0.88084215  0.88361573  0.88746197  1
  O  O187  1  0.25810936  0.00843683  0.38061844  1
  O  O188  1  0.25798284  -0.00047513  0.87258724  1
  O  O189  1  0.25919146  0.51017380  0.38464732  1
  O  O190  1  0.24905842  0.51123449  0.86619426  1
  O  O191  1  0.75516989  0.00582174  0.36809874  1
  O  O192  1  0.75314606  0.00678468  0.87174175  1
  O  O193  1  0.74993478  0.51796090  0.38507015  1
  O  O194  1  0.76523568  0.49650514  0.87364516  1
  O  O195  1  0.23930633  0.56984065  0.12348763  1
  O  O196  1  0.24058774  0.48819205  0.61695659  1
  O  O197  1  0.24054088  0.99177918  0.11949254  1
  O  O198  1  0.23750706  0.99596922  0.61992942  1
  O  O199  1  0.74015035  0.49449322  0.11960750  1
  O  O200  1  0.74545559  0.49076554  0.62214629  1
  O  O201  1  0.74400691  0.99388328  0.13285833  1
  O  O202  1  0.74225073  1.00112639  0.63140114  1
  O  O203  1  0.00859671  0.36921490  0.25760843  1
  O  O204  1  0.01076081  0.37053239  0.75721234  1
  O  O205  1  0.00670038  0.86601951  0.25944495  1
  O  O206  1  0.01198538  0.86911365  0.76085853  1
  O  O207  1  0.51358910  0.36629170  0.25221060  1
  O  O208  1  0.50455151  0.37092832  0.75593986  1
  O  O209  1  0.49930797  0.86765696  0.26397178  1
  O  O210  1  0.50879708  0.86926614  0.75732627  1
  O  O211  1  0.50683360  0.13986321  0.24724885  1
  O  O212  1  0.49686593  0.13197051  0.73881100  1
  O  O213  1  0.50834521  0.63261527  0.24341727  1
  O  O214  1  0.49440931  0.63450299  0.74811931  1
  O  O215  1  0.99162150  0.13508137  0.25070031  1
  O  O216  1  0.99332887  0.11976937  0.74044248  1
  O  O217  1  0.99831339  0.63953299  0.24083932  1
  O  O218  1  1.00296416  0.63473382  0.74250167  1
  O  O219  1  0.37758279  0.26219370  0.01337511  1
  O  O220  1  0.37096157  0.25743730  0.50452692  1
  O  O221  1  0.37686322  0.75558706  0.00578253  1
  O  O222  1  0.36875426  0.75618057  0.50532649  1
  O  O223  1  0.87370703  0.24944004  0.01662047  1
  O  O224  1  0.86741304  0.24953547  0.51257539  1
  O  O225  1  0.86634593  0.76197829  -0.00566711  1
  O  O226  1  0.86334108  0.75153934  0.49773287  1
  O  O227  1  0.12951445  0.24395220  0.49209476  1
  O  O228  1  0.13155894  0.24310230  1.01239468  1
  O  O229  1  0.13224000  0.74992019  0.48947176  1
  O  O230  1  0.12515886  0.75332474  0.98137914  1
  O  O231  1  0.63637912  0.25342562  0.50268753  1
  O  O232  1  0.62416621  0.23770257  0.99721462  1
  O  O233  1  0.62631061  0.74378536  0.49028346  1
  O  O234  1  0.63296690  0.75018443  0.99175607  1
  O  O235  1  0.48474559  0.25566304  0.13351457  1
  O  O236  1  0.49547378  0.24424911  0.62775822  1
  O  O237  1  0.50451915  0.74142587  0.13499960  1
  O  O238  1  0.49748605  0.75181540  0.63585841  1
  O  O239  1  0.99160028  0.25104849  0.13634104  1
  O  O240  1  0.99279405  0.23713273  0.62043638  1
  O  O241  1  0.99328013  0.76313190  0.14017738  1
  O  O242  1  1.00474580  0.73855152  0.63526546  1
  O  O243  1  0.00354600  0.25609164  0.36733332  1
  O  O244  1  -0.00650464  0.25701404  0.87189826  1
  O  O245  1  0.00674411  0.75441365  0.36872281  1
  O  O246  1  0.00808178  0.75394616  0.86883037  1
  O  O247  1  0.49184509  0.24815046  0.35858623  1
  O  O248  1  0.50328090  0.25654280  0.86978235  1
  O  O249  1  0.50575299  0.75593062  0.37154020  1
  O  O250  1  0.50550389  0.75927837  0.86468944  1
  O  O251  1  0.23712041  0.13241739  0.49582852  1
  O  O252  1  0.25054518  0.12450140  0.98269839  1
  O  O253  1  0.24755342  0.63533800  0.49451919  1
  O  O254  1  0.25261034  0.63064282  0.97502951  1
  O  O255  1  0.74986890  0.13592318  0.49128089  1
  O  O256  1  0.74723604  0.12574440  0.98951506  1
  O  O257  1  0.74384977  0.63714075  0.49330387  1
  O  O258  1  0.75012915  0.63497666  0.99423160  1
  O  O259  1  0.26835527  0.37595556  -0.01102063  1
  O  O260  1  0.25390749  0.36836852  0.50678715  1
  O  O261  1  0.25251529  0.87063494  0.01023314  1
  O  O262  1  0.25425416  0.86805908  0.50524721  1
  O  O263  1  0.75157318  0.36934714  0.01488356  1
  O  O264  1  0.75247069  0.36773259  0.50995438  1
  O  O265  1  0.75797148  0.87073248  0.00676832  1
  O  O266  1  0.74902106  0.86321463  0.50051582  1
  O  O267  1  0.12425440  0.49218217  0.25546772  1
  O  O268  1  0.11917482  0.48779000  0.73792072  1
  O  O269  1  0.11971357  0.98722011  0.24201752  1
  O  O270  1  0.11979121  0.98865814  0.73949871  1
  O  O271  1  0.62017844  0.48541335  0.24186881  1
  O  O272  1  0.62567630  0.49280335  0.74113268  1
  O  O273  1  0.63727815  1.00442990  0.24168183  1
  O  O274  1  0.62951842  0.99405565  0.74186522  1
  O  O275  1  0.37718600  -0.00115084  0.26436041  1
  O  O276  1  0.38317484  0.00061910  0.76892496  1
  O  O277  1  0.38100181  0.49195942  0.26355509  1
  O  O278  1  0.38339369  0.51266241  0.74203912  1
  O  O279  1  0.86602762  0.00836812  0.25605668  1
  O  O280  1  0.86954383  0.00963197  0.76312993  1
  O  O281  1  0.87884756  0.50850118  0.25793768  1
  O  O282  1  0.87236948  0.49153237  0.76365316  1
  O  O283  1  0.11477847  0.36898751  0.37215972  1
  O  O284  1  0.11423808  0.37170728  0.86024297  1
  O  O285  1  0.12129561  0.86892473  0.36788088  1
  O  O286  1  0.12279665  0.87083213  0.86869629  1
  O  O287  1  0.63268872  0.37752204  0.36098856  1
  O  O288  1  0.61852490  0.36874568  0.87206269  1
  O  O289  1  0.61592800  0.86822866  0.38086547  1
  O  O290  1  0.61849062  0.86932830  0.86722906  1
  O  O291  1  0.37852566  0.13020246  0.11767753  1
  O  O292  1  0.38060529  0.13089043  0.62526202  1
  O  O293  1  0.39281382  0.61964754  0.12883695  1
  O  O294  1  0.37577590  0.63356621  0.63033819  1
  O  O295  1  0.87497750  0.13096753  0.13774611  1
  O  O296  1  0.88310474  0.12868797  0.63002856  1
  O  O297  1  0.88656036  0.62813088  0.12484502  1
  O  O298  1  0.88458232  0.61935779  0.62394281  1
  O  O299  1  0.27276507  0.24843689  0.12577274  1
  O  O300  1  0.25436443  0.25809454  0.61800904  1
  O  O301  1  0.25185292  0.75663768  0.12214797  1
  O  O302  1  0.25058804  0.75615149  0.61524083  1
  O  O303  1  0.75712882  0.25546154  0.12734387  1
  O  O304  1  0.75468240  0.25425556  0.61767069  1
  O  O305  1  0.74285722  0.75810366  0.11517941  1
  O  O306  1  0.74568529  0.75685252  0.60855124  1
  O  O307  1  0.24631959  0.24269372  0.37957343  1
  O  O308  1  0.25593151  0.24096720  0.87793520  1
  O  O309  1  0.24470425  0.74826389  0.38598813  1
  O  O310  1  0.24187611  0.74852271  0.87069457  1
  O  O311  1  0.75547589  0.24200641  0.38594929  1
  O  O312  1  0.74298139  0.24301066  0.87709989  1
  O  O313  1  0.74340763  0.74710653  0.38490856  1
  O  O314  1  0.74138444  0.75491706  0.88597093  1
  O  O315  1  0.00031180  0.11069021  0.00530371  1
  O  O316  1  0.01256599  0.13005000  0.50543320  1
  O  O317  1  -0.00732635  0.62363930  0.01122570  1
  O  O318  1  0.00168427  0.61805831  0.50827946  1
  O  O319  1  0.51031372  0.12518886  -0.00697894  1
  O  O320  1  0.49708664  0.12028177  0.51240088  1
  O  O321  1  0.50256107  0.61631694  0.00545730  1
  O  O322  1  0.50911148  0.61979956  0.50160383  1
  O  O323  1  0.48862198  0.38418816  0.50328784  1
  O  O324  1  0.49334261  0.38074947  0.99354885  1
  O  O325  1  0.49529562  0.88032845  0.49079953  1
  O  O326  1  0.50470401  0.87074310  0.98351109  1
  O  O327  1  0.99940060  0.38079272  0.49279658  1
  O  O328  1  0.99846847  0.37152043  0.98365665  1
  O  O329  1  1.00947711  0.87153454  0.48426054  1
  O  O330  1  0.99475490  0.88099225  0.99998348  1
  O  O331  1  0.49285752  0.50590424  0.38671450  1
  O  O332  1  0.51041065  0.49197651  0.88457315  1
  O  O333  1  0.49550990  0.99448561  0.37915700  1
  O  O334  1  0.50464295  0.98740763  0.87119532  1
  O  O335  1  1.00265402  0.49355417  0.38452065  1
  O  O336  1  0.98957779  0.48869031  0.86964082  1
  O  O337  1  0.99000154  0.99127957  0.36820757  1
  O  O338  1  0.99792030  0.99361167  0.88589618  1
  O  O339  1  0.00948147  -0.00266159  0.12067376  1
  O  O340  1  0.00998435  0.01093019  0.62114553  1
  O  O341  1  -0.00018244  0.51173985  0.12170584  1
  O  O342  1  0.00474912  0.50585584  0.62099587  1
  O  O343  1  0.51551610  -0.00999195  0.13041993  1
  O  O344  1  0.50624761  0.00757607  0.62186463  1
  O  O345  1  0.51238987  0.50441815  0.11741376  1
  O  O346  1  0.50770476  0.50237008  0.61209020  1
  O  O347  1  0.23345821  0.37412261  0.25615324  1
  O  O348  1  0.23671089  0.37204844  0.74059978  1
  O  O349  1  0.23827066  0.86769972  0.24539856  1
  O  O350  1  0.23947645  0.87047365  0.74198666  1
  O  O351  1  0.73750447  0.36810496  0.23871912  1
  O  O352  1  0.74393531  0.37353369  0.73719731  1
  O  O353  1  0.75484922  0.88369089  0.24197584  1
  O  O354  1  0.74277335  0.88157879  0.74768209  1
  O  O355  1  0.24188103  0.12890792  0.26298691  1
  O  O356  1  0.25392113  0.12728760  0.76447817  1
  O  O357  1  0.25195320  0.63885624  0.27100699  1
  O  O358  1  0.26177250  0.62976422  0.75517865  1
  O  O359  1  0.75518218  0.12056365  0.25607793  1
  O  O360  1  0.75428869  0.12072548  0.76247096  1
  O  O361  1  0.74790806  0.63547826  0.26774865  1
  O  O362  1  0.74301825  0.62424009  0.75812677  1
  O  O363  1  0.36272831  0.11481048  0.38316947  1
  O  O364  1  0.36617595  0.11420394  0.87338830  1
  O  O365  1  0.36699200  0.61354000  0.38288793  1
  O  O366  1  0.36402651  0.62947289  0.86177123  1
  O  O367  1  0.87004649  0.12144029  0.36426556  1
  O  O368  1  0.86791331  0.12206653  0.87520435  1
  O  O369  1  0.85959184  0.62782085  0.37809901  1
  O  O370  1  0.87856546  0.61029141  0.87553985  1
  O  O371  1  0.12160031  0.38015165  0.13976177  1
  O  O372  1  0.12901061  0.37857798  0.63288041  1
  O  O373  1  0.13540113  0.87801632  0.13245884  1
  O  O374  1  0.12720617  0.88210617  0.63071194  1
  O  O375  1  0.63037780  0.38056673  0.13044098  1
  O  O376  1  0.63217127  0.37979391  0.62938221  1
  O  O377  1  0.63894461  0.88441050  0.11744363  1
  O  O378  1  0.62324860  0.88312423  0.63567631  1
  O  O379  1  0.11561746  0.25323260  0.25420982  1
  O  O380  1  0.12388224  0.25980248  0.74169303  1
  O  O381  1  0.11620401  0.75569378  0.26022187  1
  O  O382  1  0.11773307  0.76034598  0.75742005  1
  O  O383  1  0.61249478  0.26092942  0.24428393  1
  O  O384  1  0.61762845  0.25600080  0.75570150  1
  O  O385  1  0.61645612  0.74955001  0.26520996  1
  O  O386  1  0.61995778  0.75907177  0.75451956  1
  O  O387  1  0.38635313  0.25272242  0.23814886  1
  O  O388  1  0.38212400  0.25171392  0.74034706  1
  O  O389  1  0.38989096  0.75214564  0.24913448  1
  O  O390  1  0.38434432  0.74770024  0.74343540  1
  O  O391  1  0.88097913  0.24494873  0.24445869  1
  O  O392  1  0.86688597  0.24236259  0.73471409  1
  O  O393  1  0.88767186  0.74804833  0.25753626  1
  O  O394  1  0.88974224  0.75968024  0.75685923  1
  O  O395  1  0.38216385  0.49337737  0.49476873  1
  O  O396  1  0.38887293  0.48884900  0.99747009  1
  O  O397  1  0.38274638  0.99376651  0.49507429  1
  O  O398  1  0.37766918  0.99292760  0.98032376  1
  O  O399  1  0.88732360  0.49545876  0.49535207  1
  O  O400  1  0.88138725  0.49304521  0.98542918  1
  O  O401  1  0.87247473  1.01274665  0.48357876  1
  O  O402  1  0.88202510  0.99413034  1.00001193  1
  O  O403  1  0.11766443  0.00127121  0.01010258  1
  O  O404  1  0.12589657  0.00899190  0.50720863  1
  O  O405  1  0.11823159  0.50272319  -0.01480856  1
  O  O406  1  0.11273337  0.49805719  0.51120270  1
  O  O407  1  0.62787783  0.01292367  0.00631457  1
  O  O408  1  0.61960729  -0.00489173  0.51338076  1
  O  O409  1  0.61892170  0.49997183  0.00771984  1
  O  O410  1  0.61867889  0.50696682  0.50271713  1
  O  O411  1  0.37488133  0.38300854  0.11369273  1
  O  O412  1  0.36541492  0.37143221  0.61658312  1
  O  O413  1  0.36288643  0.87635475  0.12726929  1
  O  O414  1  0.37040987  0.87153104  0.62112696  1
  O  O415  1  0.86790038  0.36822509  0.12781764  1
  O  O416  1  0.86898417  0.36662104  0.62502434  1
  O  O417  1  0.86416339  0.88253135  0.11648844  1
  O  O418  1  0.88423259  0.89340900  0.62353252  1
  O  O419  1  0.12832625  0.12827179  0.38106137  1
  O  O420  1  0.13943898  0.12154875  0.87468230  1
  O  O421  1  0.12951902  0.63347018  0.37925459  1
  O  O422  1  0.14027479  0.63269921  0.85823891  1
  O  O423  1  0.63635957  0.11908839  0.37345571  1
  O  O424  1  0.63024651  0.12864807  0.88369580  1
  O  O425  1  0.63405527  0.63125558  0.38373171  1
  O  O426  1  0.62151275  0.64080011  0.87740235  1
