# generated using pymatgen
data_V85Zn86O256
_symmetry_space_group_name_H-M   'P 1'
_cell_length_a   16.91995640
_cell_length_b   16.92059320
_cell_length_c   16.92653124
_cell_angle_alpha   89.96943592
_cell_angle_beta   89.93821446
_cell_angle_gamma   89.99256744
_symmetry_Int_Tables_number   1
_chemical_formula_structural   V85Zn86O256
_chemical_formula_sum   'V85 Zn86 O256'
_cell_volume   4845.98954925
_cell_formula_units_Z   1
loop_
 _symmetry_equiv_pos_site_id
 _symmetry_equiv_pos_as_xyz
  1  'x, y, z'
loop_
 _atom_site_type_symbol
 _atom_site_label
 _atom_site_symmetry_multiplicity
 _atom_site_fract_x
 _atom_site_fract_y
 _atom_site_fract_z
 _atom_site_occupancy
  V  V0  1  0.50291173  0.87847539  0.37684809  1
  V  V1  1  0.13039118  0.11649214  0.00116454  1
  V  V2  1  0.37528863  0.24879942  0.13950712  1
  V  V3  1  0.62187372  0.87776411  0.74937238  1
  V  V4  1  0.87225302  0.74754141  0.62482329  1
  V  V5  1  0.62461652  0.62439927  0.00249686  1
  V  V6  1  0.50808453  0.37073030  0.37657080  1
  V  V7  1  0.75302069  0.26371654  0.00187598  1
  V  V8  1  0.87768936  0.37447627  0.49285745  1
  V  V9  1  0.89010301  0.49999655  0.37261020  1
  V  V10  1  0.87627400  0.12350810  0.24699945  1
  V  V11  1  0.87996385  0.61905483  0.74523165  1
  V  V12  1  0.87089019  0.75933496  0.12264662  1
  V  V13  1  0.48782603  0.12546969  0.62241737  1
  V  V14  1  0.48580319  0.24301578  0.75260207  1
  V  V15  1  0.50065447  0.62189131  0.12655196  1
  V  V16  1  0.49549539  0.87504315  0.87783380  1
  V  V17  1  0.49029916  0.49382183  0.49939178  1
  V  V18  1  0.11664362  0.37994911  0.25301736  1
  V  V19  1  0.23583278  -0.01615933  0.24078212  1
  V  V20  1  0.52263956  0.25182976  0.25507969  1
  V  V21  1  0.00099329  0.74917989  0.74532007  1
  V  V22  1  0.88023700  0.63106826  0.24880927  1
  V  V23  1  0.49360880  0.62234981  0.62706784  1
  V  V24  1  0.75834698  0.12411165  0.87643773  1
  V  V25  1  0.63403536  -0.00375948  0.12488754  1
  V  V26  1  0.12517551  0.00063465  0.62445210  1
  V  V27  1  -0.00220375  0.00270955  0.50166804  1
  V  V28  1  0.12317499  0.50287726  0.10783576  1
  V  V29  1  0.00072016  0.25041211  0.74954788  1
  V  V30  1  0.26424433  0.37718730  0.62143267  1
  V  V31  1  0.24904349  0.75027769  0.50073562  1
  V  V32  1  0.37952936  0.87996615  0.49862823  1
  V  V33  1  0.87729096  0.49537926  0.88853709  1
  V  V34  1  0.12042022  0.62213109  0.51426887  1
  V  V35  1  0.74660841  0.75585646  0.00198151  1
  V  V36  1  0.62258099  0.25297660  0.87435994  1
  V  V37  1  -0.00063142  0.61910778  0.10684630  1
  V  V38  1  0.75142457  0.48917868  0.25021819  1
  V  V39  1  0.37487076  0.74978674  0.62730215  1
  V  V40  1  0.87395050  0.26159930  0.12125081  1
  V  V41  1  0.61958739  0.37148629  0.75167016  1
  V  V42  1  0.37715797  0.50000019  0.86447604  1
  V  V43  1  0.00028534  0.37893948  0.88752975  1
  V  V44  1  -0.00136250  0.87064336  0.38030860  1
  V  V45  1  0.12752758  0.25193057  0.87514199  1
  V  V46  1  0.63292021  0.87334658  0.24666496  1
  V  V47  1  0.25480446  0.00951468  0.74791892  1
  V  V48  1  0.11826767  0.25636325  0.37622125  1
  V  V49  1  0.62166947  0.00227741  0.61648998  1
  V  V50  1  0.62443133  0.13400625  0.49698552  1
  V  V51  1  0.00381495  0.49916951  0.52051794  1
  V  V52  1  0.87022394  0.88110610  -0.00993913  1
  V  V53  1  0.12602595  0.12788454  0.49827426  1
  V  V54  1  0.24213330  0.74987469  0.00399561  1
  V  V55  1  0.37502016  0.62254599  0.25292752  1
  V  V56  1  0.62422976  0.49814375  0.62196817  1
  V  V57  1  0.25081015  0.37691730  0.12584288  1
  V  V58  1  0.12338177  0.74385729  0.87471622  1
  V  V59  1  0.25036179  0.87702856  0.62553743  1
  V  V60  1  0.02191375  0.77676921  0.22044175  1
  V  V61  1  0.49836235  0.00033252  0.00235485  1
  V  V62  1  0.37548977  0.00864435  0.87247615  1
  V  V63  1  0.12530969  0.38347485  0.73959704  1
  V  V64  1  0.00398026  0.12321798  0.12315175  1
  V  V65  1  0.87237764  0.24987908  0.62421524  1
  V  V66  1  0.12132699  0.75098220  0.37636054  1
  V  V67  1  0.37143760  0.75475630  0.12486413  1
  V  V68  1  0.62780515  0.74747984  0.37589357  1
  V  V69  1  0.25238726  0.12685341  0.36316540  1
  V  V70  1  -0.00413978  0.00362998  -0.01088298  1
  V  V71  1  0.87241865  -0.00027196  0.37315245  1
  V  V72  1  0.26371285  0.25183467  0.50253868  1
  V  V73  1  0.37486736  0.00213858  0.36618009  1
  V  V74  1  0.24687735  0.50065099  0.24889497  1
  V  V75  1  0.63057874  0.48835746  0.13014022  1
  V  V76  1  0.75474357  0.00069550  0.75279458  1
  V  V77  1  0.62644494  0.12576591  0.00027687  1
  V  V78  1  0.49834182  0.49081388  -0.00238108  1
  V  V79  1  0.74788635  0.49806425  0.75139509  1
  V  V80  1  0.74859581  0.62395439  0.87509733  1
  V  V81  1  0.25440042  0.24901008  0.00135457  1
  V  V82  1  0.49703003  0.12331871  0.13276971  1
  V  V83  1  0.24828984  0.62402727  0.37723040  1
  V  V84  1  0.49457144  0.74512824  0.75209334  1
  Zn  Zn85  1  0.74238168  0.12955381  0.36923937  1
  Zn  Zn86  1  -0.00082172  0.12572908  0.62615785  1
  Zn  Zn87  1  0.74645459  0.87322960  0.62452305  1
  Zn  Zn88  1  -0.00186523  0.25359211  0.25182265  1
  Zn  Zn89  1  0.50073981  0.74902693  0.25071799  1
  Zn  Zn90  1  0.12445029  0.87746309  0.75295354  1
  Zn  Zn91  1  0.87794927  0.12191108  0.75187614  1
  Zn  Zn92  1  0.37976746  0.37280754  -0.00139792  1
  Zn  Zn93  1  -0.00159374  0.87957956  0.86978371  1
  Zn  Zn94  1  0.74874360  0.37355928  0.62269850  1
  Zn  Zn95  1  0.74495030  0.25654692  0.49300220  1
  Zn  Zn96  1  0.86827928  0.87656165  0.50492059  1
  Zn  Zn97  1  0.62579560  0.62325925  0.49865117  1
  Zn  Zn98  1  0.37169835  0.49094818  0.37949723  1
  Zn  Zn99  1  0.75279621  0.62452927  0.37616902  1
  Zn  Zn100  1  0.74831647  0.74832065  0.50210097  1
  Zn  Zn101  1  0.25483919  0.62651123  0.87053660  1
  Zn  Zn102  1  0.25023567  0.51101646  0.74161339  1
  Zn  Zn103  1  0.36734587  0.87853967  0.00725123  1
  Zn  Zn104  1  0.62201170  0.74845000  0.87536889  1
  Zn  Zn105  1  0.75851933  -0.00605227  0.24315812  1
  Zn  Zn106  1  0.25657100  0.13120068  0.86819746  1
  Zn  Zn107  1  0.18555259  0.18859910  0.18826783  1
  Zn  Zn108  1  0.18782671  0.19055058  0.68366527  1
  Zn  Zn109  1  0.18581281  0.68426546  0.18315723  1
  Zn  Zn110  1  0.18930719  0.68713627  0.69301389  1
  Zn  Zn111  1  0.69427258  0.18310569  0.18397667  1
  Zn  Zn112  1  0.68769356  0.18621760  0.68510252  1
  Zn  Zn113  1  0.69049821  0.68389389  0.19004775  1
  Zn  Zn114  1  0.68408648  0.68530467  0.68886227  1
  Zn  Zn115  1  0.31335671  0.31639578  0.31721347  1
  Zn  Zn116  1  0.31237016  0.32269318  0.81558569  1
  Zn  Zn117  1  0.31100967  0.81168419  0.31093822  1
  Zn  Zn118  1  0.30983111  0.81625187  0.81419458  1
  Zn  Zn119  1  0.81286027  0.30903715  0.31435989  1
  Zn  Zn120  1  0.81197788  0.31412874  0.81381542  1
  Zn  Zn121  1  0.81513920  0.81236918  0.31300653  1
  Zn  Zn122  1  0.81006777  0.80968088  0.81123177  1
  Zn  Zn123  1  0.18525930  0.43768082  0.44092475  1
  Zn  Zn124  1  0.19403639  0.43484088  0.93159841  1
  Zn  Zn125  1  0.18786205  0.93761051  0.43353208  1
  Zn  Zn126  1  0.18871264  0.93231000  0.93528408  1
  Zn  Zn127  1  0.68942628  0.43773167  0.43385969  1
  Zn  Zn128  1  0.68319899  0.43825059  0.93691854  1
  Zn  Zn129  1  0.69040197  0.93695160  0.43866746  1
  Zn  Zn130  1  0.68506787  0.93784683  0.93564141  1
  Zn  Zn131  1  0.31371024  0.06192806  0.06754204  1
  Zn  Zn132  1  0.31158675  0.06214713  0.55414407  1
  Zn  Zn133  1  0.31219962  0.56668407  0.05784208  1
  Zn  Zn134  1  0.31085219  0.56316940  0.56555711  1
  Zn  Zn135  1  0.81528231  0.06684742  0.05985275  1
  Zn  Zn136  1  0.80883304  0.06450484  0.56500508  1
  Zn  Zn137  1  0.81035705  0.56497525  0.06571996  1
  Zn  Zn138  1  0.81046828  0.56265471  0.56051322  1
  Zn  Zn139  1  0.43913059  0.43351434  0.19116734  1
  Zn  Zn140  1  0.44104822  0.43063505  0.68873217  1
  Zn  Zn141  1  0.44037289  0.93706189  0.19363242  1
  Zn  Zn142  1  0.43775067  0.94090677  0.68769075  1
  Zn  Zn143  1  0.93810403  0.44112419  0.18523968  1
  Zn  Zn144  1  0.93412401  0.43175544  0.69212587  1
  Zn  Zn145  1  0.95885848  0.93532983  0.18002321  1
  Zn  Zn146  1  0.93599097  0.93422036  0.68677436  1
  Zn  Zn147  1  0.06246852  0.06335655  0.31317112  1
  Zn  Zn148  1  0.06865242  0.06683754  0.81234834  1
  Zn  Zn149  1  0.06242666  0.57183710  0.30654538  1
  Zn  Zn150  1  0.06135577  0.56260076  0.81459206  1
  Zn  Zn151  1  0.56168879  0.05994080  0.31114293  1
  Zn  Zn152  1  0.56470727  0.06559673  0.81074824  1
  Zn  Zn153  1  0.56384731  0.55796584  0.31398936  1
  Zn  Zn154  1  0.55874192  0.56146528  0.81457985  1
  Zn  Zn155  1  0.44176291  0.18396636  0.43316373  1
  Zn  Zn156  1  0.43918691  0.18904509  0.94101598  1
  Zn  Zn157  1  0.44043051  0.68755355  0.43908873  1
  Zn  Zn158  1  0.43323198  0.68446262  0.94101014  1
  Zn  Zn159  1  0.93471476  0.18721551  0.43548359  1
  Zn  Zn160  1  0.93876113  0.19270200  0.93821523  1
  Zn  Zn161  1  0.93877629  0.68219939  0.44170173  1
  Zn  Zn162  1  0.93372126  0.68908600  0.93132395  1
  Zn  Zn163  1  0.06671361  0.30877761  0.06564539  1
  Zn  Zn164  1  0.06131487  0.31412837  0.56126202  1
  Zn  Zn165  1  0.05935927  0.81518165  0.05199785  1
  Zn  Zn166  1  0.06082507  0.81232480  0.56491280  1
  Zn  Zn167  1  0.56552648  0.31028218  0.06718869  1
  Zn  Zn168  1  0.55390770  0.31116383  0.56588349  1
  Zn  Zn169  1  0.55939370  0.81192206  0.06479665  1
  Zn  Zn170  1  0.56208078  0.81206004  0.56150527  1
  O  O171  1  0.11627002  0.13451544  0.11396568  1
  O  O172  1  0.12299687  0.11879964  0.61602352  1
  O  O173  1  0.10890125  0.61800383  0.12453042  1
  O  O174  1  0.12723784  0.63074461  0.61298518  1
  O  O175  1  0.61721923  0.11746664  0.12074385  1
  O  O176  1  0.61756032  0.11933408  0.61731740  1
  O  O177  1  0.61712898  0.61925555  0.12237413  1
  O  O178  1  0.61321030  0.61270458  0.62796414  1
  O  O179  1  0.39342857  0.37872729  0.36563823  1
  O  O180  1  0.37419067  0.39108133  0.88277638  1
  O  O181  1  0.38269959  0.87644398  0.37979051  1
  O  O182  1  0.38555247  0.88443652  0.87608798  1
  O  O183  1  0.87744266  0.38337168  0.38514499  1
  O  O184  1  0.88685428  0.38335562  0.86915902  1
  O  O185  1  0.87889225  0.88207079  0.38424921  1
  O  O186  1  0.87430329  0.87091302  0.88633143  1
  O  O187  1  0.25446990  0.00783108  0.36738218  1
  O  O188  1  0.25820248  0.00066951  0.86586407  1
  O  O189  1  0.25078347  0.50649487  0.37030490  1
  O  O190  1  0.26387483  0.50183756  0.87139271  1
  O  O191  1  0.76377866  0.00384139  0.37318509  1
  O  O192  1  0.74080204  0.01160376  0.86646213  1
  O  O193  1  0.76098068  0.50320508  0.36345997  1
  O  O194  1  0.75387930  0.50368647  0.86968089  1
  O  O195  1  0.24254724  0.49938377  0.12869976  1
  O  O196  1  0.25294417  0.48297474  0.62381293  1
  O  O197  1  0.25346598  1.00201997  0.14225921  1
  O  O198  1  0.24686952  0.99688939  0.62830426  1
  O  O199  1  0.74467884  0.50583780  0.13885282  1
  O  O200  1  0.73962802  0.49864168  0.63229782  1
  O  O201  1  0.73729476  1.00369785  0.12122782  1
  O  O202  1  0.73884553  0.99924758  0.63461366  1
  O  O203  1  0.01303638  0.37547748  0.24570433  1
  O  O204  1  0.01123788  0.36715043  0.75332940  1
  O  O205  1  -0.01773823  0.86886537  0.27481700  1
  O  O206  1  0.00032996  0.86616830  0.75221203  1
  O  O207  1  0.50272242  0.35791547  0.25251313  1
  O  O208  1  0.51124126  0.35780764  0.74525127  1
  O  O209  1  0.51168350  0.87089032  0.25894071  1
  O  O210  1  0.50697661  0.87148899  0.75650784  1
  O  O211  1  0.50539425  0.13758876  0.24445920  1
  O  O212  1  0.50254028  0.13549889  0.74038057  1
  O  O213  1  0.49187826  0.62352731  0.24425993  1
  O  O214  1  0.50316039  0.63499833  0.74294967  1
  O  O215  1  0.99413473  0.12619012  0.24053586  1
  O  O216  1  0.99932384  0.13796687  0.75040510  1
  O  O217  1  0.99126635  0.63602902  0.23802099  1
  O  O218  1  0.98923513  0.63220996  0.75375636  1
  O  O219  1  0.36989997  0.25131906  0.01008006  1
  O  O220  1  0.36173201  0.24709993  0.49353596  1
  O  O221  1  0.36729808  0.75324604  0.00892522  1
  O  O222  1  0.36974606  0.75874010  0.50525312  1
  O  O223  1  0.86809096  0.24706195  0.01212681  1
  O  O224  1  0.88103520  0.25953914  0.50696919  1
  O  O225  1  0.86551057  0.75648902  0.00290217  1
  O  O226  1  0.87729495  0.74536291  0.51653322  1
  O  O227  1  0.12976678  0.24668191  0.49286034  1
  O  O228  1  0.13516537  0.24219532  0.99518358  1
  O  O229  1  0.12769642  0.74262920  0.49573202  1
  O  O230  1  0.13355030  0.75251632  0.99401582  1
  O  O231  1  0.62395883  0.23741797  0.50607777  1
  O  O232  1  0.63021902  0.24580137  0.99443928  1
  O  O233  1  0.62350024  0.74778511  0.48893904  1
  O  O234  1  0.63066059  0.74503047  1.00047900  1
  O  O235  1  0.49707968  0.24435537  0.13668221  1
  O  O236  1  0.50066579  0.23694509  0.63877041  1
  O  O237  1  0.49352162  0.73593757  0.12660993  1
  O  O238  1  0.49643984  0.74163411  0.63174407  1
  O  O239  1  0.99045754  0.24105570  0.12398048  1
  O  O240  1  0.99397333  0.24990736  0.63324105  1
  O  O241  1  0.98930403  0.73469536  0.11676361  1
  O  O242  1  0.99198204  0.75251545  0.63748042  1
  O  O243  1  0.01416612  0.24573081  0.37263706  1
  O  O244  1  0.00544421  0.25736860  0.86687357  1
  O  O245  1  0.00624986  0.75638059  0.38097905  1
  O  O246  1  0.00397688  0.75154080  0.86444937  1
  O  O247  1  0.50190730  0.25238722  0.36157754  1
  O  O248  1  0.50883655  0.24081150  0.86324099  1
  O  O249  1  0.50786989  0.75972910  0.37326470  1
  O  O250  1  0.49739761  0.75668856  0.86991710  1
  O  O251  1  0.24482613  0.13638120  0.49247733  1
  O  O252  1  0.24630824  0.13407976  1.00174643  1
  O  O253  1  0.24277585  0.62959575  0.49583619  1
  O  O254  1  0.25458247  0.64377706  0.99334581  1
  O  O255  1  0.73288801  0.12541450  0.50205112  1
  O  O256  1  0.74409280  0.13247022  0.99317289  1
  O  O257  1  0.74466405  0.62784738  0.49518780  1
  O  O258  1  0.74465428  0.63458324  0.99519930  1
  O  O259  1  0.24928757  0.36172334  0.00773632  1
  O  O260  1  0.24658888  0.36465378  0.51062167  1
  O  O261  1  0.25208437  0.85908093  -0.00069384  1
  O  O262  1  0.25574473  0.86921705  0.50512675  1
  O  O263  1  0.74646058  0.36291586  -0.00419846  1
  O  O264  1  0.76228609  0.37811684  0.50242851  1
  O  O265  1  0.75272118  0.86450459  -0.00443201  1
  O  O266  1  0.75053716  0.86855359  0.50602742  1
  O  O267  1  0.12987219  0.49709072  0.24410406  1
  O  O268  1  0.12647219  0.48573685  0.75352995  1
  O  O269  1  0.13649196  1.00083148  0.25406821  1
  O  O270  1  0.13253156  0.99986093  0.74139324  1
  O  O271  1  0.64302423  0.50628302  0.24550174  1
  O  O272  1  0.62436567  0.48993447  0.74561603  1
  O  O273  1  0.62839338  0.99276028  0.24165263  1
  O  O274  1  0.63052544  0.99413863  0.74343804  1
  O  O275  1  0.36478838  -0.00688849  0.26202640  1
  O  O276  1  0.36699464  -0.00301116  0.75939504  1
  O  O277  1  0.36783745  0.51090904  0.24707630  1
  O  O278  1  0.37901759  0.49409905  0.76128654  1
  O  O279  1  0.88041314  0.00380028  0.25430364  1
  O  O280  1  0.85919445  0.00063956  0.74444693  1
  O  O281  1  0.87190864  0.50830089  0.25413252  1
  O  O282  1  0.86777158  0.50432541  0.75489193  1
  O  O283  1  0.13184185  0.36769381  0.36614692  1
  O  O284  1  0.12200403  0.36968404  0.86383600  1
  O  O285  1  0.11612527  0.86053079  0.38281642  1
  O  O286  1  0.12061045  0.86299037  0.87238446  1
  O  O287  1  0.60982729  0.38193986  0.37399969  1
  O  O288  1  0.62602000  0.36171303  0.86840673  1
  O  O289  1  0.61943005  0.87084676  0.36963115  1
  O  O290  1  0.61112165  0.87457777  0.86832238  1
  O  O291  1  0.39038938  0.13239698  0.12151244  1
  O  O292  1  0.38891685  0.11827192  0.61805090  1
  O  O293  1  0.38170900  0.63178582  0.13166910  1
  O  O294  1  0.38631753  0.63184288  0.62190778  1
  O  O295  1  0.88267587  0.13174684  0.13049756  1
  O  O296  1  0.87727099  0.13720884  0.62696365  1
  O  O297  1  0.88394145  0.63044061  0.12891295  1
  O  O298  1  0.86853597  0.62836906  0.63878949  1
  O  O299  1  0.25797743  0.25305622  0.12088224  1
  O  O300  1  0.24799714  0.25688614  0.61012427  1
  O  O301  1  0.25546342  0.74542551  0.11515824  1
  O  O302  1  0.25583734  0.75820204  0.62069716  1
  O  O303  1  0.76428859  0.24640295  0.11685814  1
  O  O304  1  0.75882142  0.25271130  0.62014952  1
  O  O305  1  0.75971795  0.74366098  0.11497085  1
  O  O306  1  0.75734168  0.75045019  0.62875181  1
  O  O307  1  0.24374892  0.24557267  0.38339370  1
  O  O308  1  0.24835074  0.25101428  0.88376092  1
  O  O309  1  0.24182803  0.74516374  0.38113683  1
  O  O310  1  0.24289844  0.75107204  0.88300832  1
  O  O311  1  0.75859641  0.24101386  0.38148344  1
  O  O312  1  0.74368980  0.24442857  0.88113042  1
  O  O313  1  0.74070789  0.74843844  0.37512595  1
  O  O314  1  0.74564212  0.74219964  0.88225260  1
  O  O315  1  0.00788987  0.12311151  0.00234304  1
  O  O316  1  0.00595486  0.11495885  0.49895248  1
  O  O317  1  -0.00810651  0.62370884  0.00818801  1
  O  O318  1  0.00662328  0.60884158  0.50008992  1
  O  O319  1  0.50789926  0.12018150  0.00901516  1
  O  O320  1  0.50863937  0.12991429  0.51340428  1
  O  O321  1  0.50502542  0.61685680  0.00963724  1
  O  O322  1  0.50372240  0.61689002  0.50931481  1
  O  O323  1  0.50088509  0.38102135  0.49270330  1
  O  O324  1  0.50286483  0.38747389  1.00745818  1
  O  O325  1  0.49047534  0.87236152  0.49197183  1
  O  O326  1  0.49767786  0.88125640  0.99263502  1
  O  O327  1  0.99457452  0.39016760  0.50290416  1
  O  O328  1  1.00895218  0.36885089  0.98626132  1
  O  O329  1  0.99720520  0.88607068  0.49586931  1
  O  O330  1  0.98972443  0.88669180  0.99281693  1
  O  O331  1  0.49841511  0.49404993  0.38409966  1
  O  O332  1  0.49166999  0.50071595  0.88560390  1
  O  O333  1  0.49130498  0.98728332  0.36930450  1
  O  O334  1  0.49499506  0.99524018  0.87859433  1
  O  O335  1  0.99168457  0.50463655  0.37285823  1
  O  O336  1  0.99031920  0.49107188  0.87129116  1
  O  O337  1  0.99329406  0.99367771  0.38286287  1
  O  O338  1  1.00237479  1.00455769  0.88451872  1
  O  O339  1  -0.00176927  0.01636947  0.10823442  1
  O  O340  1  0.00450703  0.00155562  0.61766180  1
  O  O341  1  0.00583904  0.51150269  0.12424002  1
  O  O342  1  -0.00325256  0.49891456  0.61886661  1
  O  O343  1  0.50504292  0.00749193  0.12426128  1
  O  O344  1  0.50836987  0.01551291  0.63410618  1
  O  O345  1  0.50634140  0.50749065  0.12349282  1
  O  O346  1  0.50324241  0.50363023  0.62059624  1
  O  O347  1  0.24245990  0.38297608  0.24479047  1
  O  O348  1  0.24056686  0.37355389  0.73717675  1
  O  O349  1  0.24512346  0.88386297  0.25318231  1
  O  O350  1  0.24944957  0.88613850  0.74008462  1
  O  O351  1  0.76093252  0.39077847  0.25007975  1
  O  O352  1  0.73737052  0.37943029  0.74846666  1
  O  O353  1  0.73826688  0.87635815  0.25235512  1
  O  O354  1  0.73574966  0.88061241  0.75306401  1
  O  O355  1  0.24729976  0.12326908  0.26123235  1
  O  O356  1  0.24749152  0.11446374  0.74811332  1
  O  O357  1  0.25460965  0.61978639  0.25538870  1
  O  O358  1  0.25321817  0.62329131  0.75468952  1
  O  O359  1  0.76387489  0.11721760  0.24862288  1
  O  O360  1  0.74968560  0.11792681  0.75799285  1
  O  O361  1  0.76765756  0.62160260  0.25057669  1
  O  O362  1  0.75265817  0.61763880  0.75753967  1
  O  O363  1  0.36652229  0.11314465  0.38133475  1
  O  O364  1  0.37519042  0.11275135  0.88087813  1
  O  O365  1  0.36922997  0.62428059  0.36749931  1
  O  O366  1  0.37724680  0.60590097  0.88112210  1
  O  O367  1  0.88078468  0.11557929  0.36283483  1
  O  O368  1  0.86223594  0.13225679  0.87307878  1
  O  O369  1  0.87776267  0.61974867  0.36539469  1
  O  O370  1  0.86742725  0.61757577  0.86519022  1
  O  O371  1  0.13069864  0.38269518  0.13222672  1
  O  O372  1  0.13074793  0.36957844  0.63711862  1
  O  O373  1  0.05857622  0.85745551  0.15648001  1
  O  O374  1  0.13276404  0.88403756  0.62375912  1
  O  O375  1  0.62465333  0.38910777  0.12568943  1
  O  O376  1  0.62339242  0.38353220  0.63190930  1
  O  O377  1  0.61735154  0.88377757  0.13418679  1
  O  O378  1  0.61996188  0.88380363  0.63365089  1
  O  O379  1  0.12516608  0.26124331  0.25757538  1
  O  O380  1  0.11950889  0.25700429  0.75449125  1
  O  O381  1  0.11671876  0.74232016  0.25918694  1
  O  O382  1  0.11546363  0.75391736  0.75415690  1
  O  O383  1  0.62103021  0.24793958  0.24624345  1
  O  O384  1  0.62246709  0.25428479  0.75702102  1
  O  O385  1  0.62452303  0.75571441  0.25642066  1
  O  O386  1  0.61292604  0.75921403  0.75122312  1
  O  O387  1  0.37511508  0.24926319  0.24075872  1
  O  O388  1  0.38765710  0.25187375  0.75960578  1
  O  O389  1  0.37401435  0.73755876  0.24453195  1
  O  O390  1  0.38770765  0.76137229  0.74356553  1
  O  O391  1  0.87827156  0.24268642  0.23856982  1
  O  O392  1  0.88350319  0.25237297  0.74234061  1
  O  O393  1  0.88303887  0.74906516  0.23791156  1
  O  O394  1  0.87933223  0.74145758  0.74366367  1
  O  O395  1  0.38678267  0.50372900  0.50037638  1
  O  O396  1  0.38505696  0.49732470  0.99944125  1
  O  O397  1  0.36623609  0.98563820  0.48592145  1
  O  O398  1  0.38032153  0.99713746  0.99484864  1
  O  O399  1  0.88671238  0.49658586  0.49410579  1
  O  O400  1  0.86672382  0.50323468  0.98738908  1
  O  O401  1  0.88226564  1.00351306  0.49412960  1
  O  O402  1  0.88085312  0.99282344  1.00120430  1
  O  O403  1  0.12183291  0.01203350  -0.00594835  1
  O  O404  1  0.11892461  0.00605725  0.50333650  1
  O  O405  1  0.13239096  0.49525212  0.00908675  1
  O  O406  1  0.11131503  0.50540664  0.49945240  1
  O  O407  1  0.61784477  0.00346572  0.00684375  1
  O  O408  1  0.62612117  0.00473040  0.51298780  1
  O  O409  1  0.61998216  0.50609968  0.00827440  1
  O  O410  1  0.61725509  0.49930521  0.50994346  1
  O  O411  1  0.36863514  0.36683708  0.12446371  1
  O  O412  1  0.36275447  0.36964744  0.62896233  1
  O  O413  1  0.38522426  0.85779400  0.12898522  1
  O  O414  1  0.37214748  0.87306133  0.61615115  1
  O  O415  1  0.88211818  0.36027877  0.12643984  1
  O  O416  1  0.87430748  0.36536144  0.61715520  1
  O  O417  1  0.88172441  0.86356063  0.11345712  1
  O  O418  1  0.86973094  0.86294077  0.62532850  1
  O  O419  1  0.13307138  0.13265067  0.38013433  1
  O  O420  1  0.13227461  0.13461127  0.88316903  1
  O  O421  1  0.12779228  0.63509873  0.38272154  1
  O  O422  1  0.12462448  0.63960437  0.87207898  1
  O  O423  1  0.62131625  0.11411613  0.39392363  1
  O  O424  1  0.63287773  0.13543298  0.87954227  1
  O  O425  1  0.62467159  0.63671837  0.37286674  1
  O  O426  1  0.63008138  0.62486952  0.88340263  1
