# generated using pymatgen
data_V85Zn86O256
_symmetry_space_group_name_H-M   'P 1'
_cell_length_a   16.91946775
_cell_length_b   16.93134577
_cell_length_c   16.93323458
_cell_angle_alpha   90.04154335
_cell_angle_beta   89.97544393
_cell_angle_gamma   89.94274874
_symmetry_Int_Tables_number   1
_chemical_formula_structural   V85Zn86O256
_chemical_formula_sum   'V85 Zn86 O256'
_cell_volume   4850.84870732
_cell_formula_units_Z   1
loop_
 _symmetry_equiv_pos_site_id
 _symmetry_equiv_pos_as_xyz
  1  'x, y, z'
loop_
 _atom_site_type_symbol
 _atom_site_label
 _atom_site_symmetry_multiplicity
 _atom_site_fract_x
 _atom_site_fract_y
 _atom_site_fract_z
 _atom_site_occupancy
  V  V0  1  0.00138681  0.75156753  0.75056420  1
  V  V1  1  0.24983734  0.62049771  0.87263900  1
  V  V2  1  0.13595196  -0.00252237  0.62634361  1
  V  V3  1  0.00747036  0.62036743  0.62454766  1
  V  V4  1  0.49791133  0.74876647  0.24710251  1
  V  V5  1  0.49958166  -0.00349586  0.50112883  1
  V  V6  1  -0.00272631  0.00094709  -0.00191857  1
  V  V7  1  0.00412555  0.50047062  0.01411653  1
  V  V8  1  0.13875244  0.87797717  0.74546849  1
  V  V9  1  0.12793401  0.14069420  -0.00469263  1
  V  V10  1  0.62259405  0.74279416  0.87618890  1
  V  V11  1  0.61900102  0.25188595  0.37486033  1
  V  V12  1  0.00203436  0.00189827  0.49919269  1
  V  V13  1  0.13488232  0.36432282  0.75335615  1
  V  V14  1  0.62105200  0.38122487  0.24838957  1
  V  V15  1  0.25470601  0.49121339  0.74522011  1
  V  V16  1  0.12494104  0.61966989  0.00944628  1
  V  V17  1  0.12165559  0.74824882  0.37382876  1
  V  V18  1  0.62335379  0.61926418  0.49598112  1
  V  V19  1  0.62516663  -0.00324889  0.62519579  1
  V  V20  1  0.74974161  0.74812930  0.00265719  1
  V  V21  1  0.87265177  0.13618822  0.24687790  1
  V  V22  1  0.87394281  0.25941581  0.62670966  1
  V  V23  1  0.37049348  0.87349760  0.49996432  1
  V  V24  1  0.24988231  0.75417257  -0.00219296  1
  V  V25  1  0.62113537  0.00270975  0.12228205  1
  V  V26  1  0.74869147  -0.00321848  0.74968706  1
  V  V27  1  0.63493213  0.37405829  0.74450421  1
  V  V28  1  0.24998788  0.74894196  0.50564727  1
  V  V29  1  0.74643918  0.12378906  0.87722139  1
  V  V30  1  0.38515083  0.62528675  0.75077962  1
  V  V31  1  0.38624492  0.37636031  0.00517970  1
  V  V32  1  0.49393743  0.87909049  0.37279469  1
  V  V33  1  0.38813444  0.49642666  0.88412061  1
  V  V34  1  0.49794967  0.25790172  0.75315654  1
  V  V35  1  0.25062069  0.87180146  0.12542581  1
  V  V36  1  0.00577930  0.24676111  0.76013586  1
  V  V37  1  0.36366778  0.25566758  0.62348328  1
  V  V38  1  0.87481075  0.00171598  0.37194972  1
  V  V39  1  0.88098026  0.49361338  0.87781778  1
  V  V40  1  0.00202565  0.48768698  0.49853579  1
  V  V41  1  -0.00066349  0.87327528  0.37159219  1
  V  V42  1  0.75081869  0.51525122  0.25240358  1
  V  V43  1  0.87435339  0.87430593  0.49676062  1
  V  V44  1  0.62485057  0.12434863  0.50088403  1
  V  V45  1  0.12982956  0.38584028  0.25502206  1
  V  V46  1  0.24271100  0.39478480  0.12000788  1
  V  V47  1  0.24966221  0.62280997  0.36732228  1
  V  V48  1  0.35921108  0.38154634  0.50876563  1
  V  V49  1  0.25856963  0.00995665  0.25135299  1
  V  V50  1  0.87707733  0.74819404  0.62348487  1
  V  V51  1  0.74980360  0.87129304  0.62303357  1
  V  V52  1  0.38142022  0.75201444  0.62837135  1
  V  V53  1  0.74884729  0.61912798  0.88012470  1
  V  V54  1  0.62926279  0.74543382  0.37088761  1
  V  V55  1  0.37424537  0.61965962  0.24750959  1
  V  V56  1  0.61915634  0.25481820  0.87890413  1
  V  V57  1  0.50344506  0.61755426  0.62085077  1
  V  V58  1  0.36832531  0.12057769  0.75176977  1
  V  V59  1  0.37717213  0.50280256  0.37872091  1
  V  V60  1  0.12345496  0.00401666  0.12497498  1
  V  V61  1  0.36346303  -0.00342804  0.86967606  1
  V  V62  1  0.87456065  0.12274580  0.74788192  1
  V  V63  1  0.50012270  0.62242453  0.11101759  1
  V  V64  1  0.74905762  0.00158324  0.24716677  1
  V  V65  1  0.62184621  0.50320524  0.10872772  1
  V  V66  1  0.00206810  0.12570880  0.61905791  1
  V  V67  1  0.12501227  0.74958615  0.87187823  1
  V  V68  1  0.89599741  0.74412470  0.12800090  1
  V  V69  1  0.49414551  0.13073385  0.12690183  1
  V  V70  1  0.14363407  0.24536931  0.37975745  1
  V  V71  1  0.74381784  0.12609503  0.37429097  1
  V  V72  1  -0.00459933  0.13627206  0.12466907  1
  V  V73  1  0.62462095  0.87799024  0.24546478  1
  V  V74  1  0.50166257  0.38198442  0.38901277  1
  V  V75  1  0.75586692  0.36982113  0.12448679  1
  V  V76  1  0.50086544  0.87292341  0.87493373  1
  V  V77  1  0.00126676  0.25636756  0.26319227  1
  V  V78  1  0.50120358  0.12729730  0.62531784  1
  V  V79  1  0.61971834  0.86486262  0.74831532  1
  V  V80  1  0.74767048  0.26023625  0.50568203  1
  V  V81  1  0.87758348  0.62185859  0.75248506  1
  V  V82  1  0.75368342  0.74055761  0.49346838  1
  V  V83  1  0.12029878  0.87253780  0.24937942  1
  V  V84  1  0.36136326  0.24806124  0.13096929  1
  Zn  Zn85  1  0.63143806  0.48937476  0.61424912  1
  Zn  Zn86  1  0.24194972  0.13466109  0.87437135  1
  Zn  Zn87  1  0.87652190  0.87199695  -0.00241926  1
  Zn  Zn88  1  0.75532867  0.87434744  0.12203408  1
  Zn  Zn89  1  0.37491406  0.75000075  0.12467230  1
  Zn  Zn90  1  0.01065393  0.37046739  0.88087737  1
  Zn  Zn91  1  0.75258552  0.24639118  0.00501315  1
  Zn  Zn92  1  0.49316481  0.25261103  0.25140144  1
  Zn  Zn93  1  0.89378607  0.62992415  0.25330165  1
  Zn  Zn94  1  0.88217211  0.36480223  0.00531598  1
  Zn  Zn95  1  0.87387452  -0.00380061  0.87436809  1
  Zn  Zn96  1  0.87728413  0.37383291  0.49236084  1
  Zn  Zn97  1  -0.00099750  0.87668186  0.87345332  1
  Zn  Zn98  1  0.87392310  0.50209250  0.37532421  1
  Zn  Zn99  1  0.37629537  0.87766891  0.00104724  1
  Zn  Zn100  1  0.33268089  0.04428504  0.40514535  1
  Zn  Zn101  1  0.15242425  0.12445658  0.49542155  1
  Zn  Zn102  1  0.61699128  0.12786196  -0.00187069  1
  Zn  Zn103  1  0.13281096  0.48737867  0.62502457  1
  Zn  Zn104  1  0.75735579  0.49233556  0.74447911  1
  Zn  Zn105  1  0.49490557  0.00408377  -0.00237459  1
  Zn  Zn106  1  0.12893173  0.61999846  0.50299880  1
  Zn  Zn107  1  0.18439683  0.19111611  0.18711236  1
  Zn  Zn108  1  0.18699156  0.18434803  0.68534450  1
  Zn  Zn109  1  0.07807958  0.68309079  0.18652600  1
  Zn  Zn110  1  0.19283310  0.68632688  0.68841042  1
  Zn  Zn111  1  0.67903213  0.18828657  0.18944489  1
  Zn  Zn112  1  0.68776565  0.18868725  0.68982165  1
  Zn  Zn113  1  0.68215292  0.68672038  0.18019864  1
  Zn  Zn114  1  0.69143038  0.67931120  0.68779983  1
  Zn  Zn115  1  0.31161847  0.32571973  0.30806425  1
  Zn  Zn116  1  0.31481556  0.30929901  0.82130370  1
  Zn  Zn117  1  0.30831919  0.81035383  0.31100773  1
  Zn  Zn118  1  0.31460984  0.80987302  0.81036649  1
  Zn  Zn119  1  0.80915925  0.31973978  0.31429725  1
  Zn  Zn120  1  0.81416562  0.30760928  0.81814018  1
  Zn  Zn121  1  0.81266666  0.80978511  0.30675900  1
  Zn  Zn122  1  0.81230500  0.81129087  0.81517170  1
  Zn  Zn123  1  0.18457256  0.43955977  0.43285635  1
  Zn  Zn124  1  0.18975302  0.43429039  0.93575528  1
  Zn  Zn125  1  0.18580272  0.93525254  0.43939142  1
  Zn  Zn126  1  0.18325722  0.94082773  0.93477171  1
  Zn  Zn127  1  0.69330083  0.43876493  0.43278205  1
  Zn  Zn128  1  0.68868112  0.43335814  0.93449778  1
  Zn  Zn129  1  0.68627100  0.93418434  0.43378802  1
  Zn  Zn130  1  0.68641908  0.93446664  0.93844003  1
  Zn  Zn131  1  0.31143332  0.06206671  0.06034060  1
  Zn  Zn132  1  0.31647940  0.06102200  0.57270816  1
  Zn  Zn133  1  0.31033691  0.56607135  0.06191059  1
  Zn  Zn134  1  0.31451214  0.56379547  0.56104409  1
  Zn  Zn135  1  0.81130156  0.06492597  0.06286218  1
  Zn  Zn136  1  0.81282351  0.06502095  0.56148784  1
  Zn  Zn137  1  0.81488904  0.56148092  0.06428061  1
  Zn  Zn138  1  0.81467336  0.55873942  0.56558477  1
  Zn  Zn139  1  0.43779866  0.44013528  0.18791901  1
  Zn  Zn140  1  0.44254235  0.43935312  0.68838382  1
  Zn  Zn141  1  0.43659215  0.93965501  0.18536042  1
  Zn  Zn142  1  0.43700431  0.93450565  0.68820208  1
  Zn  Zn143  1  0.93814566  0.43722393  0.19421244  1
  Zn  Zn144  1  0.94566676  0.43419231  0.69097311  1
  Zn  Zn145  1  0.93605958  0.93767682  0.18356260  1
  Zn  Zn146  1  0.94042542  0.93698016  0.68596600  1
  Zn  Zn147  1  0.06513873  0.06614842  0.31161401  1
  Zn  Zn148  1  0.06439821  0.06247818  0.81222042  1
  Zn  Zn149  1  0.05921034  0.56220570  0.32022214  1
  Zn  Zn150  1  0.06620141  0.55618443  0.81408643  1
  Zn  Zn151  1  0.50426180  0.09556172  0.34081981  1
  Zn  Zn152  1  0.55870723  0.06190503  0.81205899  1
  Zn  Zn153  1  0.56046452  0.56262625  0.30829196  1
  Zn  Zn154  1  0.56435800  0.56014231  0.81184498  1
  Zn  Zn155  1  0.33585333  0.19795374  0.43454472  1
  Zn  Zn156  1  0.41747129  0.19317747  0.93447753  1
  Zn  Zn157  1  0.44094916  0.68951328  0.43659561  1
  Zn  Zn158  1  0.43582824  0.69142944  0.93358731  1
  Zn  Zn159  1  0.93508222  0.18985022  0.43682392  1
  Zn  Zn160  1  0.93075033  0.18456735  0.93993136  1
  Zn  Zn161  1  0.94029226  0.67815791  0.43455071  1
  Zn  Zn162  1  0.93801203  0.68285240  0.94088076  1
  Zn  Zn163  1  0.06209321  0.31673263  0.06946655  1
  Zn  Zn164  1  0.07161958  0.30846020  0.56742576  1
  Zn  Zn165  1  0.06710747  0.81706992  0.05610811  1
  Zn  Zn166  1  0.06316770  0.81371616  0.56224191  1
  Zn  Zn167  1  0.56136031  0.31186539  0.06383534  1
  Zn  Zn168  1  0.55819068  0.31082372  0.56452729  1
  Zn  Zn169  1  0.56212760  0.80972846  0.05822592  1
  Zn  Zn170  1  0.56070061  0.80474298  0.56059648  1
  O  O171  1  0.11586867  0.12037209  0.11910585  1
  O  O172  1  0.11896028  0.11824190  0.61716091  1
  O  O173  1  0.14140561  0.63020514  0.10707924  1
  O  O174  1  0.11612855  0.62476057  0.62725935  1
  O  O175  1  0.61708317  0.11809924  0.12118168  1
  O  O176  1  0.62050563  0.11904870  0.62218262  1
  O  O177  1  0.61608215  0.61196642  0.12216123  1
  O  O178  1  0.61683810  0.63410490  0.61295568  1
  O  O179  1  0.38051281  0.38310712  0.38530316  1
  O  O180  1  0.37323469  0.38787138  0.89268670  1
  O  O181  1  0.38374176  0.86766994  0.38243541  1
  O  O182  1  0.38320011  0.88027339  0.87057573  1
  O  O183  1  0.86880990  0.38667222  0.37877806  1
  O  O184  1  0.87603799  0.38523020  0.87727799  1
  O  O185  1  0.87953906  0.88022750  0.37588646  1
  O  O186  1  0.87946628  0.87824939  0.87726713  1
  O  O187  1  0.24441337  -0.00797067  0.35695895  1
  O  O188  1  0.26074296  0.00631224  0.87613790  1
  O  O189  1  0.26391892  0.50985695  0.38130478  1
  O  O190  1  0.25984749  0.50689303  0.86794112  1
  O  O191  1  0.75157846  0.00707610  0.36761597  1
  O  O192  1  0.74666088  0.00541149  0.86694277  1
  O  O193  1  0.74599896  0.50296579  0.35503582  1
  O  O194  1  0.75845985  0.50445237  0.87223371  1
  O  O195  1  0.24922460  0.49311382  0.12680941  1
  O  O196  1  0.25366664  0.50725932  0.64184216  1
  O  O197  1  0.24260338  0.99114909  0.12947292  1
  O  O198  1  0.23561541  1.00113184  0.62496402  1
  O  O199  1  0.73817512  0.49551758  0.12978190  1
  O  O200  1  0.74033796  0.51498775  0.63479385  1
  O  O201  1  0.74154485  0.99840368  0.12976543  1
  O  O202  1  0.74448543  0.99210051  0.62775427  1
  O  O203  1  0.01534080  0.36619989  0.24143287  1
  O  O204  1  0.01018825  0.36174522  0.75508953  1
  O  O205  1  0.01222023  0.88250227  0.25490022  1
  O  O206  1  0.00457765  0.86051446  0.74769003  1
  O  O207  1  0.51026378  0.37942648  0.25820264  1
  O  O208  1  0.50768434  0.36242949  0.74780994  1
  O  O209  1  0.50414499  0.87138134  0.25509565  1
  O  O210  1  0.51378640  0.87429370  0.75389177  1
  O  O211  1  0.50482948  0.13225041  0.23218372  1
  O  O212  1  0.49870356  0.13186631  0.73860149  1
  O  O213  1  0.49233882  0.63126943  0.24186849  1
  O  O214  1  0.49093021  0.62193365  0.74401246  1
  O  O215  1  0.99153901  0.13226256  0.24480645  1
  O  O216  1  0.99692994  0.12829503  0.73913423  1
  O  O217  1  1.00766966  0.62167604  0.24455479  1
  O  O218  1  0.99882842  0.63311535  0.74584724  1
  O  O219  1  0.37975032  0.27031865  0.01895110  1
  O  O220  1  0.38043072  0.27198690  0.50956169  1
  O  O221  1  0.36003621  0.75344525  -0.00191992  1
  O  O222  1  0.37005048  0.75446433  0.50580653  1
  O  O223  1  0.86657173  0.25238651  -0.00134985  1
  O  O224  1  0.86591807  0.25111255  0.50777426  1
  O  O225  1  0.87082759  0.74897931  0.01067421  1
  O  O226  1  0.86982944  0.75319117  0.50155486  1
  O  O227  1  0.12575315  0.24813281  0.48359624  1
  O  O228  1  0.11914969  0.23913086  1.00283801  1
  O  O229  1  0.13554958  0.75065527  0.49601675  1
  O  O230  1  0.13391617  0.74462944  0.99089951  1
  O  O231  1  0.62967569  0.24552236  0.49666673  1
  O  O232  1  0.62824769  0.25002485  0.99194996  1
  O  O233  1  0.63369431  0.74535470  0.48905287  1
  O  O234  1  0.63380106  0.75228603  0.98519794  1
  O  O235  1  0.48960271  0.24724647  0.12836312  1
  O  O236  1  0.49368131  0.24197437  0.63160936  1
  O  O237  1  0.49918382  0.74212217  0.12993104  1
  O  O238  1  0.48808343  0.73874353  0.62224226  1
  O  O239  1  1.00466959  0.23973150  0.13755825  1
  O  O240  1  0.99425543  0.24080948  0.63062416  1
  O  O241  1  0.99968531  0.74875371  0.12107592  1
  O  O242  1  0.99659528  0.74261957  0.63031126  1
  O  O243  1  0.00565884  0.24779242  0.36586216  1
  O  O244  1  -0.00575345  0.24537872  0.86219153  1
  O  O245  1  0.01488902  0.75659037  0.38578452  1
  O  O246  1  0.00633986  0.74761008  0.86656681  1
  O  O247  1  0.51260547  0.26507539  0.37281375  1
  O  O248  1  0.50665374  0.24332616  0.86483103  1
  O  O249  1  0.50842953  0.76088613  0.36840642  1
  O  O250  1  0.50894011  0.75909144  0.87570591  1
  O  O251  1  0.26784159  0.11535125  0.48576601  1
  O  O252  1  0.22904462  0.12158717  1.00534295  1
  O  O253  1  0.25136340  0.63338532  0.49120345  1
  O  O254  1  0.24770161  0.63134881  0.98727047  1
  O  O255  1  0.74297865  0.13131369  0.49233990  1
  O  O256  1  0.74451596  0.12182054  0.98694053  1
  O  O257  1  0.74566540  0.63698743  0.50116259  1
  O  O258  1  0.75627487  0.62942145  0.98748345  1
  O  O259  1  0.25648044  0.38173113  0.01499006  1
  O  O260  1  0.26092333  0.38138999  0.50196274  1
  O  O261  1  0.24653699  0.86954151  0.00416552  1
  O  O262  1  0.26271469  0.86670201  0.49489663  1
  O  O263  1  0.74970674  0.37714707  0.01666473  1
  O  O264  1  0.74704166  0.36327173  0.50173952  1
  O  O265  1  0.75356142  0.86396474  0.00060962  1
  O  O266  1  0.75484191  0.86575509  0.50343704  1
  O  O267  1  0.12444300  0.48359545  0.26325898  1
  O  O268  1  0.13859414  0.49007244  0.75029540  1
  O  O269  1  0.12878851  0.99587262  0.23853615  1
  O  O270  1  0.11758346  0.98984989  0.73947310  1
  O  O271  1  0.63269906  0.49690508  0.24271163  1
  O  O272  1  0.62503105  0.47921505  0.75631400  1
  O  O273  1  0.62987133  0.99126015  0.23714019  1
  O  O274  1  0.63053187  0.98992734  0.74338077  1
  O  O275  1  0.35884566  -0.00238044  0.24703377  1
  O  O276  1  0.37756707  0.00674549  0.75370505  1
  O  O277  1  0.37775415  0.51247268  0.25870712  1
  O  O278  1  0.37321533  0.50292317  0.76149515  1
  O  O279  1  0.86888579  0.00846173  0.25383417  1
  O  O280  1  0.86633327  0.00441824  0.74670359  1
  O  O281  1  0.85840193  0.50515945  0.24167423  1
  O  O282  1  0.87899002  0.50391742  0.75862538  1
  O  O283  1  0.13361914  0.36173294  0.36325904  1
  O  O284  1  0.12713426  0.37324794  0.86220647  1
  O  O285  1  0.12070478  0.86858731  0.36786097  1
  O  O286  1  0.12205975  0.86959706  0.86425170  1
  O  O287  1  0.61985027  0.37408154  0.36903542  1
  O  O288  1  0.62829564  0.36121524  0.86558085  1
  O  O289  1  0.61905001  0.86745816  0.36230267  1
  O  O290  1  0.61996837  0.86644524  0.86684321  1
  O  O291  1  0.37488442  0.14164425  0.11972179  1
  O  O292  1  0.38479753  0.13168633  0.63287692  1
  O  O293  1  0.37917051  0.62649393  0.13262563  1
  O  O294  1  0.38406677  0.62785970  0.63154577  1
  O  O295  1  0.88185487  0.12180130  0.13614925  1
  O  O296  1  0.88289846  0.13009847  0.63000444  1
  O  O297  1  0.87312198  0.64267533  0.12544425  1
  O  O298  1  0.88840835  0.63026794  0.63165962  1
  O  O299  1  0.25923725  0.25894938  0.12775576  1
  O  O300  1  0.26470492  0.24304848  0.62362516  1
  O  O301  1  0.24828408  0.76500895  0.11387198  1
  O  O302  1  0.26262012  0.74129520  0.61274303  1
  O  O303  1  0.73927172  0.26699100  0.12759928  1
  O  O304  1  0.76052583  0.24006011  0.61609705  1
  O  O305  1  0.74542920  0.75083876  0.11010643  1
  O  O306  1  0.75770861  0.75265369  0.61611762  1
  O  O307  1  0.24747853  0.25093680  0.37206832  1
  O  O308  1  0.30863858  0.22351176  0.88950600  1
  O  O309  1  0.24158165  0.74568508  0.38499720  1
  O  O310  1  0.24606995  0.74225662  0.87877091  1
  O  O311  1  0.73715021  0.24589902  0.38196319  1
  O  O312  1  0.73916069  0.23851840  0.87377556  1
  O  O313  1  0.74068454  0.75655233  0.38089513  1
  O  O314  1  0.74626479  0.74137788  0.88438333  1
  O  O315  1  0.00676040  0.12081574  0.00767701  1
  O  O316  1  -0.00404492  0.12112541  0.51026652  1
  O  O317  1  0.01066508  0.61166078  -0.00223301  1
  O  O318  1  0.00563225  0.61485156  0.51119550  1
  O  O319  1  0.49630221  0.12644922  0.01143256  1
  O  O320  1  0.50836700  0.11627487  0.51548861  1
  O  O321  1  0.49052927  0.62930609  0.01202758  1
  O  O322  1  0.51110022  0.63057931  0.50701136  1
  O  O323  1  0.50108006  0.37954989  0.49100575  1
  O  O324  1  0.48500308  0.38301066  1.01096951  1
  O  O325  1  0.49268233  0.87461162  0.49201383  1
  O  O326  1  0.49676795  0.87607840  0.98933760  1
  O  O327  1  1.00184990  0.38522353  0.51228571  1
  O  O328  1  1.00152578  0.38497731  0.99960348  1
  O  O329  1  0.99291476  0.88138920  0.49329929  1
  O  O330  1  1.00026980  0.88671705  0.99661029  1
  O  O331  1  0.48820803  0.49582397  0.37183531  1
  O  O332  1  0.48638978  0.50372852  0.87580278  1
  O  O333  1  0.50753482  0.98527267  0.38317594  1
  O  O334  1  0.50004488  0.98383045  0.87476183  1
  O  O335  1  1.00485142  0.49633261  0.39661121  1
  O  O336  1  0.99362617  0.49623374  0.88205332  1
  O  O337  1  0.99652353  0.99628800  0.37984491  1
  O  O338  1  0.99820864  1.00146158  0.88512899  1
  O  O339  1  0.00646391  0.01069360  0.12109734  1
  O  O340  1  0.00439949  0.00779193  0.61750685  1
  O  O341  1  -0.00194745  0.49667571  0.11267156  1
  O  O342  1  0.00639724  0.50656973  0.62241619  1
  O  O343  1  0.50431329  0.00869293  0.12285561  1
  O  O344  1  0.50650570  0.00467641  0.62179540  1
  O  O345  1  0.51339042  0.50765147  0.12927517  1
  O  O346  1  0.51044014  0.51295477  0.62866526  1
  O  O347  1  0.23801044  0.37685353  0.23808945  1
  O  O348  1  0.25047430  0.37930990  0.75822978  1
  O  O349  1  0.23936594  0.88015871  0.24169619  1
  O  O350  1  0.23800865  0.86890591  0.74852243  1
  O  O351  1  0.73831926  0.38352519  0.23987547  1
  O  O352  1  0.73829177  0.36978360  0.75116553  1
  O  O353  1  0.74012275  0.88069186  0.24605588  1
  O  O354  1  0.74195418  0.87703823  0.74297912  1
  O  O355  1  0.24428165  0.10833149  0.24185920  1
  O  O356  1  0.26449690  0.12802903  0.75247852  1
  O  O357  1  0.26090038  0.63224531  0.26603404  1
  O  O358  1  0.26100737  0.61867478  0.75918271  1
  O  O359  1  0.75437521  0.12383296  0.25437845  1
  O  O360  1  0.75217872  0.11717173  0.75758790  1
  O  O361  1  0.74572729  0.61548091  0.24372661  1
  O  O362  1  0.76239261  0.62697652  0.76381971  1
  O  O363  1  0.40136945  0.12675253  0.37617719  1
  O  O364  1  0.39822392  0.10285999  0.85999638  1
  O  O365  1  0.37331488  0.62011226  0.37172492  1
  O  O366  1  0.37097241  0.61688570  0.86950582  1
  O  O367  1  0.86697472  0.12008476  0.36733877  1
  O  O368  1  0.86399214  0.11915362  0.86567308  1
  O  O369  1  0.88008638  0.61639407  0.36652253  1
  O  O370  1  0.87149268  0.61314070  0.87219211  1
  O  O371  1  0.13738983  0.37381021  0.13525576  1
  O  O372  1  0.12772260  0.37148981  0.64443715  1
  O  O373  1  0.12902392  0.88315009  0.13118406  1
  O  O374  1  0.11933623  0.88547308  0.63228259  1
  O  O375  1  0.62719814  0.38635388  0.13106723  1
  O  O376  1  0.62199808  0.37239076  0.63941925  1
  O  O377  1  0.62105116  0.87974521  0.13435268  1
  O  O378  1  0.62858256  0.87300688  0.63031613  1
  O  O379  1  0.12013436  0.25415706  0.26149085  1
  O  O380  1  0.11835191  0.24967821  0.74967284  1
  O  O381  1  0.12819939  0.76077279  0.26060216  1
  O  O382  1  0.11983939  0.75474917  0.75185992  1
  O  O383  1  0.62321092  0.26235222  0.25943459  1
  O  O384  1  0.61860451  0.25774777  0.75419692  1
  O  O385  1  0.62044876  0.75624321  0.25357532  1
  O  O386  1  0.63483421  0.75588757  0.76128828  1
  O  O387  1  0.37591383  0.26298418  0.23440492  1
  O  O388  1  0.38436163  0.24536936  0.74095919  1
  O  O389  1  0.37984335  0.73979085  0.24957658  1
  O  O390  1  0.37077180  0.73803775  0.74044457  1
  O  O391  1  0.88047282  0.24179885  0.25723183  1
  O  O392  1  0.88082949  0.24209964  0.74369908  1
  O  O393  1  0.87450139  0.75027565  0.23160559  1
  O  O394  1  0.88383290  0.74399182  0.74565112  1
  O  O395  1  0.37729941  0.48987221  0.49627261  1
  O  O396  1  0.37121099  0.49612492  0.99043638  1
  O  O397  1  0.38211961  0.98810824  0.50260531  1
  O  O398  1  0.37498974  0.99714247  0.98776715  1
  O  O399  1  0.89059858  0.49647633  0.50623297  1
  O  O400  1  0.88810736  0.49816230  0.99586819  1
  O  O401  1  0.87924614  0.99504168  0.49198594  1
  O  O402  1  0.88755441  1.00098774  1.00224684  1
  O  O403  1  0.11521783  0.00346224  0.01087044  1
  O  O404  1  0.11909772  0.00269092  0.50589922  1
  O  O405  1  0.11398756  0.50592754  -0.00633710  1
  O  O406  1  0.11821329  0.49896482  0.50708476  1
  O  O407  1  0.62180398  -0.00137355  0.01259501  1
  O  O408  1  0.62096465  0.00135013  0.50606985  1
  O  O409  1  0.62585071  0.49617441  0.01032016  1
  O  O410  1  0.63261450  0.51577293  0.49517171  1
  O  O411  1  0.36390002  0.37730401  0.12070185  1
  O  O412  1  0.37986604  0.37286635  0.61570063  1
  O  O413  1  0.36557601  0.87218108  0.12264876  1
  O  O414  1  0.38222615  0.86366360  0.61523894  1
  O  O415  1  0.85812380  0.37879381  0.12882233  1
  O  O416  1  0.87925812  0.36128127  0.62636260  1
  O  O417  1  0.87631279  0.86002706  0.12120889  1
  O  O418  1  0.87142447  0.86759008  0.61719344  1
  O  O419  1  0.12551101  0.14069612  0.37586160  1
  O  O420  1  0.12534030  0.12358938  0.88970057  1
  O  O421  1  0.13378815  0.63236326  0.38017356  1
  O  O422  1  0.13543163  0.62915709  0.87735570  1
  O  O423  1  0.61793021  0.13566765  0.38171833  1
  O  O424  1  0.62912560  0.13302112  0.87385140  1
  O  O425  1  0.61668850  0.63835934  0.37893478  1
  O  O426  1  0.63454806  0.63107604  0.86850074  1
