# generated using pymatgen
data_V85Zn86O256
_symmetry_space_group_name_H-M   'P 1'
_cell_length_a   16.94888044
_cell_length_b   16.93103078
_cell_length_c   16.94091175
_cell_angle_alpha   89.98841682
_cell_angle_beta   90.07958668
_cell_angle_gamma   90.00583874
_symmetry_Int_Tables_number   1
_chemical_formula_structural   V85Zn86O256
_chemical_formula_sum   'V85 Zn86 O256'
_cell_volume   4861.39337962
_cell_formula_units_Z   1
loop_
 _symmetry_equiv_pos_site_id
 _symmetry_equiv_pos_as_xyz
  1  'x, y, z'
loop_
 _atom_site_type_symbol
 _atom_site_label
 _atom_site_symmetry_multiplicity
 _atom_site_fract_x
 _atom_site_fract_y
 _atom_site_fract_z
 _atom_site_occupancy
  V  V0  1  0.12093868  0.51739450  0.62041981  1
  V  V1  1  0.37678438  0.88464984  0.50150004  1
  V  V2  1  0.25112737  0.74883223  -0.00301522  1
  V  V3  1  0.00259900  0.13330457  0.12872985  1
  V  V4  1  0.26241623  0.74073112  0.50000741  1
  V  V5  1  0.75793345  0.51486832  0.26305957  1
  V  V6  1  0.49073361  0.75367706  0.74599283  1
  V  V7  1  0.75362426  0.12674030  0.87551343  1
  V  V8  1  0.37404789  0.60834819  0.75356901  1
  V  V9  1  0.37435210  0.24373005  0.11329053  1
  V  V10  1  0.74543509  0.00105440  0.24612946  1
  V  V11  1  -0.00034715  0.87139782  0.87103694  1
  V  V12  1  -0.00447324  0.25108643  0.75207640  1
  V  V13  1  0.49538325  0.49803131  0.49886854  1
  V  V14  1  0.62653497  0.11901905  0.00838105  1
  V  V15  1  0.75192656  0.37870784  0.12792881  1
  V  V16  1  0.74573896  0.88088703  0.11972354  1
  V  V17  1  0.75014945  0.12628374  0.37715336  1
  V  V18  1  0.49594438  0.37265500  0.37698834  1
  V  V19  1  0.00025863  0.00262164  0.50173204  1
  V  V20  1  0.12698554  0.00425375  0.62661637  1
  V  V21  1  0.12437286  0.87365769  0.25746739  1
  V  V22  1  0.87358683  0.12569844  0.74560703  1
  V  V23  1  0.87560188  0.87180221  0.50326659  1
  V  V24  1  0.00005341  0.50057711  0.00077561  1
  V  V25  1  0.12585854  0.62630707  0.00026680  1
  V  V26  1  0.12441030  0.74855345  0.86610602  1
  V  V27  1  0.87282344  0.75587949  0.12165859  1
  V  V28  1  0.50238570  0.74843065  0.25719727  1
  V  V29  1  0.50258088  0.24987043  0.74687555  1
  V  V30  1  0.49117351  0.62803105  0.62418033  1
  V  V31  1  0.87855391  -0.00111540  0.37507863  1
  V  V32  1  0.63017183  0.86963168  0.25578913  1
  V  V33  1  0.61695658  0.62465011  -0.00321652  1
  V  V34  1  0.24973287  0.61955180  0.37404328  1
  V  V35  1  0.87814648  0.50126535  0.87273565  1
  V  V36  1  0.62558682  0.49849862  0.62451169  1
  V  V37  1  0.37626976  0.88160454  -0.00559312  1
  V  V38  1  0.24889256  0.87153219  0.12575068  1
  V  V39  1  0.75092648  0.62647593  0.87364188  1
  V  V40  1  0.89160183  0.62675490  0.74764233  1
  V  V41  1  0.24842862  0.25930920  0.49820570  1
  V  V42  1  -0.00701589  0.62437844  0.12716220  1
  V  V43  1  0.12552795  -0.00009510  0.12539990  1
  V  V44  1  0.13214356  0.50048774  0.13091604  1
  V  V45  1  0.87949083  0.13186261  0.25105641  1
  V  V46  1  0.25078680  -0.00001511  0.75428027  1
  V  V47  1  0.14907670  0.26215003  0.85834373  1
  V  V48  1  0.75537573  0.24933265  0.51153921  1
  V  V49  1  0.62529076  0.75561591  0.86407890  1
  V  V50  1  0.25149433  0.86915450  0.62392765  1
  V  V51  1  0.75523991  0.50208208  0.74733521  1
  V  V52  1  0.25471829  0.60965058  0.87217931  1
  V  V53  1  0.62558609  0.25253434  0.87610633  1
  V  V54  1  0.61951880  0.50024419  0.11982913  1
  V  V55  1  0.74562424  0.86513649  0.63145168  1
  V  V56  1  0.49967502  0.88210767  0.87117677  1
  V  V57  1  0.37691228  0.12317586  0.75561688  1
  V  V58  1  0.75258251  0.75423812  -0.00322422  1
  V  V59  1  0.07460225  0.69114410  0.42784790  1
  V  V60  1  0.25552496  0.37606282  0.13138132  1
  V  V61  1  0.50085204  0.38756336  0.87892125  1
  V  V62  1  0.87796018  0.38701900  0.50496662  1
  V  V63  1  0.87653109  -0.00436978  0.87882623  1
  V  V64  1  0.75227125  0.25319936  0.00129933  1
  V  V65  1  0.00605917  0.37298197  0.87411168  1
  V  V66  1  -0.00186215  0.13222416  0.62485127  1
  V  V67  1  0.00041613  0.74984648  0.24426565  1
  V  V68  1  0.37214467  0.25423881  0.62487929  1
  V  V69  1  0.62568148  0.62756446  0.48956369  1
  V  V70  1  0.49507143  0.88402943  0.37439788  1
  V  V71  1  0.62776566  0.37597309  0.25314360  1
  V  V72  1  0.12949890  0.13634063  -0.00018913  1
  V  V73  1  0.12826903  0.12986108  0.49880296  1
  V  V74  1  -0.00139188  -0.00306513  0.00073919  1
  V  V75  1  0.37850873  0.75076252  0.12556672  1
  V  V76  1  0.74468994  -0.00208180  0.74758799  1
  V  V77  1  0.25548920  0.11913110  0.88428917  1
  V  V78  1  0.89195387  0.74824609  0.63105058  1
  V  V79  1  0.62271155  0.10632273  0.50566925  1
  V  V80  1  0.87589647  0.37600272  0.00029113  1
  V  V81  1  0.37268740  0.61732621  0.24950639  1
  V  V82  1  -0.00691033  0.37539026  0.36501933  1
  V  V83  1  0.49839232  0.24728613  0.24860522  1
  V  V84  1  0.37779605  0.39186875  -0.00166828  1
  Zn  Zn85  1  0.25400355  -0.00022125  0.25250890  1
  Zn  Zn86  1  0.11944394  0.25051632  0.36261151  1
  Zn  Zn87  1  0.75814676  0.37277234  0.62958771  1
  Zn  Zn88  1  0.74291051  0.72586094  0.44728810  1
  Zn  Zn89  1  0.00428747  0.87376300  0.37834316  1
  Zn  Zn90  1  0.37177480  0.00521832  0.37377604  1
  Zn  Zn91  1  0.58206361  0.94089990  0.68376013  1
  Zn  Zn92  1  0.62795801  0.37568549  0.74932224  1
  Zn  Zn93  1  0.50185806  0.10894489  0.62285857  1
  Zn  Zn94  1  0.50235587  -0.00258297  0.00302097  1
  Zn  Zn95  1  0.50642475  0.11359382  0.13126029  1
  Zn  Zn96  1  0.37090455  0.37599797  0.50469491  1
  Zn  Zn97  1  0.25344296  0.12572182  0.37143748  1
  Zn  Zn98  1  0.62431449  0.24813517  0.38039491  1
  Zn  Zn99  1  0.36655969  0.49403126  0.37092561  1
  Zn  Zn100  1  0.49800430  0.62211052  0.12108104  1
  Zn  Zn101  1  0.00126479  0.51042205  0.49807215  1
  Zn  Zn102  1  0.88120392  0.25558709  0.13066482  1
  Zn  Zn103  1  0.12636884  0.37223448  0.25046099  1
  Zn  Zn104  1  0.12315658  0.87303737  0.74856774  1
  Zn  Zn105  1  0.18858739  0.40337560  0.70730351  1
  Zn  Zn106  1  0.37406776  0.12126042  0.25127436  1
  Zn  Zn107  1  0.19187286  0.19226406  0.19179876  1
  Zn  Zn108  1  0.19319796  0.20164090  0.69330692  1
  Zn  Zn109  1  0.18694618  0.68689990  0.18991535  1
  Zn  Zn110  1  0.19171807  0.68342543  0.68807260  1
  Zn  Zn111  1  0.69126212  0.19282312  0.18995156  1
  Zn  Zn112  1  0.68519091  0.18383544  0.68557752  1
  Zn  Zn113  1  0.68434726  0.68957877  0.18481531  1
  Zn  Zn114  1  0.68566979  0.68401890  0.68331681  1
  Zn  Zn115  1  0.31227554  0.30537652  0.31206377  1
  Zn  Zn116  1  0.31998838  0.30765040  0.82338435  1
  Zn  Zn117  1  0.31055898  0.80818941  0.31581992  1
  Zn  Zn118  1  0.31256603  0.80859747  0.81202651  1
  Zn  Zn119  1  0.81376362  0.31425457  0.31785459  1
  Zn  Zn120  1  0.81546504  0.31520606  0.81192693  1
  Zn  Zn121  1  0.81629439  0.79790556  0.31723487  1
  Zn  Zn122  1  0.81705565  0.81320742  0.81004141  1
  Zn  Zn123  1  0.17696997  0.43890282  0.44134797  1
  Zn  Zn124  1  0.19113621  0.43544881  0.94780628  1
  Zn  Zn125  1  0.19088584  0.93909782  0.43901356  1
  Zn  Zn126  1  0.18570578  0.93736169  0.93945296  1
  Zn  Zn127  1  0.68736464  0.43723066  0.43885227  1
  Zn  Zn128  1  0.68768511  0.43995632  0.93688535  1
  Zn  Zn129  1  0.69668102  0.92216280  0.43285594  1
  Zn  Zn130  1  0.68844613  0.93605143  0.93239193  1
  Zn  Zn131  1  0.31365919  0.05949696  0.06885632  1
  Zn  Zn132  1  0.31215496  0.06786991  0.56658838  1
  Zn  Zn133  1  0.31235930  0.56409928  0.06248069  1
  Zn  Zn134  1  0.30450001  0.55273860  0.57036395  1
  Zn  Zn135  1  0.81467900  0.06421495  0.06339196  1
  Zn  Zn136  1  0.81042820  0.05845325  0.56479301  1
  Zn  Zn137  1  0.80869881  0.56531966  0.06471736  1
  Zn  Zn138  1  0.81275990  0.56618422  0.56467248  1
  Zn  Zn139  1  0.43974812  0.43513431  0.18661186  1
  Zn  Zn140  1  0.44126210  0.43461629  0.68877690  1
  Zn  Zn141  1  0.44169191  0.94023753  0.18504282  1
  Zn  Zn142  1  0.42203038  0.93611146  0.68849513  1
  Zn  Zn143  1  0.93248621  0.44523683  0.18979508  1
  Zn  Zn144  1  0.96021537  0.43506346  0.67754807  1
  Zn  Zn145  1  0.93382755  0.93727227  0.18680971  1
  Zn  Zn146  1  0.93728283  0.94033809  0.69053913  1
  Zn  Zn147  1  0.06480460  0.06316411  0.31272631  1
  Zn  Zn148  1  0.06611762  0.06647876  0.81433613  1
  Zn  Zn149  1  0.05162708  0.55078411  0.30772247  1
  Zn  Zn150  1  0.07189193  0.55757340  0.80965207  1
  Zn  Zn151  1  0.56490602  0.06041008  0.31595609  1
  Zn  Zn152  1  0.56193928  0.06700274  0.82065440  1
  Zn  Zn153  1  0.56085858  0.55840673  0.30970084  1
  Zn  Zn154  1  0.56522111  0.56654886  0.80792108  1
  Zn  Zn155  1  0.43951364  0.18443321  0.43919253  1
  Zn  Zn156  1  0.44263966  0.18838256  0.93601262  1
  Zn  Zn157  1  0.43675556  0.68724679  0.43513297  1
  Zn  Zn158  1  0.43646775  0.69061413  0.93244375  1
  Zn  Zn159  1  0.93704988  0.19386385  0.43728824  1
  Zn  Zn160  1  0.94045258  0.18768693  0.93891310  1
  Zn  Zn161  1  0.90837629  0.67911122  0.43145707  1
  Zn  Zn162  1  0.93713424  0.68905567  0.93782020  1
  Zn  Zn163  1  0.06799859  0.31317591  0.06184363  1
  Zn  Zn164  1  0.06300344  0.31587764  0.56150984  1
  Zn  Zn165  1  0.06298336  0.81426438  0.05830522  1
  Zn  Zn166  1  0.06480838  0.81576415  0.56762197  1
  Zn  Zn167  1  0.56068472  0.31175165  0.06254319  1
  Zn  Zn168  1  0.56736493  0.30908285  0.56254933  1
  Zn  Zn169  1  0.56458141  0.81339463  0.06331370  1
  Zn  Zn170  1  0.55983795  0.80772280  0.55540063  1
  O  O171  1  0.12022170  0.11865983  0.11844966  1
  O  O172  1  0.11859516  0.12367230  0.61740565  1
  O  O173  1  0.11993291  0.61891759  0.11923446  1
  O  O174  1  0.12636603  0.61861130  0.62439793  1
  O  O175  1  0.62920832  0.13391631  0.11088275  1
  O  O176  1  0.62747136  0.11960416  0.61080176  1
  O  O177  1  0.62386372  0.61834268  0.11369143  1
  O  O178  1  0.61372490  0.61388827  0.61930771  1
  O  O179  1  0.38524433  0.37529850  0.37539158  1
  O  O180  1  0.38441620  0.37348882  0.88949607  1
  O  O181  1  0.37782867  0.87534214  0.38403003  1
  O  O182  1  0.38538690  0.86633571  0.88304048  1
  O  O183  1  0.88260614  0.37128367  0.38803022  1
  O  O184  1  0.88393437  0.38207452  0.88161733  1
  O  O185  1  0.88453909  0.88115682  0.38883027  1
  O  O186  1  0.88365285  0.88469945  0.87316771  1
  O  O187  1  0.25064514  0.00514075  0.37204808  1
  O  O188  1  0.24335668  0.00895015  0.86823166  1
  O  O189  1  0.24896842  0.51479183  0.38434639  1
  O  O190  1  0.24301447  0.51040577  0.87766583  1
  O  O191  1  0.75942833  0.01005338  0.36860706  1
  O  O192  1  0.76037811  0.00421858  0.87028026  1
  O  O193  1  0.74404285  0.49796753  0.36170102  1
  O  O194  1  0.75729872  0.50504582  0.86723422  1
  O  O195  1  0.24234773  0.49297653  0.11946515  1
  O  O196  1  0.23001633  0.48940525  0.62497540  1
  O  O197  1  0.23970779  0.98963323  0.12551009  1
  O  O198  1  0.24522106  0.99450132  0.63269944  1
  O  O199  1  0.74175658  0.49123013  0.13002435  1
  O  O200  1  0.74365806  0.49986971  0.63200538  1
  O  O201  1  0.75748285  0.99199687  0.13183071  1
  O  O202  1  0.75709062  0.98964186  0.64064368  1
  O  O203  1  -0.00843341  0.37872903  0.26185968  1
  O  O204  1  -0.00749424  0.36485372  0.76445359  1
  O  O205  1  0.00686139  0.86915836  0.25009105  1
  O  O206  1  0.00504823  0.88409546  0.76611936  1
  O  O207  1  0.50711154  0.36699810  0.25588708  1
  O  O208  1  0.50468988  0.36579681  0.75921345  1
  O  O209  1  0.50569558  0.86645905  0.25462363  1
  O  O210  1  0.49920093  0.86958077  0.75386748  1
  O  O211  1  0.50759440  0.13821485  0.24974661  1
  O  O212  1  0.49366986  0.13183695  0.75387941  1
  O  O213  1  0.49337541  0.63218081  0.24798144  1
  O  O214  1  0.49313701  0.63093728  0.74344285  1
  O  O215  1  0.99188283  0.11774770  0.23977669  1
  O  O216  1  0.99003588  0.12593399  0.74548683  1
  O  O217  1  1.00417369  0.63212938  0.23501844  1
  O  O218  1  0.98928243  0.62451536  0.76320096  1
  O  O219  1  0.38449956  0.25516962  0.01202099  1
  O  O220  1  0.36846191  0.24931525  0.50912170  1
  O  O221  1  0.37046533  0.75508460  0.00700254  1
  O  O222  1  0.36445058  0.75605767  0.49960837  1
  O  O223  1  0.86874836  0.25663505  0.00128556  1
  O  O224  1  0.85919085  0.25533378  0.49851719  1
  O  O225  1  0.86017652  0.74847548  0.00258291  1
  O  O226  1  0.87460286  0.75996855  0.51875988  1
  O  O227  1  0.13231666  0.24440708  0.50159467  1
  O  O228  1  0.12368984  0.23865306  0.99072302  1
  O  O229  1  0.12783812  0.74947936  0.49294811  1
  O  O230  1  0.13203053  0.74428409  0.99406019  1
  O  O231  1  0.64087983  0.24484147  0.49865134  1
  O  O232  1  0.63220367  0.24555588  0.99346079  1
  O  O233  1  0.62452857  0.73086664  0.49905494  1
  O  O234  1  0.63442881  0.74382100  0.99129810  1
  O  O235  1  0.49201224  0.24802658  0.13214579  1
  O  O236  1  0.49954261  0.24602540  0.63706641  1
  O  O237  1  0.49236357  0.74891549  0.13326528  1
  O  O238  1  0.50632075  0.73955195  0.63337067  1
  O  O239  1  0.99970673  0.23683426  0.11626059  1
  O  O240  1  1.00081451  0.23817700  0.63443688  1
  O  O241  1  0.99250354  0.74619150  0.12440421  1
  O  O242  1  0.99084475  0.75388688  0.62999319  1
  O  O243  1  0.00157915  0.26788842  0.38119568  1
  O  O244  1  0.00649539  0.25783376  0.87088690  1
  O  O245  1  0.00861734  0.74809208  0.36687497  1
  O  O246  1  0.00971844  0.76082919  0.88498264  1
  O  O247  1  0.50309181  0.25732642  0.36828225  1
  O  O248  1  0.50963234  0.25586890  0.86601069  1
  O  O249  1  0.49275484  0.75865595  0.36191302  1
  O  O250  1  0.50761912  0.75802537  0.86527651  1
  O  O251  1  0.24060328  0.13389396  0.50129663  1
  O  O252  1  0.24162539  0.11321575  0.99508547  1
  O  O253  1  0.25808066  0.63541810  0.49669054  1
  O  O254  1  0.24684662  0.63043083  0.99234142  1
  O  O255  1  0.74750016  0.13162681  0.49656125  1
  O  O256  1  0.74481574  0.13266510  0.99576684  1
  O  O257  1  0.73119588  0.62293008  0.50498770  1
  O  O258  1  0.74185601  0.63312726  0.99251004  1
  O  O259  1  0.27049209  0.37740519  0.00852101  1
  O  O260  1  0.25132574  0.36330982  0.49344127  1
  O  O261  1  0.25638092  0.86819961  0.00392925  1
  O  O262  1  0.25454158  0.86454777  0.50529122  1
  O  O263  1  0.75546709  0.37342045  0.00764091  1
  O  O264  1  0.75862964  0.36584614  0.50090227  1
  O  O265  1  0.74317548  0.86716320  0.00677058  1
  O  O266  1  0.76905543  0.89051586  0.52555565  1
  O  O267  1  0.11981403  0.49306101  0.23413527  1
  O  O268  1  0.12583408  0.49906345  0.73414542  1
  O  O269  1  0.12177271  0.99223487  0.23707337  1
  O  O270  1  0.13599744  1.00291401  0.74455609  1
  O  O271  1  0.62921461  0.48870989  0.24260678  1
  O  O272  1  0.63581328  0.50102360  0.74181341  1
  O  O273  1  0.64070568  0.99626824  0.25229537  1
  O  O274  1  0.63944606  1.00277236  0.76253029  1
  O  O275  1  0.37250946  0.00053744  0.25043096  1
  O  O276  1  0.35954058  0.00913932  0.75196630  1
  O  O277  1  0.38033846  0.51345358  0.24794633  1
  O  O278  1  0.37946219  0.50821001  0.75034316  1
  O  O279  1  0.86653869  0.00794137  0.25470634  1
  O  O280  1  0.86889355  0.00751309  0.76110822  1
  O  O281  1  0.85758269  0.50649496  0.24727158  1
  O  O282  1  0.87214440  0.50693202  0.75245449  1
  O  O283  1  0.10936479  0.37522866  0.37199480  1
  O  O284  1  0.11847478  0.36604159  0.88711023  1
  O  O285  1  0.12339580  0.87989986  0.36099268  1
  O  O286  1  0.11907254  0.86633814  0.87520366  1
  O  O287  1  0.61514403  0.37416020  0.36811263  1
  O  O288  1  0.62196313  0.36481851  0.87601606  1
  O  O289  1  0.60872720  0.88729241  0.35897068  1
  O  O290  1  0.61651239  0.86432559  0.87765700  1
  O  O291  1  0.38135765  0.13521608  0.12367283  1
  O  O292  1  0.37906515  0.13415135  0.63850068  1
  O  O293  1  0.37612389  0.63505850  0.12949954  1
  O  O294  1  0.38597381  0.61716627  0.63143919  1
  O  O295  1  0.88458506  0.12704527  0.13276611  1
  O  O296  1  0.88144451  0.11919881  0.63793233  1
  O  O297  1  0.88226757  0.63943200  0.11762159  1
  O  O298  1  0.87283072  0.63984117  0.63232980  1
  O  O299  1  0.26891255  0.25696397  0.12272763  1
  O  O300  1  0.26088389  0.24668526  0.61469874  1
  O  O301  1  0.25695316  0.75242487  0.11765460  1
  O  O302  1  0.24009715  0.75678425  0.60973351  1
  O  O303  1  0.75274633  0.26502695  0.12124032  1
  O  O304  1  0.74883340  0.25185030  0.61544272  1
  O  O305  1  0.75551660  0.75553539  0.11678137  1
  O  O306  1  0.75739284  0.76223199  0.63298821  1
  O  O307  1  0.24443490  0.24607642  0.38384632  1
  O  O308  1  0.24935508  0.23301121  0.88831521  1
  O  O309  1  0.24847736  0.73924954  0.39026966  1
  O  O310  1  0.24206982  0.74526652  0.88194164  1
  O  O311  1  0.74924744  0.23724517  0.38162796  1
  O  O312  1  0.74470041  0.24799280  0.87922438  1
  O  O313  1  0.73263027  0.82135646  0.38963316  1
  O  O314  1  0.74414753  0.74925512  0.87788917  1
  O  O315  1  0.00936980  0.11592404  0.00453028  1
  O  O316  1  0.00299522  0.12419111  0.50931738  1
  O  O317  1  0.00489429  0.62220576  0.00913895  1
  O  O318  1  0.00162151  0.63670232  0.47729754  1
  O  O319  1  0.51824117  0.12521752  -0.00313336  1
  O  O320  1  0.51913208  0.12570702  0.50147254  1
  O  O321  1  0.51337831  0.63325656  -0.00165316  1
  O  O322  1  0.50320268  0.61824773  0.50609142  1
  O  O323  1  0.50032067  0.37973197  0.49285508  1
  O  O324  1  0.49078709  0.37168541  0.99214416  1
  O  O325  1  0.48821004  0.86596838  0.48820914  1
  O  O326  1  0.49282233  0.87049515  0.99075079  1
  O  O327  1  0.98388663  0.37485584  0.49561935  1
  O  O328  1  0.99542918  0.37870776  0.99299948  1
  O  O329  1  0.99261548  0.88263763  0.50410338  1
  O  O330  1  1.00461015  0.89038759  0.99106124  1
  O  O331  1  0.49624849  0.49076771  0.38245955  1
  O  O332  1  0.51288055  0.48619704  0.87069214  1
  O  O333  1  0.49340671  0.98789378  0.37107747  1
  O  O334  1  0.50504098  0.98615346  0.88039098  1
  O  O335  1  0.99728605  0.48553622  0.38169497  1
  O  O336  1  0.99941424  0.49187620  0.88078123  1
  O  O337  1  0.99511506  1.00015443  0.38363905  1
  O  O338  1  0.99596654  0.99771490  0.88175738  1
  O  O339  1  0.00381642  0.00663342  0.11751025  1
  O  O340  1  0.00583108  0.01135382  0.62320754  1
  O  O341  1  0.00328206  0.50807278  0.11944671  1
  O  O342  1  0.00741659  0.51499325  0.61591141  1
  O  O343  1  0.50427779  0.00116366  0.11612295  1
  O  O344  1  0.49943199  -0.00387538  0.63489160  1
  O  O345  1  0.51544858  0.50114439  0.12846154  1
  O  O346  1  0.50700035  0.50414254  0.61884844  1
  O  O347  1  0.25640284  0.37474517  0.23484847  1
  O  O348  1  0.22067433  0.31700362  0.77068505  1
  O  O349  1  0.24056107  0.86960037  0.24265722  1
  O  O350  1  0.25016331  0.88146101  0.74335703  1
  O  O351  1  0.74420209  0.37880860  0.24486717  1
  O  O352  1  0.75135803  0.38803560  0.74949728  1
  O  O353  1  0.74526199  0.88200753  0.24008121  1
  O  O354  1  0.75343704  0.88205022  0.74072751  1
  O  O355  1  0.25348181  0.11946809  0.24970931  1
  O  O356  1  0.25739822  0.12058203  0.75922315  1
  O  O357  1  0.25957220  0.63330451  0.26093180  1
  O  O358  1  0.26393471  0.63196288  0.76033718  1
  O  O359  1  0.75475262  0.11995804  0.25701808  1
  O  O360  1  0.75643134  0.11930445  0.75488908  1
  O  O361  1  0.73803268  0.61177446  0.24612956  1
  O  O362  1  0.75590681  0.61597607  0.75399148  1
  O  O363  1  0.37458758  0.12390551  0.37166935  1
  O  O364  1  0.37018489  0.12910857  0.86629903  1
  O  O365  1  0.36753763  0.62202136  0.36647984  1
  O  O366  1  0.36682682  0.62590238  0.86805844  1
  O  O367  1  0.87121547  0.12046638  0.36964925  1
  O  O368  1  0.87168586  0.11944829  0.86722025  1
  O  O369  1  0.82228218  0.69203214  0.36985319  1
  O  O370  1  0.86924590  0.62096206  0.86920195  1
  O  O371  1  0.13876734  0.38273864  0.11831801  1
  O  O372  1  0.10322625  0.39028226  0.63164600  1
  O  O373  1  0.12763662  0.88287047  0.12888910  1
  O  O374  1  0.13483734  0.88406950  0.62802076  1
  O  O375  1  0.63179296  0.38059816  0.12982502  1
  O  O376  1  0.62782007  0.38751680  0.62641720  1
  O  O377  1  0.63807437  0.86968515  0.13518007  1
  O  O378  1  0.64070062  0.86654182  0.61968230  1
  O  O379  1  0.12376222  0.25870731  0.24687329  1
  O  O380  1  0.10286795  0.22867939  0.76078201  1
  O  O381  1  0.11099475  0.76081173  0.23752710  1
  O  O382  1  0.13030717  0.75110759  0.76308943  1
  O  O383  1  0.62080504  0.26268704  0.25136492  1
  O  O384  1  0.62111621  0.25018874  0.75745810  1
  O  O385  1  0.61589993  0.75775722  0.24737185  1
  O  O386  1  0.61683025  0.74073648  0.75980066  1
  O  O387  1  0.38545143  0.24967103  0.23763468  1
  O  O388  1  0.38485921  0.24333453  0.74693652  1
  O  O389  1  0.38093703  0.74334837  0.24230198  1
  O  O390  1  0.38819933  0.74212537  0.75222499  1
  O  O391  1  0.86828298  0.23569276  0.24946312  1
  O  O392  1  0.88500160  0.23998335  0.75699159  1
  O  O393  1  0.89152643  0.75997627  0.23607162  1
  O  O394  1  0.87477730  0.74151128  0.74060528  1
  O  O395  1  0.38629753  0.49683377  0.50198741  1
  O  O396  1  0.38256466  0.49055865  1.00621649  1
  O  O397  1  0.36785295  0.98734456  0.50260286  1
  O  O398  1  0.37405196  0.98423295  1.00227255  1
  O  O399  1  0.87295118  0.49080550  0.50069670  1
  O  O400  1  0.88031217  0.49744096  0.99446348  1
  O  O401  1  0.88359365  0.99645098  0.49747578  1
  O  O402  1  0.88377349  1.00887793  0.98767063  1
  O  O403  1  0.11823365  0.00631760  0.00973705  1
  O  O404  1  0.11936059  0.00742272  0.50778034  1
  O  O405  1  0.11790832  0.50626001  0.00910095  1
  O  O406  1  0.11870295  0.50485999  0.51127500  1
  O  O407  1  0.63257851  0.01772190  -0.00690152  1
  O  O408  1  0.63726808  0.00874265  0.49334694  1
  O  O409  1  0.63241297  0.51114394  0.00754204  1
  O  O410  1  0.61414641  0.50424307  0.50606912  1
  O  O411  1  0.37575591  0.36878469  0.11564362  1
  O  O412  1  0.38177209  0.35920323  0.62627592  1
  O  O413  1  0.37025712  0.86312129  0.11857449  1
  O  O414  1  0.35919998  0.87095299  0.61765296  1
  O  O415  1  0.86849644  0.37619225  0.11963535  1
  O  O416  1  0.87646222  0.37702445  0.61030861  1
  O  O417  1  0.86397269  0.86502493  0.12325693  1
  O  O418  1  0.87277121  0.86483107  0.62812092  1
  O  O419  1  0.11974016  0.12816491  0.39042473  1
  O  O420  1  0.13623569  0.13253658  0.88152024  1
  O  O421  1  0.12727182  0.62638982  0.36724689  1
  O  O422  1  0.13114270  0.63116511  0.88109180  1
  O  O423  1  0.63505720  0.12516375  0.38512286  1
  O  O424  1  0.63366130  0.13738153  0.88326281  1
  O  O425  1  0.61638905  0.61850901  0.39060802  1
  O  O426  1  0.63174664  0.63263556  0.87908209  1
