# generated using pymatgen
data_V85Zn86O256
_symmetry_space_group_name_H-M   'P 1'
_cell_length_a   16.91430583
_cell_length_b   16.90829667
_cell_length_c   16.91232585
_cell_angle_alpha   89.90802688
_cell_angle_beta   90.00816409
_cell_angle_gamma   90.04523314
_symmetry_Int_Tables_number   1
_chemical_formula_structural   V85Zn86O256
_chemical_formula_sum   'V85 Zn86 O256'
_cell_volume   4836.78381300
_cell_formula_units_Z   1
loop_
 _symmetry_equiv_pos_site_id
 _symmetry_equiv_pos_as_xyz
  1  'x, y, z'
loop_
 _atom_site_type_symbol
 _atom_site_label
 _atom_site_symmetry_multiplicity
 _atom_site_fract_x
 _atom_site_fract_y
 _atom_site_fract_z
 _atom_site_occupancy
  V  V0  1  0.87650047  0.63206199  0.24996998  1
  V  V1  1  0.24676400  0.12008656  0.86947904  1
  V  V2  1  -0.01416095  0.12632732  0.62734673  1
  V  V3  1  0.49546157  0.63242322  0.62346376  1
  V  V4  1  0.75011730  0.87885656  0.62196530  1
  V  V5  1  0.25027177  -0.00470778  0.25260797  1
  V  V6  1  0.12152610  0.12206104  0.00005034  1
  V  V7  1  0.12626367  0.24977226  0.37595624  1
  V  V8  1  -0.00015180  0.50055753  0.00019933  1
  V  V9  1  0.50304582  0.87635529  0.37534227  1
  V  V10  1  0.51290210  0.00196994  0.50440999  1
  V  V11  1  0.87635601  0.75173761  0.62349073  1
  V  V12  1  0.12738667  0.38559094  0.74566801  1
  V  V13  1  0.12344858  0.12108269  0.50380186  1
  V  V14  1  0.87355331  0.37483045  0.00101572  1
  V  V15  1  0.12426530  -0.00683022  0.13010076  1
  V  V16  1  0.37048943  0.50876153  0.37801515  1
  V  V17  1  0.75821349  0.75524264  0.49778998  1
  V  V18  1  0.74598984  0.24365188  0.50667437  1
  V  V19  1  -0.00481441  0.12212430  0.13455697  1
  V  V20  1  0.24956705  0.62169782  0.87268511  1
  V  V21  1  0.00098378  0.62598549  0.12543282  1
  V  V22  1  0.50129278  0.50182594  0.50169730  1
  V  V23  1  0.00020464  0.37375813  0.87352661  1
  V  V24  1  0.74551503  0.37746983  0.12877907  1
  V  V25  1  0.37804710  0.87006186  0.50556136  1
  V  V26  1  0.62899675  0.38037625  0.75888611  1
  V  V27  1  0.74924300  0.38084424  0.62728963  1
  V  V28  1  0.24888168  0.74725127  0.48213877  1
  V  V29  1  0.87571623  -0.00053169  0.36966846  1
  V  V30  1  0.63116764  0.87915501  0.24461035  1
  V  V31  1  0.01241489  0.87188416  0.37461916  1
  V  V32  1  0.25226324  0.87000225  0.12527492  1
  V  V33  1  0.12657076  0.75060553  0.87667021  1
  V  V34  1  0.62041336  0.00790751  0.10976046  1
  V  V35  1  0.13004038  0.62477109  0.49544448  1
  V  V36  1  0.24905329  0.39055327  0.62771067  1
  V  V37  1  -0.00723362  0.87199579  0.87917706  1
  V  V38  1  0.49874214  0.24196037  0.25105780  1
  V  V39  1  0.37213526  0.37599927  0.00064006  1
  V  V40  1  0.87226025  0.24483535  0.13612449  1
  V  V41  1  0.51894445  0.12434425  0.62031101  1
  V  V42  1  0.74815805  0.00592136  0.74490407  1
  V  V43  1  0.62089331  0.62041440  0.01946801  1
  V  V44  1  0.74717240  0.50046119  0.24736618  1
  V  V45  1  0.87541360  0.50150988  0.37760551  1
  V  V46  1  0.37995343  0.00299572  0.37168162  1
  V  V47  1  0.25054823  0.86437818  0.62757297  1
  V  V48  1  0.37053587  0.62688330  0.74643418  1
  V  V49  1  0.50274859  0.25105395  0.74220126  1
  V  V50  1  0.75220623  0.01392141  0.24590789  1
  V  V51  1  -0.00999218  -0.00572717  0.00424140  1
  V  V52  1  0.62882247  0.62663475  0.50186365  1
  V  V53  1  0.62683791  0.87258880  0.74883000  1
  V  V54  1  0.57748852  0.18869904  0.93275531  1
  V  V55  1  0.73648134  0.62439050  0.86777911  1
  V  V56  1  0.01570290  0.75421952  0.25296087  1
  V  V57  1  0.37999143  -0.00094831  0.87728074  1
  V  V58  1  0.62860980  0.75373042  0.37438909  1
  V  V59  1  -0.00159860  0.74907487  0.74929036  1
  V  V60  1  0.87426819  0.36756444  0.50668937  1
  V  V61  1  -0.00048249  0.37394138  0.37557702  1
  V  V62  1  0.50698049  0.37610231  0.37174404  1
  V  V63  1  0.75078685  0.24561373  -0.00103181  1
  V  V64  1  0.50203569  0.75003599  0.75266419  1
  V  V65  1  0.37385202  0.49914693  0.87151952  1
  V  V66  1  0.50425872  0.87547719  0.88073923  1
  V  V67  1  0.37313076  0.12775526  0.73512148  1
  V  V68  1  0.75762438  0.13090023  0.87086915  1
  V  V69  1  0.24498971  0.50325302  0.25385366  1
  V  V70  1  0.75135999  0.75242712  -0.00252194  1
  V  V71  1  -0.01169117  0.24662348  0.74527115  1
  V  V72  1  0.37697852  0.62423188  0.24034584  1
  V  V73  1  0.25631804  0.12669535  0.37161096  1
  V  V74  1  0.86898623  0.50203956  0.86706463  1
  V  V75  1  0.87509455  0.00069133  0.86934438  1
  V  V76  1  0.00540113  0.50004607  0.51056185  1
  V  V77  1  0.36887064  0.24031783  0.13303588  1
  V  V78  1  -0.00760993  -0.00751070  0.50233616  1
  V  V79  1  0.62511209  0.24133433  0.37586980  1
  V  V80  1  0.50403271  0.74641263  0.24103722  1
  V  V81  1  0.12275207  0.24930594  0.87106492  1
  V  V82  1  0.25445677  0.24735956  0.51230827  1
  V  V83  1  0.37824005  0.37230129  0.50598439  1
  V  V84  1  0.24452607  0.24861666  0.00129225  1
  Zn  Zn85  1  0.75675634  0.12769069  0.37655082  1
  Zn  Zn86  1  0.12529624  0.87675604  0.75086470  1
  Zn  Zn87  1  0.87962941  0.76247756  0.11788272  1
  Zn  Zn88  1  0.24306257  0.37339678  0.12777009  1
  Zn  Zn89  1  0.62849085  0.50391656  0.63056424  1
  Zn  Zn90  1  0.12728153  0.62471727  0.00128532  1
  Zn  Zn91  1  0.50092232  0.37590565  0.87631787  1
  Zn  Zn92  1  0.57938292  0.44142423  0.19108182  1
  Zn  Zn93  1  0.25576588  0.75141329  -0.00198268  1
  Zn  Zn94  1  -0.00445652  0.24427873  0.25617896  1
  Zn  Zn95  1  0.24963073  -0.00181270  0.74353572  1
  Zn  Zn96  1  0.12440081  0.37487305  0.25069606  1
  Zn  Zn97  1  0.12343567  0.49613486  0.12712725  1
  Zn  Zn98  1  0.86875407  0.62136567  0.74648491  1
  Zn  Zn99  1  0.75748945  0.88151581  0.11515081  1
  Zn  Zn100  1  0.38020242  0.87681390  0.00160320  1
  Zn  Zn101  1  0.49864469  0.50532156  0.01489191  1
  Zn  Zn102  1  0.75280731  0.62753856  0.37520875  1
  Zn  Zn103  1  0.49795314  0.12191723  0.11908219  1
  Zn  Zn104  1  0.12479843  -0.00401544  0.62621087  1
  Zn  Zn105  1  0.00641141  0.62316448  0.62788082  1
  Zn  Zn106  1  0.38414896  0.74904254  0.11802288  1
  Zn  Zn107  1  0.18438754  0.18200707  0.19143322  1
  Zn  Zn108  1  0.18070147  0.18989932  0.68778065  1
  Zn  Zn109  1  0.18980902  0.68214275  0.19032121  1
  Zn  Zn110  1  0.18672042  0.68700730  0.68423994  1
  Zn  Zn111  1  0.67937596  0.19061862  0.18795883  1
  Zn  Zn112  1  0.69042546  0.19554294  0.69221676  1
  Zn  Zn113  1  0.69297399  0.69060454  0.18510669  1
  Zn  Zn114  1  0.68646657  0.69044507  0.68734287  1
  Zn  Zn115  1  0.31452965  0.31717405  0.31688645  1
  Zn  Zn116  1  0.31305062  0.31024035  0.80846102  1
  Zn  Zn117  1  0.31848113  0.81520029  0.30876945  1
  Zn  Zn118  1  0.31746742  0.80853222  0.81184868  1
  Zn  Zn119  1  0.80946650  0.31435445  0.31527858  1
  Zn  Zn120  1  0.81069865  0.31473368  0.81301860  1
  Zn  Zn121  1  0.81841640  0.81952268  0.31187881  1
  Zn  Zn122  1  0.81123646  0.80957424  0.81394109  1
  Zn  Zn123  1  0.18796253  0.43841484  0.44048378  1
  Zn  Zn124  1  0.18750411  0.43863368  0.93526525  1
  Zn  Zn125  1  0.18842216  0.93701603  0.44114512  1
  Zn  Zn126  1  0.18454737  0.93646283  0.93957611  1
  Zn  Zn127  1  0.68842918  0.43690653  0.43819389  1
  Zn  Zn128  1  0.68591596  0.44108891  0.94096374  1
  Zn  Zn129  1  0.69263332  0.93840888  0.43516424  1
  Zn  Zn130  1  0.68652468  0.93826490  0.93100580  1
  Zn  Zn131  1  0.31153969  0.05968168  0.05985838  1
  Zn  Zn132  1  0.31389671  0.05460124  0.55849197  1
  Zn  Zn133  1  0.30884446  0.56131405  0.06243297  1
  Zn  Zn134  1  0.31247026  0.56776785  0.56082288  1
  Zn  Zn135  1  0.81064004  0.06336397  0.05992566  1
  Zn  Zn136  1  0.81302048  0.06124885  0.55927100  1
  Zn  Zn137  1  0.81244686  0.56589719  0.06035079  1
  Zn  Zn138  1  0.81509445  0.56308952  0.56360952  1
  Zn  Zn139  1  0.41848815  0.42988459  0.18922240  1
  Zn  Zn140  1  0.43883775  0.44170650  0.68747087  1
  Zn  Zn141  1  0.44078358  0.93805321  0.18707810  1
  Zn  Zn142  1  0.43607320  0.94049396  0.68777345  1
  Zn  Zn143  1  0.93378734  0.43728462  0.18960107  1
  Zn  Zn144  1  0.93655840  0.43188839  0.68834429  1
  Zn  Zn145  1  0.93360635  0.93269059  0.19198329  1
  Zn  Zn146  1  0.93498964  0.93484051  0.68785931  1
  Zn  Zn147  1  0.06573484  0.05847983  0.31512983  1
  Zn  Zn148  1  0.06170441  0.05896126  0.80773825  1
  Zn  Zn149  1  0.06305584  0.56538342  0.31755390  1
  Zn  Zn150  1  0.06051422  0.56427797  0.81314051  1
  Zn  Zn151  1  0.56521435  0.06328441  0.31029911  1
  Zn  Zn152  1  0.56227228  0.05552334  0.80133604  1
  Zn  Zn153  1  0.56082280  0.56883650  0.31809604  1
  Zn  Zn154  1  0.55588732  0.55916910  0.81569381  1
  Zn  Zn155  1  0.43922723  0.18811324  0.44200683  1
  Zn  Zn156  1  0.41647098  0.18930621  0.93309328  1
  Zn  Zn157  1  0.43775417  0.69110963  0.43369849  1
  Zn  Zn158  1  0.44083688  0.68941170  0.93812589  1
  Zn  Zn159  1  0.93551111  0.18426943  0.44021373  1
  Zn  Zn160  1  0.93624164  0.18578277  0.94078429  1
  Zn  Zn161  1  0.94298342  0.68783610  0.43843271  1
  Zn  Zn162  1  0.93304491  0.68408852  0.93563647  1
  Zn  Zn163  1  0.06019452  0.31154683  0.06521135  1
  Zn  Zn164  1  0.06501295  0.31084896  0.56441853  1
  Zn  Zn165  1  0.06326828  0.81221843  0.06275124  1
  Zn  Zn166  1  0.06714134  0.80945283  0.55910646  1
  Zn  Zn167  1  0.55433656  0.31696505  0.06749031  1
  Zn  Zn168  1  0.56654974  0.31192939  0.56517806  1
  Zn  Zn169  1  0.57419528  0.81119570  0.05917061  1
  Zn  Zn170  1  0.56677082  0.81310030  0.56574489  1
  O  O171  1  0.11808318  0.11382237  0.12013171  1
  O  O172  1  0.12232358  0.12294754  0.61235868  1
  O  O173  1  0.11281580  0.62124944  0.12319309  1
  O  O174  1  0.12174641  0.63301505  0.60823632  1
  O  O175  1  0.62094043  0.11321920  0.12430279  1
  O  O176  1  0.61715758  0.12594708  0.62836070  1
  O  O177  1  0.62808754  0.62135149  0.11887942  1
  O  O178  1  0.62036480  0.62521010  0.61504949  1
  O  O179  1  0.38541884  0.38339855  0.38719595  1
  O  O180  1  0.37251797  0.38129536  0.87988041  1
  O  O181  1  0.38422414  0.88159650  0.38319418  1
  O  O182  1  0.38457734  0.88281626  0.87209667  1
  O  O183  1  0.88136178  0.38122107  0.38296626  1
  O  O184  1  0.87825134  0.38206849  0.88189414  1
  O  O185  1  0.88666080  0.89066705  0.37224078  1
  O  O186  1  0.88538619  0.88083035  0.87321684  1
  O  O187  1  0.25736712  0.00464652  0.37140963  1
  O  O188  1  0.25236801  0.00946869  0.87228834  1
  O  O189  1  0.26128372  0.49495660  0.37150684  1
  O  O190  1  0.26086822  0.50850471  0.87748139  1
  O  O191  1  0.75791063  0.00275087  0.36654701  1
  O  O192  1  0.75732234  0.00841254  0.86893139  1
  O  O193  1  0.76303132  0.49991246  0.37127047  1
  O  O194  1  0.75727009  0.51237822  0.88094175  1
  O  O195  1  0.24578355  0.49785038  0.13640378  1
  O  O196  1  0.24982167  0.48910615  0.62064263  1
  O  O197  1  0.24459696  0.99526366  0.13280004  1
  O  O198  1  0.24850857  0.98222330  0.61983446  1
  O  O199  1  0.75892223  0.49130804  0.13467514  1
  O  O200  1  0.74819811  0.48727144  0.62016571  1
  O  O201  1  0.74081148  1.00298405  0.12970888  1
  O  O202  1  0.75953097  0.99168126  0.63247000  1
  O  O203  1  -0.00181442  0.37294135  0.26552386  1
  O  O204  1  0.00790480  0.36735982  0.75418870  1
  O  O205  1  0.00046475  0.86746034  0.26211767  1
  O  O206  1  0.00022132  0.86423336  0.75786726  1
  O  O207  1  0.49840448  0.36898190  0.25937445  1
  O  O208  1  0.50557078  0.36741532  0.75243206  1
  O  O209  1  0.51382958  0.87173259  0.25476134  1
  O  O210  1  0.50674674  0.86873646  0.74860320  1
  O  O211  1  0.49939319  0.13837046  0.25065186  1
  O  O212  1  0.49573788  0.12910620  0.73676152  1
  O  O213  1  0.49315129  0.63519646  0.25396140  1
  O  O214  1  0.49672841  0.63193385  0.74342301  1
  O  O215  1  1.00520981  0.12347113  0.23847746  1
  O  O216  1  1.00556113  0.13342958  0.73923358  1
  O  O217  1  0.99485355  0.63088804  0.24531487  1
  O  O218  1  0.99744598  0.63736556  0.74892049  1
  O  O219  1  0.36152237  0.25521639  0.00591847  1
  O  O220  1  0.36655902  0.26093842  0.49537083  1
  O  O221  1  0.37408257  0.75590317  0.00220289  1
  O  O222  1  0.36543353  0.75815865  0.49427678  1
  O  O223  1  0.86701988  0.25471313  0.00872131  1
  O  O224  1  0.86669270  0.26205868  0.49328792  1
  O  O225  1  0.85707430  0.73859686  0.00116330  1
  O  O226  1  0.86528780  0.74575267  0.50561877  1
  O  O227  1  0.13255745  0.24296682  0.49225292  1
  O  O228  1  0.12594844  0.24319811  0.99239330  1
  O  O229  1  0.14165186  0.74566877  0.49709985  1
  O  O230  1  0.12486670  0.74756399  0.98699006  1
  O  O231  1  0.63501828  0.25644747  0.49101465  1
  O  O232  1  0.62922236  0.25313808  0.99615695  1
  O  O233  1  0.63630870  0.74579908  0.49657393  1
  O  O234  1  0.63809406  0.73355281  1.00269845  1
  O  O235  1  0.49033840  0.24712299  0.13448254  1
  O  O236  1  0.50162476  0.23675274  0.62905147  1
  O  O237  1  0.50428873  0.75952976  0.13796144  1
  O  O238  1  0.50357192  0.73953244  0.63172136  1
  O  O239  1  0.99043968  0.23991531  0.12760796  1
  O  O240  1  1.00468964  0.24011961  0.63256659  1
  O  O241  1  0.99967552  0.74361680  0.13278146  1
  O  O242  1  0.99293227  0.75364200  0.63179363  1
  O  O243  1  0.00727715  0.25522484  0.37808986  1
  O  O244  1  0.00389535  0.25394932  0.87045119  1
  O  O245  1  -0.00413375  0.76445382  0.36982880  1
  O  O246  1  0.00244185  0.75477600  0.87066728  1
  O  O247  1  0.50423290  0.25617027  0.37117856  1
  O  O248  1  0.50952097  0.24247917  0.87161362  1
  O  O249  1  0.50864435  0.75811166  0.36600787  1
  O  O250  1  0.49713033  0.75932093  0.86053854  1
  O  O251  1  0.24531804  0.12935125  0.49344574  1
  O  O252  1  0.24189255  0.12769937  0.99047415  1
  O  O253  1  0.24660224  0.63794731  0.49843079  1
  O  O254  1  0.24791032  0.62786691  0.98761583  1
  O  O255  1  0.75436954  0.13940934  0.49954065  1
  O  O256  1  0.75047331  0.13786520  0.99108716  1
  O  O257  1  0.74402866  0.63283593  0.49889608  1
  O  O258  1  0.73945946  0.62815320  0.99295287  1
  O  O259  1  0.25569490  0.36753161  -0.00078850  1
  O  O260  1  0.25568456  0.36842086  0.50980786  1
  O  O261  1  0.25221476  0.87561874  0.01086516  1
  O  O262  1  0.25711124  0.86567691  0.50428986  1
  O  O263  1  0.75368669  0.36584795  0.00491563  1
  O  O264  1  0.75699852  0.36930452  0.50642543  1
  O  O265  1  0.74131624  0.85622465  -0.00868886  1
  O  O266  1  0.74684723  0.86736844  0.50882780  1
  O  O267  1  0.13201008  0.49964183  0.25392650  1
  O  O268  1  0.11933972  0.48510236  0.75466899  1
  O  O269  1  0.13636583  1.00362492  0.24178716  1
  O  O270  1  0.13076387  0.99466881  0.74512367  1
  O  O271  1  0.64174660  0.50539919  0.26226396  1
  O  O272  1  0.61665382  0.48445398  0.74889693  1
  O  O273  1  0.63289561  0.99488668  0.24404698  1
  O  O274  1  0.64088478  0.99240612  0.74727895  1
  O  O275  1  0.37155116  -0.00334901  0.26423883  1
  O  O276  1  0.37022403  0.00954783  0.75713686  1
  O  O277  1  0.36797301  0.50679134  0.25933628  1
  O  O278  1  0.38074964  0.51347003  0.75836770  1
  O  O279  1  0.86365591  0.00059935  0.25527220  1
  O  O280  1  0.86589188  -0.00413575  0.76155785  1
  O  O281  1  0.87015745  0.51069820  0.25823096  1
  O  O282  1  0.87975288  0.49919481  0.76298641  1
  O  O283  1  0.11707485  0.36615301  0.37847593  1
  O  O284  1  0.12066179  0.36854124  0.86823752  1
  O  O285  1  0.11176300  0.88175617  0.37462817  1
  O  O286  1  0.11385652  0.86805687  0.87390643  1
  O  O287  1  0.61116706  0.36980005  0.38197020  1
  O  O288  1  0.62333135  0.37822735  0.86354677  1
  O  O289  1  0.62207591  0.87214474  0.36672315  1
  O  O290  1  0.61793957  0.88077466  0.85881341  1
  O  O291  1  0.37786988  0.13568559  0.11661142  1
  O  O292  1  0.37447999  0.12157913  0.63329331  1
  O  O293  1  0.37286942  0.62704447  0.13646461  1
  O  O294  1  0.38340251  0.62181814  0.63266840  1
  O  O295  1  0.88292491  0.13238628  0.11987364  1
  O  O296  1  0.88671718  0.12489473  0.62124793  1
  O  O297  1  0.88636287  0.62626357  0.13318090  1
  O  O298  1  0.87772171  0.63685423  0.62758063  1
  O  O299  1  0.25171907  0.24562857  0.12144749  1
  O  O300  1  0.24759893  0.25361500  0.61407177  1
  O  O301  1  0.24791042  0.76240578  0.12763858  1
  O  O302  1  0.25214095  0.76114282  0.61452117  1
  O  O303  1  0.75483745  0.25289279  0.11960081  1
  O  O304  1  0.74411967  0.26366587  0.61696060  1
  O  O305  1  0.75417645  0.75300576  0.11116404  1
  O  O306  1  0.75659572  0.75612149  0.61787303  1
  O  O307  1  0.24553036  0.24373944  0.38275323  1
  O  O308  1  0.24471425  0.23800439  0.87811967  1
  O  O309  1  0.25307754  0.75608594  0.38360176  1
  O  O310  1  0.24152545  0.74510242  0.87486272  1
  O  O311  1  0.74141820  0.25042835  0.38178934  1
  O  O312  1  0.75369646  0.24158838  0.88244120  1
  O  O313  1  0.74829936  0.75274483  0.38177782  1
  O  O314  1  0.75328252  0.73391601  0.88300018  1
  O  O315  1  0.00354196  0.11621072  0.00985187  1
  O  O316  1  0.00727780  0.11768704  0.50677749  1
  O  O317  1  -0.00065185  0.61752119  0.00751560  1
  O  O318  1  0.00622508  0.61597371  0.50380755  1
  O  O319  1  0.50957887  0.13888387  -0.00998194  1
  O  O320  1  0.49846059  0.11858420  0.51335252  1
  O  O321  1  0.51676716  0.62672097  -0.00104566  1
  O  O322  1  0.50684240  0.62578802  0.50554896  1
  O  O323  1  0.49337948  0.37976061  0.49904754  1
  O  O324  1  0.48213340  0.36804163  0.99435211  1
  O  O325  1  0.49495272  0.87892695  0.49901072  1
  O  O326  1  0.50630057  0.86963253  0.98386486  1
  O  O327  1  0.99486691  0.37840940  0.49425267  1
  O  O328  1  0.99359549  0.38018076  0.99406045  1
  O  O329  1  1.00420189  0.88012137  0.48929780  1
  O  O330  1  1.00315733  0.88344824  0.99223777  1
  O  O331  1  0.49504446  0.49359503  0.38167114  1
  O  O332  1  0.48493415  0.49795242  0.88345487  1
  O  O333  1  0.49639379  0.99722862  0.38027072  1
  O  O334  1  0.49183287  0.98990624  0.86443112  1
  O  O335  1  0.99107753  0.49265288  0.38285602  1
  O  O336  1  0.99230633  0.49521479  0.88234352  1
  O  O337  1  0.99688809  0.99176330  0.38018196  1
  O  O338  1  0.99301982  0.99347778  0.88024315  1
  O  O339  1  0.00469905  0.00273994  0.12094676  1
  O  O340  1  -0.00006018  0.00325918  0.61846850  1
  O  O341  1  -0.00245661  0.50605406  0.11816848  1
  O  O342  1  -0.00451906  0.49852379  0.61354262  1
  O  O343  1  0.51414372  0.00292802  0.12563836  1
  O  O344  1  0.49764871  0.01397029  0.61887813  1
  O  O345  1  0.49762020  0.47971175  0.12635146  1
  O  O346  1  0.50304196  0.51361673  0.61831171  1
  O  O347  1  0.24936424  0.38812448  0.25246038  1
  O  O348  1  0.24563673  0.36931589  0.73463511  1
  O  O349  1  0.25507892  0.88758269  0.24364052  1
  O  O350  1  0.25361300  0.87127321  0.73655005  1
  O  O351  1  0.75744293  0.38660038  0.24157105  1
  O  O352  1  0.73655258  0.37036525  0.74486832  1
  O  O353  1  0.73997087  0.88270858  0.24941657  1
  O  O354  1  0.74465229  0.88019398  0.74574115  1
  O  O355  1  0.24767417  0.11531105  0.26490692  1
  O  O356  1  0.25520914  0.12717746  0.75365763  1
  O  O357  1  0.25991659  0.61393485  0.25173529  1
  O  O358  1  0.25708449  0.63149125  0.76018930  1
  O  O359  1  0.74452319  0.11692972  0.25245795  1
  O  O360  1  0.74695252  0.11996764  0.75831136  1
  O  O361  1  0.76002912  0.62069661  0.25222685  1
  O  O362  1  0.74832426  0.62744582  0.76266606  1
  O  O363  1  0.36711223  0.11646328  0.38383654  1
  O  O364  1  0.36481745  0.11806025  0.86255847  1
  O  O365  1  0.38260576  0.61280216  0.36785331  1
  O  O366  1  0.36878761  0.61946957  0.86926476  1
  O  O367  1  0.87716599  0.10831427  0.37864799  1
  O  O368  1  0.86676241  0.11683902  0.87673347  1
  O  O369  1  0.87701725  0.61759725  0.36927737  1
  O  O370  1  0.86471062  0.61598015  0.87159221  1
  O  O371  1  0.12443492  0.37602155  0.13194233  1
  O  O372  1  0.13918901  0.37217038  0.62994720  1
  O  O373  1  0.13170227  0.88729264  0.12143115  1
  O  O374  1  0.13874670  0.87240463  0.62595361  1
  O  O375  1  0.64035423  0.36816821  0.12474849  1
  O  O376  1  0.63051972  0.37943181  0.63607786  1
  O  O377  1  0.63146757  0.88735480  0.12954516  1
  O  O378  1  0.63940793  0.87209188  0.63428548  1
  O  O379  1  0.12330676  0.24880947  0.26590162  1
  O  O380  1  0.11771280  0.25860387  0.75677557  1
  O  O381  1  0.11452806  0.74465452  0.25058420  1
  O  O382  1  0.11708416  0.75165155  0.76050440  1
  O  O383  1  0.61438837  0.25279789  0.26089061  1
  O  O384  1  0.61256538  0.26302956  0.74886383  1
  O  O385  1  0.62368664  0.75696716  0.25350655  1
  O  O386  1  0.61580184  0.75912051  0.74635508  1
  O  O387  1  0.38047742  0.25508716  0.24295692  1
  O  O388  1  0.39145597  0.24044885  0.75830359  1
  O  O389  1  0.38580031  0.74199587  0.24862167  1
  O  O390  1  0.38497800  0.73606373  0.75100264  1
  O  O391  1  0.87418781  0.25158880  0.24010191  1
  O  O392  1  0.88906906  0.25621485  0.75342115  1
  O  O393  1  0.88095953  0.73987225  0.25064415  1
  O  O394  1  0.88138333  0.74782319  0.74285699  1
  O  O395  1  0.38064804  0.49606204  0.49442140  1
  O  O396  1  0.37409370  0.49064043  0.99557867  1
  O  O397  1  0.38412408  0.99032490  0.48949338  1
  O  O398  1  0.37336369  1.00018511  0.98265069  1
  O  O399  1  0.88120423  0.49220769  0.49357454  1
  O  O400  1  0.88341616  0.49636960  0.99279972  1
  O  O401  1  0.88766957  0.99941433  0.49384967  1
  O  O402  1  0.88442057  1.00430580  0.98923008  1
  O  O403  1  0.11297816  0.00440749  0.00625954  1
  O  O404  1  0.11464186  0.00647877  0.50068349  1
  O  O405  1  0.11025462  0.50018080  -0.00114358  1
  O  O406  1  0.11719066  0.50835026  0.49704798  1
  O  O407  1  0.63089352  -0.00036109  0.01136591  1
  O  O408  1  0.61208956  -0.00594272  0.49605662  1
  O  O409  1  0.62209611  0.51429373  0.00039059  1
  O  O410  1  0.61998706  0.51075738  0.49947876  1
  O  O411  1  0.36390123  0.35894995  0.11586243  1
  O  O412  1  0.36586875  0.38083409  0.61551629  1
  O  O413  1  0.36729656  0.87592740  0.12321607  1
  O  O414  1  0.36794478  0.87832263  0.61299208  1
  O  O415  1  0.86737393  0.36613461  0.12015126  1
  O  O416  1  0.86649505  0.37630246  0.61656290  1
  O  O417  1  0.87121983  0.87639401  0.12047326  1
  O  O418  1  0.86393402  0.86212821  0.62935220  1
  O  O419  1  0.13137955  0.12926794  0.38645417  1
  O  O420  1  0.12954843  0.12791924  0.87765087  1
  O  O421  1  0.11687489  0.62916668  0.39386868  1
  O  O422  1  0.13248907  0.63145226  0.87493596  1
  O  O423  1  0.62599945  0.13791840  0.37601766  1
  O  O424  1  0.63111507  0.12280217  0.87397660  1
  O  O425  1  0.62806114  0.63458226  0.38744759  1
  O  O426  1  0.63537990  0.61972483  0.87532984  1
