# generated using pymatgen
data_V85Zn86O256
_symmetry_space_group_name_H-M   'P 1'
_cell_length_a   16.96745212
_cell_length_b   16.96306122
_cell_length_c   16.96733444
_cell_angle_alpha   90.03942193
_cell_angle_beta   90.00090121
_cell_angle_gamma   89.93034269
_symmetry_Int_Tables_number   1
_chemical_formula_structural   V85Zn86O256
_chemical_formula_sum   'V85 Zn86 O256'
_cell_volume   4883.53222640
_cell_formula_units_Z   1
loop_
 _symmetry_equiv_pos_site_id
 _symmetry_equiv_pos_as_xyz
  1  'x, y, z'
loop_
 _atom_site_type_symbol
 _atom_site_label
 _atom_site_symmetry_multiplicity
 _atom_site_fract_x
 _atom_site_fract_y
 _atom_site_fract_z
 _atom_site_occupancy
  V  V0  1  0.12922982  0.87248956  0.74163491  1
  V  V1  1  0.51071430  0.61866762  0.12965760  1
  V  V2  1  0.37922991  0.75335240  0.11955959  1
  V  V3  1  0.24549195  0.25159008  0.49826254  1
  V  V4  1  0.00097564  0.12294895  0.62410106  1
  V  V5  1  0.88047464  0.49732602  0.36410982  1
  V  V6  1  0.38697234  0.49094796  0.87839523  1
  V  V7  1  -0.00560313  0.75380921  0.74670109  1
  V  V8  1  0.87785625  -0.00264782  0.89022699  1
  V  V9  1  0.62423001  0.75430444  0.37595269  1
  V  V10  1  0.87251614  0.87184696  0.50518989  1
  V  V11  1  0.25699104  0.75401802  0.00160752  1
  V  V12  1  0.37305290  0.38075855  0.49801386  1
  V  V13  1  0.49496949  0.87838720  0.38302828  1
  V  V14  1  0.49626068  0.00365078  0.00392127  1
  V  V15  1  0.89169292  0.38711877  -0.00647291  1
  V  V16  1  0.75475658  0.74636054  0.50057222  1
  V  V17  1  0.86964685  0.00438525  0.37788756  1
  V  V18  1  0.25774904  0.87734399  0.12517113  1
  V  V19  1  0.87222130  0.62212552  0.76939011  1
  V  V20  1  0.49744121  0.75273892  0.74793038  1
  V  V21  1  0.49960847  0.49494361  0.49464732  1
  V  V22  1  0.62526875  -0.00490980  0.12515557  1
  V  V23  1  0.51560140  0.25431949  0.75319161  1
  V  V24  1  0.24405301  0.49993575  0.24879123  1
  V  V25  1  0.49644242  0.62495451  0.62031848  1
  V  V26  1  -0.00203780  0.49479339  0.49512346  1
  V  V27  1  0.74565216  0.24995959  0.48964248  1
  V  V28  1  -0.00278463  0.87302791  0.37689204  1
  V  V29  1  0.87216331  0.25505306  0.62687828  1
  V  V30  1  0.37522908  0.62058546  0.74876492  1
  V  V31  1  0.87892702  0.75060424  0.11247986  1
  V  V32  1  0.62647347  0.62066636  0.49428769  1
  V  V33  1  0.75277448  -0.00198892  0.75280138  1
  V  V34  1  0.36985073  0.00129101  0.37672491  1
  V  V35  1  -0.01068150  0.74789989  0.25169733  1
  V  V36  1  0.74499832  0.48084843  0.24253984  1
  V  V37  1  0.74662898  0.00081885  0.25414544  1
  V  V38  1  0.12844358  0.74932701  0.38226407  1
  V  V39  1  0.62441646  0.12451268  -0.00798448  1
  V  V40  1  0.50118765  0.12588373  0.62732583  1
  V  V41  1  0.75489322  0.62684614  0.35590573  1
  V  V42  1  0.36827418  0.24607291  0.12547719  1
  V  V43  1  0.25950283  0.62414577  0.88012967  1
  V  V44  1  0.36028079  0.75298829  0.62124569  1
  V  V45  1  0.49807135  0.87309668  0.88665532  1
  V  V46  1  -0.00213929  -0.00109844  0.50210983  1
  V  V47  1  0.37310422  -0.00468084  0.88160413  1
  V  V48  1  0.11712955  -0.00221803  0.11845168  1
  V  V49  1  0.11221823  0.12097657  -0.00327229  1
  V  V50  1  0.35508555  0.87292398  0.50528558  1
  V  V51  1  0.37500701  0.12738252  0.75049048  1
  V  V52  1  0.06725168  0.41752754  0.80697643  1
  V  V53  1  -0.01351728  0.62728832  0.62175344  1
  V  V54  1  0.52817489  0.14511892  0.16040501  1
  V  V55  1  0.62709698  -0.00189834  0.62707245  1
  V  V56  1  0.25042294  -0.00504630  0.74278514  1
  V  V57  1  0.00055948  0.87958855  0.88675933  1
  V  V58  1  0.75217687  0.85998104  0.62867217  1
  V  V59  1  0.11984553  0.25091314  0.87359042  1
  V  V60  1  0.38579574  0.37141233  0.00108459  1
  V  V61  1  0.24701074  0.12297495  0.87608063  1
  V  V62  1  0.87567141  0.12257791  0.75083115  1
  V  V63  1  0.62902692  0.12509686  0.49457493  1
  V  V64  1  0.12453064  0.87460093  0.25028289  1
  V  V65  1  0.74954386  0.25701355  0.01120356  1
  V  V66  1  0.37449524  0.62849427  0.25620402  1
  V  V67  1  0.00259608  0.25207262  0.74800848  1
  V  V68  1  0.24612554  0.37715321  0.12468458  1
  V  V69  1  0.36592228  0.12848566  0.25011447  1
  V  V70  1  0.25104779  0.49576842  0.75182905  1
  V  V71  1  0.87827752  0.12474629  0.24993068  1
  V  V72  1  0.11038901  0.25454991  0.37516802  1
  V  V73  1  0.50113435  0.75701440  0.25290110  1
  V  V74  1  0.11267239  0.37942205  0.24923693  1
  V  V75  1  0.12924933  0.75167092  0.87771832  1
  V  V76  1  0.11994780  0.49777863  0.62373068  1
  V  V77  1  0.74898947  0.13573650  0.87426478  1
  V  V78  1  0.62422100  0.87046257  0.75283454  1
  V  V79  1  0.24966659  0.62361512  0.38154850  1
  V  V80  1  0.73852856  0.37925017  0.63356147  1
  V  V81  1  0.42968847  0.44362678  0.31890972  1
  V  V82  1  0.00288930  0.61849234  0.12597284  1
  V  V83  1  0.24615179  0.37513611  0.62918542  1
  V  V84  1  0.75803038  0.87260817  0.11997775  1
  Zn  Zn85  1  0.24604639  0.25126721  -0.00122594  1
  Zn  Zn86  1  0.12820811  -0.00383114  0.62126592  1
  Zn  Zn87  1  0.01204409  0.49967019  -0.01592860  1
  Zn  Zn88  1  0.74612773  0.50351614  0.77048015  1
  Zn  Zn89  1  0.52807780  0.36480247  0.87557192  1
  Zn  Zn90  1  0.87763886  0.25612947  0.12572330  1
  Zn  Zn91  1  0.24266259  0.12426421  0.37682429  1
  Zn  Zn92  1  0.24517601  0.00089625  0.25115466  1
  Zn  Zn93  1  0.62791529  0.62045735  0.00175910  1
  Zn  Zn94  1  0.62261345  0.88231447  0.25437680  1
  Zn  Zn95  1  0.74974625  0.74722021  -0.00945930  1
  Zn  Zn96  1  0.37515298  0.25184918  0.62577075  1
  Zn  Zn97  1  0.60224621  0.33745984  0.25988593  1
  Zn  Zn98  1  0.49554740  -0.00057876  0.50501774  1
  Zn  Zn99  1  0.62355730  0.49503467  0.62978117  1
  Zn  Zn100  1  -0.00335311  0.25245484  0.24772884  1
  Zn  Zn101  1  0.63196431  0.73451043  0.87495182  1
  Zn  Zn102  1  0.12306114  0.12478432  0.49842063  1
  Zn  Zn103  1  0.13695083  0.61895931  0.01539125  1
  Zn  Zn104  1  -0.00410157  0.12406422  0.12070083  1
  Zn  Zn105  1  0.87371295  0.37525812  0.49681510  1
  Zn  Zn106  1  0.12671809  0.62794913  0.50428766  1
  Zn  Zn107  1  0.18199225  0.18844338  0.18780857  1
  Zn  Zn108  1  0.18517137  0.18720780  0.68751073  1
  Zn  Zn109  1  0.18657127  0.69077279  0.19335960  1
  Zn  Zn110  1  0.18428742  0.68207891  0.69038253  1
  Zn  Zn111  1  0.69879207  0.18016946  0.18925519  1
  Zn  Zn112  1  0.69007322  0.18787544  0.68347920  1
  Zn  Zn113  1  0.73719588  0.62909151  0.13421697  1
  Zn  Zn114  1  0.67597876  0.66443125  0.69684039  1
  Zn  Zn115  1  0.30460700  0.30797168  0.31011760  1
  Zn  Zn116  1  0.31128510  0.30995807  0.81372078  1
  Zn  Zn117  1  0.31076282  0.81191423  0.31417173  1
  Zn  Zn118  1  0.31623448  0.81335494  0.81134395  1
  Zn  Zn119  1  0.81473110  0.31366580  0.31390163  1
  Zn  Zn120  1  0.75111102  0.35799973  0.85109018  1
  Zn  Zn121  1  0.80909898  0.81781386  0.31233254  1
  Zn  Zn122  1  0.81609459  0.81273256  0.81794570  1
  Zn  Zn123  1  0.18504984  0.43917453  0.43337954  1
  Zn  Zn124  1  0.19638766  0.44224617  0.94547174  1
  Zn  Zn125  1  0.18361907  0.93800921  0.43832253  1
  Zn  Zn126  1  0.18797113  0.93494526  0.93791104  1
  Zn  Zn127  1  0.69004818  0.43442795  0.42797477  1
  Zn  Zn128  1  0.66498892  0.44870150  0.95241152  1
  Zn  Zn129  1  0.68550764  0.93902641  0.44036847  1
  Zn  Zn130  1  0.68783444  0.93375292  0.93652719  1
  Zn  Zn131  1  0.30578343  0.06259851  0.06178579  1
  Zn  Zn132  1  0.31112338  0.06431059  0.56194890  1
  Zn  Zn133  1  0.32718007  0.56065448  0.06636535  1
  Zn  Zn134  1  0.31142635  0.55973548  0.56159716  1
  Zn  Zn135  1  0.81017323  0.06380838  0.06468429  1
  Zn  Zn136  1  0.81106554  0.06237363  0.56543367  1
  Zn  Zn137  1  0.80836188  0.56107146  -0.04993693  1
  Zn  Zn138  1  0.81262781  0.56067194  0.55731786  1
  Zn  Zn139  1  0.60099236  0.46817863  0.13190480  1
  Zn  Zn140  1  0.43957322  0.43418093  0.68396506  1
  Zn  Zn141  1  0.43884167  0.94695787  0.19237595  1
  Zn  Zn142  1  0.43476679  0.93704108  0.68767488  1
  Zn  Zn143  1  0.92684243  0.43817213  0.17676557  1
  Zn  Zn144  1  0.92444933  0.44237777  0.68418981  1
  Zn  Zn145  1  0.93724450  0.93721272  0.18849036  1
  Zn  Zn146  1  0.93647948  0.93500796  0.69068189  1
  Zn  Zn147  1  0.06071966  0.06176062  0.31531853  1
  Zn  Zn148  1  0.06122211  0.05926172  0.81087549  1
  Zn  Zn149  1  0.06279361  0.56511019  0.30791169  1
  Zn  Zn150  1  0.06719487  0.58138445  0.81057228  1
  Zn  Zn151  1  0.55538163  0.16102742  0.32875497  1
  Zn  Zn152  1  0.56140515  0.05961091  0.81349066  1
  Zn  Zn153  1  0.56960306  0.56718887  0.30447653  1
  Zn  Zn154  1  0.56515705  0.55577699  0.81024558  1
  Zn  Zn155  1  0.42760844  0.18324777  0.44611516  1
  Zn  Zn156  1  0.43746322  0.18862928  0.93725334  1
  Zn  Zn157  1  0.43318462  0.69008058  0.43920666  1
  Zn  Zn158  1  0.46959550  0.66733540  0.92638529  1
  Zn  Zn159  1  0.93319292  0.18669454  0.43921861  1
  Zn  Zn160  1  0.93240107  0.19408007  0.93321687  1
  Zn  Zn161  1  0.93587434  0.68165840  0.43545049  1
  Zn  Zn162  1  0.94718821  0.69201349  0.94202500  1
  Zn  Zn163  1  0.06059691  0.31049576  0.06439301  1
  Zn  Zn164  1  0.06147870  0.31556999  0.56308275  1
  Zn  Zn165  1  0.06847746  0.80826186  0.06432668  1
  Zn  Zn166  1  0.06173452  0.81093469  0.56344549  1
  Zn  Zn167  1  0.56447956  0.30511025  0.06493923  1
  Zn  Zn168  1  0.56297934  0.31162912  0.44088456  1
  Zn  Zn169  1  0.56841881  0.80765647  0.06313926  1
  Zn  Zn170  1  0.56174531  0.81034597  0.56223520  1
  O  O171  1  0.12458896  0.11542640  0.11395396  1
  O  O172  1  0.11100337  0.12291589  0.62454817  1
  O  O173  1  0.10908343  0.63779904  0.12858388  1
  O  O174  1  0.11617746  0.61198554  0.62765348  1
  O  O175  1  0.62799054  0.11088762  0.11429002  1
  O  O176  1  0.61931166  0.11529689  0.62307313  1
  O  O177  1  0.61196780  0.63532011  0.13583874  1
  O  O178  1  0.60976997  0.63204493  0.60447545  1
  O  O179  1  0.36868587  0.38057848  0.37838585  1
  O  O180  1  0.36711506  0.37813094  0.88650923  1
  O  O181  1  0.37585313  0.87811713  0.38554422  1
  O  O182  1  0.38160187  0.88843302  0.87051238  1
  O  O183  1  0.87079056  0.39261814  0.37901567  1
  O  O184  1  0.86007506  0.36256834  0.90041690  1
  O  O185  1  0.87847913  0.88294179  0.38432823  1
  O  O186  1  0.88888906  0.88597808  0.87005145  1
  O  O187  1  0.25703358  -0.00000653  0.37531448  1
  O  O188  1  0.25548991  0.00428806  0.86820392  1
  O  O189  1  0.24464478  0.51046648  0.36193627  1
  O  O190  1  0.26253968  0.50399102  0.86774921  1
  O  O191  1  0.75866466  -0.01054659  0.36755948  1
  O  O192  1  0.75927703  0.00160895  0.86914792  1
  O  O193  1  0.75772572  0.50822158  0.36252501  1
  O  O194  1  0.74983694  0.49159731  0.88345109  1
  O  O195  1  0.26272436  0.49169825  0.13935545  1
  O  O196  1  0.24058467  0.49587630  0.63155931  1
  O  O197  1  0.23948548  0.99073027  0.12619699  1
  O  O198  1  0.24783286  1.00598380  0.63934683  1
  O  O199  1  0.76033730  0.51170811  0.14905431  1
  O  O200  1  0.74868247  0.48439641  0.61286456  1
  O  O201  1  0.74520888  0.99188436  0.13166071  1
  O  O202  1  0.74312015  0.99082631  0.63227319  1
  O  O203  1  0.01048024  0.37836001  0.23904240  1
  O  O204  1  -0.00329720  0.36886164  0.74331951  1
  O  O205  1  0.00687240  0.87020499  0.25827832  1
  O  O206  1  0.00936942  0.86816542  0.75540563  1
  O  O207  1  0.48159877  0.38512733  0.26137637  1
  O  O208  1  0.49793790  0.35582812  0.74461160  1
  O  O209  1  0.49455403  0.87388724  0.26583213  1
  O  O210  1  0.50324826  0.86768277  0.75415946  1
  O  O211  1  0.47781930  0.11213854  0.25071666  1
  O  O212  1  0.49136545  0.12707294  0.74873302  1
  O  O213  1  0.49224472  0.63972974  0.25172019  1
  O  O214  1  0.49209711  0.63057969  0.73653651  1
  O  O215  1  0.98756315  0.12233053  0.25067550  1
  O  O216  1  0.99642000  0.13098196  0.74283252  1
  O  O217  1  1.00400647  0.63846542  0.24080751  1
  O  O218  1  0.98917783  0.63353152  0.74378676  1
  O  O219  1  0.36691725  0.25110765  0.00498304  1
  O  O220  1  0.36305201  0.26222551  0.50406020  1
  O  O221  1  0.37241301  0.75016566  0.01665038  1
  O  O222  1  0.37590155  0.76013353  0.50997662  1
  O  O223  1  0.85926085  0.24525894  0.00322221  1
  O  O224  1  0.86567860  0.24835479  0.51126470  1
  O  O225  1  0.87864476  0.75555565  0.01049085  1
  O  O226  1  0.86074899  0.75107792  0.49577510  1
  O  O227  1  0.12830743  0.25250970  0.49289352  1
  O  O228  1  0.12598924  0.24120148  0.98908250  1
  O  O229  1  0.12014326  0.74834405  0.48662910  1
  O  O230  1  0.13821218  0.74590730  0.99286034  1
  O  O231  1  0.63773005  0.24060036  0.50201284  1
  O  O232  1  0.63501448  0.23196685  1.00465060  1
  O  O233  1  0.63359330  0.74468160  0.49338396  1
  O  O234  1  0.62672442  0.74224377  0.99604499  1
  O  O235  1  0.48579444  0.22733907  0.11348917  1
  O  O236  1  0.49505296  0.23230825  0.64008352  1
  O  O237  1  0.49289302  0.75385124  0.13756473  1
  O  O238  1  0.49181272  0.74329280  0.62968636  1
  O  O239  1  0.99676949  0.24219740  0.12898482  1
  O  O240  1  0.99465824  0.24405131  0.62767481  1
  O  O241  1  0.99304080  0.75609129  0.13395898  1
  O  O242  1  1.00728086  0.73928928  0.63502830  1
  O  O243  1  0.00709881  0.25062604  0.37551821  1
  O  O244  1  0.01074331  0.24741513  0.86426202  1
  O  O245  1  0.00418743  0.75331387  0.36987893  1
  O  O246  1  0.01283735  0.75555006  0.86825610  1
  O  O247  1  0.49836458  0.24042389  0.38288743  1
  O  O248  1  0.49444305  0.24931510  0.85711488  1
  O  O249  1  0.50092804  0.75898540  0.37243274  1
  O  O250  1  0.48688194  0.76380478  0.86339111  1
  O  O251  1  0.24515039  0.13735695  0.50160516  1
  O  O252  1  0.24069771  0.12474056  0.98527391  1
  O  O253  1  0.24811379  0.61811828  0.48577456  1
  O  O254  1  0.25811196  0.63626962  0.99874495  1
  O  O255  1  0.74167873  0.13881271  0.51434166  1
  O  O256  1  0.74241403  0.12425385  0.99099236  1
  O  O257  1  0.74142415  0.63011469  0.49323358  1
  O  O258  1  0.74970850  0.63133643  1.01720922  1
  O  O259  1  0.25848964  0.37203604  0.01083112  1
  O  O260  1  0.25391225  0.37416977  0.50793886  1
  O  O261  1  0.24802165  0.86271971  0.00901343  1
  O  O262  1  0.25585790  0.87491570  0.50142015  1
  O  O263  1  0.73972262  0.35514260  0.00659971  1
  O  O264  1  0.74946645  0.36076155  0.50664607  1
  O  O265  1  0.74372629  0.87371463  0.01752141  1
  O  O266  1  0.75221865  0.86571424  0.50813210  1
  O  O267  1  0.13282821  0.49271334  0.25088969  1
  O  O268  1  0.12672471  0.49319079  0.74678956  1
  O  O269  1  0.12446215  0.98805512  0.24621325  1
  O  O270  1  0.13371168  0.99000297  0.75009880  1
  O  O271  1  0.64026028  0.49926077  0.24776116  1
  O  O272  1  0.64513785  0.54643440  0.73241793  1
  O  O273  1  0.63520585  1.00101135  0.23989923  1
  O  O274  1  0.63056302  0.99328139  0.74228019  1
  O  O275  1  0.36565593  0.00569142  0.25988503  1
  O  O276  1  0.36873906  0.00860294  0.75744163  1
  O  O277  1  0.36954303  0.50941481  0.26238255  1
  O  O278  1  0.37007918  0.50276090  0.75178412  1
  O  O279  1  0.86992495  0.00202428  0.26011736  1
  O  O280  1  0.86891590  0.00605619  0.75353779  1
  O  O281  1  0.86883603  0.49536685  0.26061923  1
  O  O282  1  0.87105405  0.51966045  0.75007034  1
  O  O283  1  0.12747597  0.36731359  0.36271670  1
  O  O284  1  0.13435474  0.36623761  0.87163070  1
  O  O285  1  0.11928952  0.86877847  0.36884749  1
  O  O286  1  0.12397168  0.86603964  0.86600206  1
  O  O287  1  0.62912709  0.36374652  0.36561584  1
  O  O288  1  0.63881199  0.37681749  0.87139736  1
  O  O289  1  0.61299191  0.87316876  0.37776862  1
  O  O290  1  0.61203590  0.87819016  0.86602601  1
  O  O291  1  0.36388622  0.13276337  0.13377646  1
  O  O292  1  0.38259366  0.12302494  0.63356688  1
  O  O293  1  0.37751257  0.63662076  0.14229721  1
  O  O294  1  0.38289258  0.62990836  0.62395320  1
  O  O295  1  0.87802736  0.11971300  0.13707999  1
  O  O296  1  0.88447319  0.13001398  0.63000070  1
  O  O297  1  0.89136454  0.64790151  0.13001658  1
  O  O298  1  0.88488537  0.62330615  0.62567375  1
  O  O299  1  0.25245414  0.25607027  0.12325722  1
  O  O300  1  0.24534229  0.25890498  0.61582929  1
  O  O301  1  0.25667804  0.75702943  0.12138441  1
  O  O302  1  0.26167426  0.74063294  0.63056157  1
  O  O303  1  0.75616569  0.24010725  0.11381474  1
  O  O304  1  0.75716550  0.26071319  0.62337725  1
  O  O305  1  0.77081593  0.75470418  0.12917465  1
  O  O306  1  0.73988514  0.75683284  0.61881577  1
  O  O307  1  0.24011316  0.25150349  0.38837905  1
  O  O308  1  0.23609818  0.23931854  0.87027906  1
  O  O309  1  0.23838982  0.73919413  0.36671349  1
  O  O310  1  0.25146678  0.74836510  0.88426409  1
  O  O311  1  0.75933822  0.24681521  0.39176934  1
  O  O312  1  0.75080258  0.23676382  0.88501541  1
  O  O313  1  0.74481225  0.74585265  0.38052106  1
  O  O314  1  0.74186076  0.76014116  0.87711765  1
  O  O315  1  0.01002344  0.12705709  -0.00527074  1
  O  O316  1  -0.00190056  0.11810394  0.50885101  1
  O  O317  1  0.00615855  0.62789409  0.01617496  1
  O  O318  1  0.00232974  0.61711098  0.50749284  1
  O  O319  1  0.51083761  0.11660388  -0.00916692  1
  O  O320  1  0.50607184  0.12080936  0.51353072  1
  O  O321  1  0.48605896  0.62652389  0.03073640  1
  O  O322  1  0.50151255  0.61479174  0.49996437  1
  O  O323  1  0.49154357  0.38783711  0.49799509  1
  O  O324  1  0.48893351  0.35971869  0.99371001  1
  O  O325  1  0.49434444  0.87624407  0.49248602  1
  O  O326  1  0.50359008  0.88265321  0.99110404  1
  O  O327  1  0.99777960  0.39127347  0.50356210  1
  O  O328  1  0.99558601  0.37364041  0.99205964  1
  O  O329  1  0.99181281  0.87812458  0.49809772  1
  O  O330  1  1.01308065  0.87069818  0.98507837  1
  O  O331  1  0.49652762  0.50362255  0.37543333  1
  O  O332  1  0.48851701  0.48184884  0.85928336  1
  O  O333  1  0.48005767  0.99076730  0.38199237  1
  O  O334  1  0.49030181  0.99237290  0.87964071  1
  O  O335  1  0.98756640  0.50986473  0.37884242  1
  O  O336  1  1.01443690  0.49084925  0.85956928  1
  O  O337  1  0.99224675  0.99162706  0.38318404  1
  O  O338  1  0.99140266  0.99126396  0.87008847  1
  O  O339  1  0.01389195  -0.00113221  0.12753213  1
  O  O340  1  -0.00096695  0.00700429  0.62106327  1
  O  O341  1  -0.00372004  0.51889243  0.13098890  1
  O  O342  1  0.00309850  0.50644881  0.61872206  1
  O  O343  1  0.50909686  0.01428449  0.12525833  1
  O  O344  1  0.50784149  0.00771582  0.62918666  1
  O  O345  1  0.49629413  0.52194478  0.15049337  1
  O  O346  1  0.50269097  0.50764744  0.61452072  1
  O  O347  1  0.24300722  0.38319923  0.24414192  1
  O  O348  1  0.25564848  0.37736433  0.73548777  1
  O  O349  1  0.24077402  0.87426342  0.24284388  1
  O  O350  1  0.24283420  0.88318161  0.75535710  1
  O  O351  1  0.75238250  0.38012592  0.24428251  1
  O  O352  1  0.75921471  0.38539905  0.73559953  1
  O  O353  1  0.74705822  0.88456776  0.24092102  1
  O  O354  1  0.74429743  0.87694903  0.74297023  1
  O  O355  1  0.25371241  0.12259834  0.25391859  1
  O  O356  1  0.25314989  0.11814825  0.75851608  1
  O  O357  1  0.25622789  0.61913010  0.25461008  1
  O  O358  1  0.25747831  0.61763140  0.75826079  1
  O  O359  1  0.76312234  0.10891145  0.25155479  1
  O  O360  1  0.75503528  0.12018903  0.75612067  1
  O  O361  1  0.74779229  0.63230815  0.25689290  1
  O  O362  1  0.77509855  0.63987901  0.74911702  1
  O  O363  1  0.36615111  0.11636625  0.37120146  1
  O  O364  1  0.36557738  0.11730065  0.86905824  1
  O  O365  1  0.36513111  0.63530848  0.36449747  1
  O  O366  1  0.37779617  0.61240638  0.87020377  1
  O  O367  1  0.87818223  0.10975831  0.37201659  1
  O  O368  1  0.86850284  0.11788154  0.86838449  1
  O  O369  1  0.86420341  0.61230428  0.37725439  1
  O  O370  1  0.88142243  0.62567855  0.87282265  1
  O  O371  1  0.13944277  0.36907909  0.13184702  1
  O  O372  1  0.13152020  0.38826867  0.62162613  1
  O  O373  1  0.13379897  0.87824231  0.13208623  1
  O  O374  1  0.12250687  0.87502247  0.63785641  1
  O  O375  1  0.60859314  0.35831231  0.15001051  1
  O  O376  1  0.63983750  0.37631159  0.62863025  1
  O  O377  1  0.62769722  0.88529199  0.12877447  1
  O  O378  1  0.62991174  0.87938288  0.63152052  1
  O  O379  1  0.12147926  0.25881827  0.25909910  1
  O  O380  1  0.11161829  0.24905560  0.75356044  1
  O  O381  1  0.11660532  0.76179363  0.25858187  1
  O  O382  1  0.12042860  0.75500645  0.75707440  1
  O  O383  1  0.59734761  0.20680576  0.23112820  1
  O  O384  1  0.61366461  0.24189537  0.74977918  1
  O  O385  1  0.60717716  0.76081640  0.26026123  1
  O  O386  1  0.60929277  0.74826630  0.75140870  1
  O  O387  1  0.36762009  0.23996678  0.24107683  1
  O  O388  1  0.37148920  0.23517121  0.74747376  1
  O  O389  1  0.38200836  0.74706170  0.24568741  1
  O  O390  1  0.38237395  0.74389713  0.74237903  1
  O  O391  1  0.87530581  0.23925210  0.25063094  1
  O  O392  1  0.88807386  0.24152691  0.73695610  1
  O  O393  1  0.88751029  0.75882250  0.25149688  1
  O  O394  1  0.89121201  0.74515846  0.75622001  1
  O  O395  1  0.38045227  0.48885722  0.50052155  1
  O  O396  1  0.37557932  0.48647039  0.99071728  1
  O  O397  1  0.37256674  0.99142209  0.49647060  1
  O  O398  1  0.37930041  1.00724042  0.99080215  1
  O  O399  1  0.88210094  0.49955128  0.48802047  1
  O  O400  1  0.89384178  0.49168423  0.99260088  1
  O  O401  1  0.87742000  0.99501296  0.49583951  1
  O  O402  1  0.87321130  1.00315062  0.98906281  1
  O  O403  1  0.13019090  0.00737809  0.00653622  1
  O  O404  1  0.11330830  0.00141402  0.50288724  1
  O  O405  1  0.12377127  0.50951328  -0.00682297  1
  O  O406  1  0.11735596  0.50370591  0.50652808  1
  O  O407  1  0.61954022  0.00458660  0.00652940  1
  O  O408  1  0.62484961  0.00209759  0.51655400  1
  O  O409  1  0.61878762  0.50918644  0.02890516  1
  O  O410  1  0.61756129  0.50695058  0.49547095  1
  O  O411  1  0.36554281  0.35640634  0.11679354  1
  O  O412  1  0.36575813  0.37396650  0.61471826  1
  O  O413  1  0.36426563  0.87150119  0.13412813  1
  O  O414  1  0.37694348  0.86595303  0.61743226  1
  O  O415  1  0.87549282  0.37191660  0.10101105  1
  O  O416  1  0.86936389  0.36647060  0.61816273  1
  O  O417  1  0.86970448  0.86578760  0.13043024  1
  O  O418  1  0.86282443  0.87692437  0.61978692  1
  O  O419  1  0.12426592  0.13612358  0.37726850  1
  O  O420  1  0.12916004  0.12886905  0.87731411  1
  O  O421  1  0.13185366  0.63367644  0.37430526  1
  O  O422  1  0.14035765  0.64145508  0.87282310  1
  O  O423  1  0.62675018  0.10431318  0.39692814  1
  O  O424  1  0.63695785  0.11264362  0.88171326  1
  O  O425  1  0.63150190  0.63271582  0.38107005  1
  O  O426  1  0.57873438  0.63161494  0.89175995  1
