# generated using pymatgen
data_V85Zn86O256
_symmetry_space_group_name_H-M   'P 1'
_cell_length_a   16.94462728
_cell_length_b   16.96031725
_cell_length_c   16.96130594
_cell_angle_alpha   90.00476383
_cell_angle_beta   90.07636208
_cell_angle_gamma   90.05434889
_symmetry_Int_Tables_number   1
_chemical_formula_structural   V85Zn86O256
_chemical_formula_sum   'V85 Zn86 O256'
_cell_volume   4874.43964250
_cell_formula_units_Z   1
loop_
 _symmetry_equiv_pos_site_id
 _symmetry_equiv_pos_as_xyz
  1  'x, y, z'
loop_
 _atom_site_type_symbol
 _atom_site_label
 _atom_site_symmetry_multiplicity
 _atom_site_fract_x
 _atom_site_fract_y
 _atom_site_fract_z
 _atom_site_occupancy
  V  V0  1  0.49529059  0.12758201  0.62357063  1
  V  V1  1  0.74497920  0.26034955  -0.00527367  1
  V  V2  1  0.62287261  0.25468697  0.37464116  1
  V  V3  1  0.75029091  0.87684171  0.62493472  1
  V  V4  1  0.12381930  0.87871375  0.24702056  1
  V  V5  1  0.00231888  0.24830773  0.24762431  1
  V  V6  1  0.49503101  0.87685631  0.37970125  1
  V  V7  1  0.62603225  0.50199800  0.63310786  1
  V  V8  1  0.12591326  0.49169078  0.62035655  1
  V  V9  1  0.00424829  0.87778442  0.88205358  1
  V  V10  1  0.25214467  0.49180124  0.74732854  1
  V  V11  1  0.62000480  0.12299679  -0.00164437  1
  V  V12  1  0.87992316  0.38076513  0.50364708  1
  V  V13  1  0.12517844  -0.00182011  0.11754981  1
  V  V14  1  0.25434164  0.87059509  0.13073497  1
  V  V15  1  0.37841988  0.87796276  -0.00069971  1
  V  V16  1  -0.00147688  0.87531262  0.37413021  1
  V  V17  1  0.12198672  0.25137018  0.87814612  1
  V  V18  1  0.61821433  -0.00211371  0.11665771  1
  V  V19  1  0.00485090  0.12360458  0.62605710  1
  V  V20  1  0.00516519  -0.00063452  0.50219599  1
  V  V21  1  0.12248256  0.61991728  -0.00019736  1
  V  V22  1  0.49437914  0.75509575  0.75139357  1
  V  V23  1  -0.00091105  0.11759807  0.11411255  1
  V  V24  1  0.87348694  0.50508616  0.37815594  1
  V  V25  1  0.62443363  0.87721931  0.74950253  1
  V  V26  1  0.87847618  -0.00021530  0.88712376  1
  V  V27  1  0.62602608  0.37304570  0.75817749  1
  V  V28  1  0.75817957  0.87160692  0.12511846  1
  V  V29  1  0.36991067  0.00459826  0.36403147  1
  V  V30  1  0.87757217  0.74922012  0.62531070  1
  V  V31  1  0.12870104  0.11998939  -0.00665147  1
  V  V32  1  0.25205363  0.62149850  0.87614885  1
  V  V33  1  0.62578810  0.75047053  0.87495392  1
  V  V34  1  0.74479425  0.12793834  0.87532547  1
  V  V35  1  0.49091252  0.49697473  0.50425377  1
  V  V36  1  0.62221493  0.75043749  0.37487683  1
  V  V37  1  0.12018076  0.49476530  0.11992847  1
  V  V38  1  -0.00129157  0.62429470  0.12552101  1
  V  V39  1  0.37199085  0.26325678  0.62314242  1
  V  V40  1  0.49319195  0.49352417  0.00172123  1
  V  V41  1  0.74993412  0.75073830  0.49997301  1
  V  V42  1  0.87716359  0.12498962  0.74965640  1
  V  V43  1  0.75151164  0.62182494  0.37322038  1
  V  V44  1  0.49056094  0.62978447  0.12761722  1
  V  V45  1  0.75093824  0.00092585  0.74952265  1
  V  V46  1  0.13132800  0.12461301  0.50373150  1
  V  V47  1  0.62320018  0.87630637  0.24955419  1
  V  V48  1  0.62278828  0.62476578  0.00170384  1
  V  V49  1  0.36270224  0.75846583  0.61675923  1
  V  V50  1  0.12008180  0.37512323  0.75564374  1
  V  V51  1  0.25056274  0.12627802  0.35959751  1
  V  V52  1  0.36971837  0.12542347  0.75458793  1
  V  V53  1  0.26675754  0.36936039  0.12081328  1
  V  V54  1  0.00021910  0.38047328  0.37743387  1
  V  V55  1  0.86398801  0.25207867  0.12177117  1
  V  V56  1  0.90032784  0.37555828  -0.00338466  1
  V  V57  1  0.81708372  0.56689935  0.19429830  1
  V  V58  1  0.25187722  0.26273715  0.50368598  1
  V  V59  1  0.64330046  0.38680155  0.24877150  1
  V  V60  1  0.26323554  0.24585302  -0.00285230  1
  V  V61  1  0.50246878  0.25037391  0.75769053  1
  V  V62  1  0.37253433  0.49868246  0.37519794  1
  V  V63  1  0.62326418  0.62532899  0.50025345  1
  V  V64  1  0.89042312  0.49666330  0.87079588  1
  V  V65  1  -0.00170871  0.74876282  0.75055847  1
  V  V66  1  0.12778911  0.75176655  0.37752514  1
  V  V67  1  0.24382125  0.00419606  0.74147931  1
  V  V68  1  0.75191230  0.25262496  0.50277035  1
  V  V69  1  0.75052332  0.12713298  0.37104812  1
  V  V70  1  0.75876158  0.75002153  0.00017605  1
  V  V71  1  -0.01110617  0.74635655  0.24626564  1
  V  V72  1  0.12813677  0.87585764  0.73638068  1
  V  V73  1  0.25590660  0.74706226  0.00507873  1
  V  V74  1  0.49500664  0.62878950  0.62536432  1
  V  V75  1  0.75077017  0.37991496  0.63185877  1
  V  V76  1  0.12555200  0.37441645  0.24683087  1
  V  V77  1  -0.00124239  0.62085276  0.62190890  1
  V  V78  1  0.87580656  0.00292730  0.37563374  1
  V  V79  1  0.87666904  0.87708468  0.50097053  1
  V  V80  1  0.12165351  0.62576391  0.50078673  1
  V  V81  1  0.49877143  0.37681478  0.37606380  1
  V  V82  1  0.24844740  0.62534423  0.37852249  1
  V  V83  1  0.87512751  0.12671142  0.24916404  1
  V  V84  1  0.62296504  0.12480686  0.50034632  1
  Zn  Zn85  1  0.49827723  0.36657895  0.88459977  1
  Zn  Zn86  1  0.48900219  0.75572375  0.24549395  1
  Zn  Zn87  1  0.37054745  0.62743829  0.75117665  1
  Zn  Zn88  1  0.12600259  0.75102932  0.87588069  1
  Zn  Zn89  1  0.35368424  0.88255818  0.50083436  1
  Zn  Zn90  1  0.63177007  0.50258881  0.12995080  1
  Zn  Zn91  1  0.86886373  0.61699136  0.74881684  1
  Zn  Zn92  1  0.25086004  0.49964501  0.24741414  1
  Zn  Zn93  1  0.37446967  0.49116493  0.87574407  1
  Zn  Zn94  1  0.00122487  0.25066952  0.75342347  1
  Zn  Zn95  1  0.36608599  0.63114234  0.24755519  1
  Zn  Zn96  1  0.37229754  0.00157447  0.87316200  1
  Zn  Zn97  1  0.74939874  -0.00016036  0.24840470  1
  Zn  Zn98  1  0.49053811  0.00293006  0.50064818  1
  Zn  Zn99  1  0.50205546  0.88508429  0.88335931  1
  Zn  Zn100  1  0.12376402  0.25106229  0.37701802  1
  Zn  Zn101  1  0.74440445  0.61175454  0.86307076  1
  Zn  Zn102  1  0.87723806  0.25215232  0.62831652  1
  Zn  Zn103  1  0.62212388  0.00122852  0.62415216  1
  Zn  Zn104  1  0.88278524  0.87344805  0.00609585  1
  Zn  Zn105  1  0.48194821  0.12740454  0.12817827  1
  Zn  Zn106  1  0.48155405  0.25099572  0.24370458  1
  Zn  Zn107  1  0.31408700  0.18822674  0.18651366  1
  Zn  Zn108  1  0.18808809  0.18923436  0.68581008  1
  Zn  Zn109  1  0.18374193  0.68894357  0.19117644  1
  Zn  Zn110  1  0.18360117  0.68227032  0.69297733  1
  Zn  Zn111  1  0.62467866  0.18827685  0.18828033  1
  Zn  Zn112  1  0.68747387  0.19089560  0.68725082  1
  Zn  Zn113  1  0.67940442  0.69367162  0.18348690  1
  Zn  Zn114  1  0.68695055  0.68883433  0.68911460  1
  Zn  Zn115  1  0.30848934  0.31817350  0.32025056  1
  Zn  Zn116  1  0.31239621  0.31285247  0.81666284  1
  Zn  Zn117  1  0.31165442  0.81251113  0.31385647  1
  Zn  Zn118  1  0.30764935  0.81231143  0.81413643  1
  Zn  Zn119  1  0.81502620  0.31270338  0.31458066  1
  Zn  Zn120  1  0.81576998  0.31466790  0.81528848  1
  Zn  Zn121  1  0.80998692  0.81184177  0.31304968  1
  Zn  Zn122  1  0.81341341  0.81205954  0.81481009  1
  Zn  Zn123  1  0.18322820  0.44151757  0.43749771  1
  Zn  Zn124  1  0.18939490  0.43372250  0.93842249  1
  Zn  Zn125  1  0.18644763  0.94420543  0.43126061  1
  Zn  Zn126  1  0.19286475  0.93743384  0.93151252  1
  Zn  Zn127  1  0.68724402  0.44106214  0.44374346  1
  Zn  Zn128  1  0.68636963  0.43938344  0.93780857  1
  Zn  Zn129  1  0.68597729  0.94052058  0.43722979  1
  Zn  Zn130  1  0.69013319  0.93686991  0.93668634  1
  Zn  Zn131  1  0.30560212  0.05505906  0.06172766  1
  Zn  Zn132  1  0.31111209  0.06016736  0.56455972  1
  Zn  Zn133  1  0.31060710  0.55668103  0.06380549  1
  Zn  Zn134  1  0.30894525  0.56567514  0.56322302  1
  Zn  Zn135  1  0.80271660  0.06367706  0.06495041  1
  Zn  Zn136  1  0.81356376  0.06418567  0.56305903  1
  Zn  Zn137  1  0.80187038  0.54433442  0.02039702  1
  Zn  Zn138  1  0.81106887  0.56165843  0.56278922  1
  Zn  Zn139  1  0.44375953  0.44338130  0.19412513  1
  Zn  Zn140  1  0.43691925  0.43715732  0.69500763  1
  Zn  Zn141  1  0.43596139  0.94018834  0.18560510  1
  Zn  Zn142  1  0.43478661  0.94033427  0.68755756  1
  Zn  Zn143  1  0.93997549  0.43218798  0.18128180  1
  Zn  Zn144  1  0.94144379  0.43894250  0.69039989  1
  Zn  Zn145  1  0.93799219  0.93952088  0.18874240  1
  Zn  Zn146  1  0.94137962  0.93855024  0.68964807  1
  Zn  Zn147  1  0.06674762  0.06411930  0.31035496  1
  Zn  Zn148  1  0.06491895  0.05880939  0.81397407  1
  Zn  Zn149  1  0.06046606  0.56118843  0.30880412  1
  Zn  Zn150  1  0.06340004  0.56217909  0.81106748  1
  Zn  Zn151  1  0.55861100  0.05901838  0.31176833  1
  Zn  Zn152  1  0.55867215  0.05987110  0.81371311  1
  Zn  Zn153  1  0.56101434  0.56268312  0.31281053  1
  Zn  Zn154  1  0.55863953  0.56483526  0.81377092  1
  Zn  Zn155  1  0.43179168  0.19050271  0.43346322  1
  Zn  Zn156  1  0.43967061  0.18244664  0.93569709  1
  Zn  Zn157  1  0.43435180  0.68942439  0.43579718  1
  Zn  Zn158  1  0.43552263  0.68845092  0.93896069  1
  Zn  Zn159  1  0.93921719  0.19225888  0.44009508  1
  Zn  Zn160  1  0.93725078  0.18865492  0.93557636  1
  Zn  Zn161  1  0.94104016  0.68842989  0.43905788  1
  Zn  Zn162  1  0.94022681  0.68291787  0.93534160  1
  Zn  Zn163  1  0.06865499  0.30015889  0.06727871  1
  Zn  Zn164  1  0.06230660  0.30975060  0.56367871  1
  Zn  Zn165  1  0.06469877  0.80445624  0.06210307  1
  Zn  Zn166  1  0.18233396  0.81108049  0.56185733  1
  Zn  Zn167  1  0.57083250  0.31597100  0.06750575  1
  Zn  Zn168  1  0.56113252  0.31388600  0.56463439  1
  Zn  Zn169  1  0.56341609  0.81008816  0.06355665  1
  Zn  Zn170  1  0.55973885  0.81409824  0.56259436  1
  O  O171  1  0.11453429  0.11191805  0.11198522  1
  O  O172  1  0.11655958  0.12702378  0.61697218  1
  O  O173  1  0.11984488  0.61551506  0.11978081  1
  O  O174  1  0.11771925  0.62038641  0.61828022  1
  O  O175  1  0.64356491  0.10954154  0.10954302  1
  O  O176  1  0.61730708  0.12837977  0.61571024  1
  O  O177  1  0.61596930  0.62284461  0.11696337  1
  O  O178  1  0.61297820  0.62143220  0.62282152  1
  O  O179  1  0.38272917  0.39030577  0.37614427  1
  O  O180  1  0.38731817  0.37891340  0.86391044  1
  O  O181  1  0.38056397  0.88304825  0.37887989  1
  O  O182  1  0.37509366  0.86719867  0.89074830  1
  O  O183  1  0.87959823  0.38505105  0.38224917  1
  O  O184  1  0.87647559  0.38203465  0.88734259  1
  O  O185  1  0.87810843  0.88203304  0.38068981  1
  O  O186  1  0.88299839  0.88455511  0.87596670  1
  O  O187  1  0.25262704  0.01838926  0.37202699  1
  O  O188  1  0.25669915  -0.01006263  0.85150701  1
  O  O189  1  0.25662790  0.50473732  0.37378229  1
  O  O190  1  0.25160320  0.50472662  0.86867134  1
  O  O191  1  0.75724137  0.01024623  0.37594508  1
  O  O192  1  0.75874501  0.00643446  0.86772769  1
  O  O193  1  0.75810321  0.51043624  0.38214917  1
  O  O194  1  0.77192903  0.50683633  0.90678540  1
  O  O195  1  0.23955564  0.48719911  0.12500874  1
  O  O196  1  0.23824986  0.50878310  0.63470530  1
  O  O197  1  0.23280638  0.98468651  0.12336454  1
  O  O198  1  0.25244716  0.99401562  0.64033661  1
  O  O199  1  0.75683267  0.51607803  0.12862721  1
  O  O200  1  0.73810554  0.49228808  0.62117166  1
  O  O201  1  0.74136247  0.98735007  0.12761019  1
  O  O202  1  0.74951793  0.99474095  0.63114028  1
  O  O203  1  0.00327479  0.36794564  0.25516929  1
  O  O204  1  0.01516621  0.36950755  0.74474004  1
  O  O205  1  0.00334875  0.86779481  0.25494372  1
  O  O206  1  0.00880975  0.87006521  0.75693233  1
  O  O207  1  0.51115910  0.37780533  0.26543395  1
  O  O208  1  0.51094864  0.36532756  0.74620073  1
  O  O209  1  0.50620661  0.87619299  0.26065470  1
  O  O210  1  0.50384895  0.86500034  0.74678973  1
  O  O211  1  0.52840883  0.13818455  0.24196831  1
  O  O212  1  0.49389688  0.13278073  0.74049195  1
  O  O213  1  0.50217922  0.62340063  0.23468729  1
  O  O214  1  0.49748323  0.63791208  0.74289166  1
  O  O215  1  0.99625921  0.13273333  0.24347471  1
  O  O216  1  0.99464542  0.12232580  0.74247596  1
  O  O217  1  1.00452484  0.63205850  0.23678419  1
  O  O218  1  0.99793104  0.63366388  0.74431137  1
  O  O219  1  0.36245616  0.24337812  -0.00534730  1
  O  O220  1  0.35978943  0.24664260  0.50687992  1
  O  O221  1  0.36198479  0.75502916  0.00110568  1
  O  O222  1  0.37698807  0.75235468  0.51491093  1
  O  O223  1  0.86985678  0.25802374  0.00198708  1
  O  O224  1  0.86953029  0.26372182  0.50172590  1
  O  O225  1  0.86130858  0.75024538  -0.00895694  1
  O  O226  1  0.87007806  0.75653888  0.50482243  1
  O  O227  1  0.13422759  0.24335913  0.49951892  1
  O  O228  1  0.13301314  0.24020498  0.99495715  1
  O  O229  1  0.12317297  0.73595588  0.49155052  1
  O  O230  1  0.13539322  0.73500766  0.99905399  1
  O  O231  1  0.63013695  0.24479251  0.49299691  1
  O  O232  1  0.64094500  0.24347635  1.00191404  1
  O  O233  1  0.62955610  0.74485189  0.49565257  1
  O  O234  1  0.62735830  0.74343537  0.99135913  1
  O  O235  1  0.52642918  0.24052760  0.13513620  1
  O  O236  1  0.49308762  0.24237894  0.62849716  1
  O  O237  1  0.50363588  0.73359219  0.12592542  1
  O  O238  1  0.49300197  0.74455828  0.63125963  1
  O  O239  1  0.99191118  0.23841593  0.13195114  1
  O  O240  1  0.99718560  0.23700849  0.62778978  1
  O  O241  1  1.00180783  0.73924294  0.13441451  1
  O  O242  1  0.99018299  0.73732991  0.63414479  1
  O  O243  1  -0.00251375  0.26168150  0.36615788  1
  O  O244  1  0.01634024  0.24284466  0.87229669  1
  O  O245  1  0.00976735  0.75380338  0.37011448  1
  O  O246  1  0.00183004  0.75552966  0.86613919  1
  O  O247  1  0.50782029  0.26056473  0.37795411  1
  O  O248  1  0.50216911  0.24693617  0.86120688  1
  O  O249  1  0.50695342  0.75847309  0.37685539  1
  O  O250  1  0.50789616  0.75208946  0.86768357  1
  O  O251  1  0.23829873  0.12919196  0.49989230  1
  O  O252  1  0.24122858  0.13772143  1.00516878  1
  O  O253  1  0.24053082  0.62184326  0.48670311  1
  O  O254  1  0.24542223  0.62763641  0.99675181  1
  O  O255  1  0.74456223  0.13168828  0.49293463  1
  O  O256  1  0.74793919  0.13395623  0.98960580  1
  O  O257  1  0.74245404  0.63138019  0.49601781  1
  O  O258  1  0.73712498  0.63699067  0.99819815  1
  O  O259  1  0.24817083  0.36405756  0.01321523  1
  O  O260  1  0.24384098  0.36080694  0.49446215  1
  O  O261  1  0.25430339  0.86379282  0.00685035  1
  O  O262  1  0.24179445  0.87015392  0.49063679  1
  O  O263  1  0.75205158  0.36133325  -0.00254834  1
  O  O264  1  0.75606943  0.37238677  0.51186341  1
  O  O265  1  0.75190159  0.86681438  0.00757100  1
  O  O266  1  0.75545571  0.87215096  0.50447361  1
  O  O267  1  0.12488268  0.48726261  0.24237808  1
  O  O268  1  0.13041563  0.49318832  0.74388074  1
  O  O269  1  0.11656346  0.98487605  0.24191764  1
  O  O270  1  0.13175804  0.98801329  0.74890796  1
  O  O271  1  0.62794785  0.49080487  0.25387929  1
  O  O272  1  0.61568988  0.49451824  0.73856057  1
  O  O273  1  0.62932212  0.98693134  0.24607991  1
  O  O274  1  0.63307024  0.99507519  0.74704593  1
  O  O275  1  0.37589203  -0.00327853  0.26432537  1
  O  O276  1  0.36405136  0.00925927  0.74525316  1
  O  O277  1  0.37289616  0.50824821  0.26142535  1
  O  O278  1  0.36508445  0.50743465  0.74799487  1
  O  O279  1  0.87179203  0.00910546  0.25734733  1
  O  O280  1  0.87048023  0.01038029  0.75578347  1
  O  O281  1  0.87178241  0.50037048  0.25304674  1
  O  O282  1  0.87508699  0.49390003  0.76671570  1
  O  O283  1  0.11654951  0.37540804  0.36709454  1
  O  O284  1  0.12829591  0.36609241  0.86723921  1
  O  O285  1  0.11720475  0.86920571  0.36634488  1
  O  O286  1  0.11703929  0.87251637  0.86711673  1
  O  O287  1  0.62070244  0.37265681  0.37485386  1
  O  O288  1  0.62226137  0.38284864  0.86103210  1
  O  O289  1  0.61978871  0.87233710  0.36822225  1
  O  O290  1  0.62202511  0.86829571  0.86938383  1
  O  O291  1  0.37124751  0.11469760  0.12636002  1
  O  O292  1  0.38094688  0.13327443  0.63093990  1
  O  O293  1  0.38712521  0.61954027  0.12585983  1
  O  O294  1  0.38317774  0.63609690  0.62494923  1
  O  O295  1  0.87967312  0.12848149  0.12961453  1
  O  O296  1  0.88065470  0.12750630  0.63419161  1
  O  O297  1  0.88046262  0.61267193  0.12867087  1
  O  O298  1  0.88172359  0.62810792  0.62539356  1
  O  O299  1  0.25239407  0.26248245  0.11393080  1
  O  O300  1  0.25632845  0.24949601  0.61247586  1
  O  O301  1  0.24120031  0.75892849  0.11776746  1
  O  O302  1  0.25907327  0.74525199  0.62779390  1
  O  O303  1  0.76297891  0.24336865  0.10981770  1
  O  O304  1  0.75367489  0.25944269  0.61885067  1
  O  O305  1  0.74264353  0.76023767  0.11318929  1
  O  O306  1  0.75605836  0.75726216  0.61822586  1
  O  O307  1  0.24719534  0.24115325  0.38837005  1
  O  O308  1  0.24120759  0.25472497  0.89082673  1
  O  O309  1  0.23383316  0.74181802  0.36983426  1
  O  O310  1  0.24598508  0.73943635  0.88306924  1
  O  O311  1  0.74650497  0.24560641  0.38411749  1
  O  O312  1  0.75634428  0.24211820  0.88633339  1
  O  O313  1  0.74392097  0.74310161  0.38116706  1
  O  O314  1  0.73650735  0.75330800  0.88126772  1
  O  O315  1  0.00473905  0.12900201  0.00963646  1
  O  O316  1  0.00830595  0.12246431  0.50524491  1
  O  O317  1  0.00886409  0.63189627  0.01429529  1
  O  O318  1  0.00724971  0.62697131  0.51073488  1
  O  O319  1  0.51739203  0.13088955  0.00202476  1
  O  O320  1  0.50678446  0.12914154  0.50510161  1
  O  O321  1  0.50393028  0.62070871  0.00944941  1
  O  O322  1  0.50414553  0.62052721  0.50787022  1
  O  O323  1  0.50779674  0.38592144  0.48945930  1
  O  O324  1  0.51343496  0.39037436  1.00155225  1
  O  O325  1  0.50341430  0.88014811  0.48670176  1
  O  O326  1  0.48193854  0.86653237  1.00429984  1
  O  O327  1  0.99195777  0.37008622  0.49097276  1
  O  O328  1  0.99765087  0.36166139  0.99812107  1
  O  O329  1  0.99239063  0.88744173  0.49082295  1
  O  O330  1  0.99969277  0.86471595  0.98683786  1
  O  O331  1  0.49311981  0.49793518  0.38461248  1
  O  O332  1  0.49968779  0.50536173  0.89297022  1
  O  O333  1  0.49101210  0.99512039  0.37798537  1
  O  O334  1  0.48698593  0.99600459  0.86765951  1
  O  O335  1  0.99137037  0.48816138  0.36866789  1
  O  O336  1  0.99044492  0.49907424  0.87448119  1
  O  O337  1  0.99357910  0.99858000  0.37977001  1
  O  O338  1  0.99075815  0.98985654  0.87045048  1
  O  O339  1  0.00739957  0.00738554  0.12686337  1
  O  O340  1  -0.00695787  0.01239246  0.61468063  1
  O  O341  1  0.01321459  0.50587756  0.12895765  1
  O  O342  1  0.00924240  0.51289765  0.63206882  1
  O  O343  1  0.51527896  0.00231780  0.12892268  1
  O  O344  1  0.50018604  0.01454193  0.62245058  1
  O  O345  1  0.50456323  0.50913808  0.11599594  1
  O  O346  1  0.50182665  0.50858545  0.62113701  1
  O  O347  1  0.23981696  0.37415289  0.23908962  1
  O  O348  1  0.24009462  0.38674548  0.75146038  1
  O  O349  1  0.23814477  0.86830784  0.24049705  1
  O  O350  1  0.23335561  0.87528813  0.74879354  1
  O  O351  1  0.74192825  0.38176133  0.26058495  1
  O  O352  1  0.74383026  0.36855428  0.73946923  1
  O  O353  1  0.74186967  0.87295463  0.24270500  1
  O  O354  1  0.74581355  0.88008021  0.74477836  1
  O  O355  1  0.23774544  0.13585473  0.26305671  1
  O  O356  1  0.25389057  0.11372670  0.74393929  1
  O  O357  1  0.24325496  0.62005983  0.26360808  1
  O  O358  1  0.24682694  0.61472174  0.76092319  1
  O  O359  1  0.75233902  0.12699824  0.26525389  1
  O  O360  1  0.75643354  0.12266300  0.75551884  1
  O  O361  1  0.75610614  0.63070921  0.25073031  1
  O  O362  1  0.75587124  0.63187707  0.75325471  1
  O  O363  1  0.35910193  0.12079212  0.37629746  1
  O  O364  1  0.37513612  0.12722932  0.85768085  1
  O  O365  1  0.36491381  0.61599919  0.37955480  1
  O  O366  1  0.36231695  0.62278362  0.87506297  1
  O  O367  1  0.86932029  0.12469279  0.37142186  1
  O  O368  1  0.86870745  0.11802797  0.86923237  1
  O  O369  1  0.87349623  0.61178977  0.38198415  1
  O  O370  1  0.87786776  0.60842654  0.87473653  1
  O  O371  1  0.12624149  0.37889409  0.13055378  1
  O  O372  1  0.12085451  0.38779573  0.62795989  1
  O  O373  1  0.12637837  0.87791033  0.12950056  1
  O  O374  1  0.11587824  0.86861109  0.63835921  1
  O  O375  1  0.63119431  0.38256217  0.14462864  1
  O  O376  1  0.63188649  0.38377181  0.63108258  1
  O  O377  1  0.62969119  0.87897534  0.13120639  1
  O  O378  1  0.63114204  0.87732932  0.63057430  1
  O  O379  1  0.10947068  0.26150685  0.25199984  1
  O  O380  1  0.13023314  0.25751620  0.75902467  1
  O  O381  1  0.11404261  0.75945151  0.25705193  1
  O  O382  1  0.11476407  0.75797843  0.75120146  1
  O  O383  1  0.63649536  0.26826954  0.26939277  1
  O  O384  1  0.61529562  0.26067397  0.74294709  1
  O  O385  1  0.61936636  0.76206744  0.25617244  1
  O  O386  1  0.61612004  0.75685981  0.75644093  1
  O  O387  1  0.37148699  0.25295225  0.25758130  1
  O  O388  1  0.37860541  0.24364300  0.74088073  1
  O  O389  1  0.37802352  0.74262597  0.25869187  1
  O  O390  1  0.37937243  0.75019115  0.74100119  1
  O  O391  1  0.88101417  0.24783576  0.24091636  1
  O  O392  1  0.87812473  0.23721922  0.75271198  1
  O  O393  1  0.88966842  0.75129562  0.25916200  1
  O  O394  1  0.88671882  0.75336754  0.74545863  1
  O  O395  1  0.38584424  0.50558312  0.49796563  1
  O  O396  1  0.39020155  0.50067458  1.00078236  1
  O  O397  1  0.37306666  0.99949481  0.48920306  1
  O  O398  1  0.36272964  0.98068381  0.99396624  1
  O  O399  1  0.87248708  0.48860092  0.49329939  1
  O  O400  1  0.89381417  0.48048340  0.99865453  1
  O  O401  1  0.88373175  0.99972378  0.49395760  1
  O  O402  1  0.86880471  0.99894456  0.98936813  1
  O  O403  1  0.13119997  0.00582591  0.00423133  1
  O  O404  1  0.11118061  0.00929192  0.49327666  1
  O  O405  1  0.13017329  0.51044635  0.00630720  1
  O  O406  1  0.12695028  0.51170270  0.50869956  1
  O  O407  1  0.63101627  0.00718734  0.00552724  1
  O  O408  1  0.62377215  0.01600207  0.50066076  1
  O  O409  1  0.61995952  0.51246765  0.00377611  1
  O  O410  1  0.61442916  0.50693057  0.51268025  1
  O  O411  1  0.36389299  0.38306244  0.13135081  1
  O  O412  1  0.38201968  0.36230267  0.62608236  1
  O  O413  1  0.36321908  0.88018020  0.11621057  1
  O  O414  1  0.37849772  0.86125433  0.62109874  1
  O  O415  1  0.88158373  0.36444332  0.10898377  1
  O  O416  1  0.86964224  0.37762636  0.62041193  1
  O  O417  1  0.86297309  0.87894154  0.12474124  1
  O  O418  1  0.87205969  0.87041820  0.61998596  1
  O  O419  1  0.13375896  0.12857969  0.38222227  1
  O  O420  1  0.12274861  0.12740533  0.88699990  1
  O  O421  1  0.12565525  0.62890038  0.38123331  1
  O  O422  1  0.13332461  0.62346761  0.88337131  1
  O  O423  1  0.63196308  0.13438149  0.38264701  1
  O  O424  1  0.63883077  0.11867671  0.87926763  1
  O  O425  1  0.62949431  0.63030074  0.37983212  1
  O  O426  1  0.62454172  0.63316515  0.88215934  1
