# generated using pymatgen
data_V85Zn86O256
_symmetry_space_group_name_H-M   'P 1'
_cell_length_a   16.94663073
_cell_length_b   16.93985907
_cell_length_c   16.94232125
_cell_angle_alpha   90.01418203
_cell_angle_beta   90.01034536
_cell_angle_gamma   90.10071651
_symmetry_Int_Tables_number   1
_chemical_formula_structural   V85Zn86O256
_chemical_formula_sum   'V85 Zn86 O256'
_cell_volume   4863.68432940
_cell_formula_units_Z   1
loop_
 _symmetry_equiv_pos_site_id
 _symmetry_equiv_pos_as_xyz
  1  'x, y, z'
loop_
 _atom_site_type_symbol
 _atom_site_label
 _atom_site_symmetry_multiplicity
 _atom_site_fract_x
 _atom_site_fract_y
 _atom_site_fract_z
 _atom_site_occupancy
  V  V0  1  0.74951422  0.25605358  0.50070384  1
  V  V1  1  0.37362392  0.24779979  0.62411800  1
  V  V2  1  0.37149680  0.75229834  0.11582031  1
  V  V3  1  -0.00013044  0.50329758  0.00230338  1
  V  V4  1  0.00442221  0.86733895  0.36783788  1
  V  V5  1  0.74505381  0.74761196  0.49760394  1
  V  V6  1  0.25213961  0.12506087  0.87608275  1
  V  V7  1  0.50470802  0.74961343  0.74214489  1
  V  V8  1  0.00284260  0.38165590  0.38482979  1
  V  V9  1  0.87937573  0.75048829  0.62217362  1
  V  V10  1  0.62923284  0.76014221  0.86701705  1
  V  V11  1  0.19346366  0.68612335  0.44404261  1
  V  V12  1  0.49797553  0.38340150  0.38631771  1
  V  V13  1  0.13183641  0.37997590  0.25215482  1
  V  V14  1  0.62395169  0.12406007  0.50032788  1
  V  V15  1  0.20417096  0.56827742  0.81333212  1
  V  V16  1  0.00196176  0.25223097  0.25005533  1
  V  V17  1  0.37173290  0.12602038  0.24823978  1
  V  V18  1  0.74352178  -0.00023326  0.24802822  1
  V  V19  1  0.62111300  -0.00631814  0.63009988  1
  V  V20  1  0.87629598  0.88654238  -0.00205702  1
  V  V21  1  0.87234218  0.00132893  0.37477445  1
  V  V22  1  0.73961554  0.49558172  0.74540552  1
  V  V23  1  0.36434136  0.49745822  0.37872198  1
  V  V24  1  0.74740455  -0.00510312  0.75441766  1
  V  V25  1  0.74715426  0.62270061  0.37150648  1
  V  V26  1  0.23745551  -0.00335731  0.24821580  1
  V  V27  1  0.87310603  0.25888660  0.12754142  1
  V  V28  1  0.49083663  0.74232130  0.24886398  1
  V  V29  1  0.12757587  0.25063239  0.87459305  1
  V  V30  1  0.87398916  0.25120613  0.62633055  1
  V  V31  1  0.50448246  0.37189720  0.86285546  1
  V  V32  1  -0.00134563  0.88260125  0.87099168  1
  V  V33  1  0.74473086  0.87539101  0.62511454  1
  V  V34  1  0.00780092  0.75584835  0.74499612  1
  V  V35  1  0.12740334  0.11950913  0.00413798  1
  V  V36  1  0.74730705  0.25584860  0.00298195  1
  V  V37  1  0.35787313  0.61170238  0.24416851  1
  V  V38  1  0.88081267  0.75380431  0.13031197  1
  V  V39  1  0.00083498  0.37538848  0.87740153  1
  V  V40  1  0.24437531  0.87875737  0.11549910  1
  V  V41  1  0.61566182  0.87665462  0.24346653  1
  V  V42  1  0.13266384  0.75854745  0.86741101  1
  V  V43  1  0.87880209  0.50184095  0.38096973  1
  V  V44  1  0.75275630  0.12186730  0.87799979  1
  V  V45  1  0.49788611  0.25254503  0.24867450  1
  V  V46  1  0.88330760  0.62805334  0.25230739  1
  V  V47  1  0.25365170  0.25238750  0.50253711  1
  V  V48  1  0.62227653  0.25134183  0.37456487  1
  V  V49  1  0.37785466  -0.00426326  0.88406704  1
  V  V50  1  0.50031260  0.12908692  0.63084101  1
  V  V51  1  0.36931285  -0.00130292  0.37493168  1
  V  V52  1  0.13581537  0.62525452  -0.00337757  1
  V  V53  1  0.62106016  0.11901635  0.00750543  1
  V  V54  1  0.62351173  0.25177327  0.86436339  1
  V  V55  1  -0.00032210  0.00369914  0.50012642  1
  V  V56  1  0.12905897  0.50223741  0.13146581  1
  V  V57  1  0.74409327  0.87938827  0.12563814  1
  V  V58  1  0.00322494  0.11934724  0.12587236  1
  V  V59  1  0.49997974  0.87576034  0.87490540  1
  V  V60  1  0.12607667  0.25001212  0.37801940  1
  V  V61  1  0.87495248  0.12006723  0.75433622  1
  V  V62  1  0.38683145  0.37872099  -0.00132543  1
  V  V63  1  -0.00043031  0.25095902  0.75238679  1
  V  V64  1  0.24754503  0.38438377  0.63160319  1
  V  V65  1  0.25442084  0.37802576  0.12323590  1
  V  V66  1  0.75178619  0.75175306  0.00114596  1
  V  V67  1  0.75141514  0.62793557  0.87546513  1
  V  V68  1  0.87149273  0.50201607  0.87736203  1
  V  V69  1  0.74771214  0.12460251  0.37528754  1
  V  V70  1  0.36783124  0.74741921  0.62549041  1
  V  V71  1  0.12319314  -0.00444609  0.63025581  1
  V  V72  1  0.87373233  0.37730426  0.00432036  1
  V  V73  1  0.87314786  0.12654498  0.24904835  1
  V  V74  1  0.24842890  -0.00772801  0.75061640  1
  V  V75  1  0.87272097  0.62753061  0.74314691  1
  V  V76  1  0.62792723  0.49214250  0.11960207  1
  V  V77  1  0.87130935  0.87719962  0.49683914  1
  V  V78  1  0.49698968  -0.00000277  0.49989486  1
  V  V79  1  0.05102097  0.55416165  0.56318585  1
  V  V80  1  0.37898171  0.12664916  0.75361716  1
  V  V81  1  0.00145992  0.63041581  0.12581711  1
  V  V82  1  0.49266423  0.87407650  0.37341969  1
  V  V83  1  0.60687814  0.61775638  0.50063294  1
  V  V84  1  0.38549219  0.51106604  0.86962579  1
  Zn  Zn85  1  0.43465967  0.58222745  0.69827238  1
  Zn  Zn86  1  0.12902943  0.38680700  0.75144092  1
  Zn  Zn87  1  0.00035224  0.12689603  0.62666440  1
  Zn  Zn88  1  0.24412804  0.87228657  0.62063568  1
  Zn  Zn89  1  0.62394631  0.62266076  0.00284683  1
  Zn  Zn90  1  0.75407024  0.48446321  0.24436642  1
  Zn  Zn91  1  0.61675712  0.74724917  0.37379929  1
  Zn  Zn92  1  0.25325485  0.25076517  0.00042294  1
  Zn  Zn93  1  0.63098316  0.37345746  0.24543161  1
  Zn  Zn94  1  0.00135781  0.00118000  -0.00093625  1
  Zn  Zn95  1  0.25618382  0.75328009  -0.01105380  1
  Zn  Zn96  1  0.12527620  0.12683192  0.50478547  1
  Zn  Zn97  1  0.87945612  0.38368968  0.50983794  1
  Zn  Zn98  1  0.36566917  0.86571827  0.49811688  1
  Zn  Zn99  1  0.73807181  0.37231561  0.63292941  1
  Zn  Zn100  1  0.50202667  -0.01533224  0.01458007  1
  Zn  Zn101  1  0.37672756  0.25055993  0.12255409  1
  Zn  Zn102  1  0.50246070  0.11763945  0.12935530  1
  Zn  Zn103  1  0.59676383  0.49517113  0.61805442  1
  Zn  Zn104  1  0.50088387  0.61809342  0.11764801  1
  Zn  Zn105  1  0.24766454  0.12622188  0.37537578  1
  Zn  Zn106  1  0.11847473  0.85807885  0.24584646  1
  Zn  Zn107  1  0.18974249  0.19079010  0.18775585  1
  Zn  Zn108  1  0.18728902  0.18159686  0.68951720  1
  Zn  Zn109  1  0.18582281  0.69029253  0.18448119  1
  Zn  Zn110  1  0.19964689  0.65960929  0.63464551  1
  Zn  Zn111  1  0.68850755  0.19422052  0.18769102  1
  Zn  Zn112  1  0.68839060  0.18308709  0.68687476  1
  Zn  Zn113  1  0.68512760  0.68642449  0.18893640  1
  Zn  Zn114  1  0.68209515  0.68293063  0.68236012  1
  Zn  Zn115  1  0.31261356  0.31728799  0.31351380  1
  Zn  Zn116  1  0.31586989  0.31283680  0.81095163  1
  Zn  Zn117  1  0.27304168  0.78558951  0.30036856  1
  Zn  Zn118  1  0.31897995  0.81134548  0.80502803  1
  Zn  Zn119  1  0.81415285  0.31519889  0.31717228  1
  Zn  Zn120  1  0.81148123  0.31240072  0.81647273  1
  Zn  Zn121  1  0.81145746  0.81231273  0.31176694  1
  Zn  Zn122  1  0.81698592  0.81634584  0.81148592  1
  Zn  Zn123  1  0.18966265  0.43989451  0.44811278  1
  Zn  Zn124  1  0.19117108  0.43538526  0.94215303  1
  Zn  Zn125  1  0.18491307  0.93562924  0.43966134  1
  Zn  Zn126  1  0.18536090  0.93906933  0.93473537  1
  Zn  Zn127  1  0.68596536  0.43908728  0.43446038  1
  Zn  Zn128  1  0.68536582  0.43707991  0.93829952  1
  Zn  Zn129  1  0.68037609  0.93512629  0.43492698  1
  Zn  Zn130  1  0.68710132  0.93829940  0.93777236  1
  Zn  Zn131  1  0.31298422  0.06085934  0.06457805  1
  Zn  Zn132  1  0.30763719  0.06184474  0.56046337  1
  Zn  Zn133  1  0.31724787  0.55948000  0.05851548  1
  Zn  Zn134  1  0.32107015  0.56143272  0.55640819  1
  Zn  Zn135  1  0.81113056  0.06551612  0.06522824  1
  Zn  Zn136  1  0.81113169  0.06533855  0.56520762  1
  Zn  Zn137  1  0.80772036  0.56368845  0.06668713  1
  Zn  Zn138  1  0.81071909  0.56490700  0.56171677  1
  Zn  Zn139  1  0.44602098  0.43778412  0.18651218  1
  Zn  Zn140  1  0.43784047  0.42153568  0.68499334  1
  Zn  Zn141  1  0.42884295  0.93660649  0.18473728  1
  Zn  Zn142  1  0.43617246  0.93264513  0.69302189  1
  Zn  Zn143  1  0.94149741  0.44149689  0.19439610  1
  Zn  Zn144  1  0.93263104  0.43489567  0.69253260  1
  Zn  Zn145  1  0.93601012  0.93910125  0.18904498  1
  Zn  Zn146  1  0.93439712  0.93769737  0.68546297  1
  Zn  Zn147  1  0.06047245  0.06246016  0.31419884  1
  Zn  Zn148  1  0.06401582  0.06304887  0.81327942  1
  Zn  Zn149  1  0.06742785  0.56996623  0.32051581  1
  Zn  Zn150  1  0.04344087  0.56660940  0.80723688  1
  Zn  Zn151  1  0.55896048  0.06156125  0.30939937  1
  Zn  Zn152  1  0.56448434  0.06301638  0.81575978  1
  Zn  Zn153  1  0.56504211  0.55897786  0.30546945  1
  Zn  Zn154  1  0.56583779  0.56497225  0.82358016  1
  Zn  Zn155  1  0.43637593  0.18745188  0.43668447  1
  Zn  Zn156  1  0.43955835  0.19137147  0.93905981  1
  Zn  Zn157  1  0.41487636  0.68787059  0.43021647  1
  Zn  Zn158  1  0.44365862  0.69028811  0.93637923  1
  Zn  Zn159  1  0.93717443  0.19067668  0.43763405  1
  Zn  Zn160  1  0.93739840  0.18731420  0.94006926  1
  Zn  Zn161  1  0.94035239  0.68751966  0.44106310  1
  Zn  Zn162  1  0.94075345  0.69443546  0.93754465  1
  Zn  Zn163  1  0.06357028  0.31072639  0.06264849  1
  Zn  Zn164  1  0.06675363  0.31806394  0.56638603  1
  Zn  Zn165  1  0.06593810  0.81262015  0.05642155  1
  Zn  Zn166  1  0.06459077  0.81414645  0.55588747  1
  Zn  Zn167  1  0.56291404  0.30961465  0.06262652  1
  Zn  Zn168  1  0.56183293  0.31489282  0.56564297  1
  Zn  Zn169  1  0.56055304  0.80368902  0.05989801  1
  Zn  Zn170  1  0.55854512  0.81114522  0.55680102  1
  O  O171  1  0.11580252  0.13594717  0.11641312  1
  O  O172  1  0.11825183  0.11445097  0.62476244  1
  O  O173  1  0.12172755  0.62066764  0.11643722  1
  O  O174  1  0.09868736  0.61205819  0.63413137  1
  O  O175  1  0.62860704  0.12913188  0.10998655  1
  O  O176  1  0.61734228  0.11681717  0.62116629  1
  O  O177  1  0.62557432  0.61661685  0.12441107  1
  O  O178  1  0.62520503  0.62011620  0.60509600  1
  O  O179  1  0.38800163  0.38599365  0.36556768  1
  O  O180  1  0.38623692  0.37709736  0.88112552  1
  O  O181  1  0.38350202  0.88453330  0.37437089  1
  O  O182  1  0.38520484  0.88427899  0.87041274  1
  O  O183  1  0.88697090  0.38415053  0.37635025  1
  O  O184  1  0.88120732  0.38054048  0.88330728  1
  O  O185  1  0.87815234  0.88350429  0.37807805  1
  O  O186  1  0.88428120  0.86859691  0.88810420  1
  O  O187  1  0.25470618  0.00255972  0.36634210  1
  O  O188  1  0.25824945  0.00448559  0.87024486  1
  O  O189  1  0.26480319  0.48423932  0.37374839  1
  O  O190  1  0.26070483  0.50351350  0.87296647  1
  O  O191  1  0.75203711  0.00462696  0.37002246  1
  O  O192  1  0.74588394  0.00870016  0.86661971  1
  O  O193  1  0.75778066  0.50868999  0.36961830  1
  O  O194  1  0.75264328  0.50981016  0.86847349  1
  O  O195  1  0.24079969  0.48860934  0.11707090  1
  O  O196  1  0.26429292  0.48143161  0.62196838  1
  O  O197  1  0.25443438  0.98703797  0.13181895  1
  O  O198  1  0.24069122  1.00530344  0.63575596  1
  O  O199  1  0.73824279  0.50377019  0.13011885  1
  O  O200  1  0.75652471  0.49977574  0.64154965  1
  O  O201  1  0.75378934  0.98732338  0.13096008  1
  O  O202  1  0.74041439  0.99724656  0.63102031  1
  O  O203  1  0.01299347  0.37086047  0.25684068  1
  O  O204  1  0.00372335  0.37004422  0.75941981  1
  O  O205  1  0.00065825  0.87951561  0.26175709  1
  O  O206  1  -0.01341898  0.86692151  0.75875087  1
  O  O207  1  0.50297628  0.36114380  0.25536756  1
  O  O208  1  0.49806820  0.36488578  0.76477455  1
  O  O209  1  0.50075949  0.86833543  0.25427343  1
  O  O210  1  0.50349305  0.86364331  0.76173912  1
  O  O211  1  0.49091564  0.13499027  0.25185326  1
  O  O212  1  0.49334706  0.11942688  0.74159565  1
  O  O213  1  0.49801355  0.63678452  0.24695751  1
  O  O214  1  0.50666957  0.64373676  0.76185909  1
  O  O215  1  0.99480739  0.13170531  0.24456039  1
  O  O216  1  0.98930683  0.13147821  0.75358298  1
  O  O217  1  0.99023596  0.62522068  0.24660724  1
  O  O218  1  0.97940241  0.64071318  0.75512738  1
  O  O219  1  0.37365271  0.26247669  0.00195886  1
  O  O220  1  0.36537550  0.24058787  0.51030932  1
  O  O221  1  0.37242891  0.74535929  0.01138120  1
  O  O222  1  0.38998803  0.75221016  0.52198904  1
  O  O223  1  0.86904578  0.25525370  0.00875944  1
  O  O224  1  0.86664554  0.24931311  0.50987683  1
  O  O225  1  0.86738055  0.75807707  0.00893780  1
  O  O226  1  0.86681850  0.75538025  0.50588106  1
  O  O227  1  0.12906357  0.24892574  0.49293471  1
  O  O228  1  0.12511302  0.24281767  0.98878023  1
  O  O229  1  0.13085259  0.75176918  0.49051820  1
  O  O230  1  0.12564911  0.74023794  0.98394293  1
  O  O231  1  0.63184998  0.24335732  0.49490220  1
  O  O232  1  0.63379660  0.24232281  0.99426376  1
  O  O233  1  0.63085981  0.74179887  0.49540854  1
  O  O234  1  0.64323055  0.75456500  0.99219168  1
  O  O235  1  0.49802546  0.24368516  0.13458442  1
  O  O236  1  0.49212269  0.23602339  0.61866137  1
  O  O237  1  0.48720169  0.75577671  0.13505334  1
  O  O238  1  0.50315450  0.75407781  0.63937746  1
  O  O239  1  0.99348670  0.24337712  0.13076158  1
  O  O240  1  0.99141959  0.25083266  0.63296622  1
  O  O241  1  0.99156951  0.74491607  0.11809981  1
  O  O242  1  0.98683234  0.76372057  0.62916532  1
  O  O243  1  0.00632984  0.25824054  0.36909507  1
  O  O244  1  0.00594891  0.25515556  0.87241707  1
  O  O245  1  -0.00973509  0.76938889  0.37829670  1
  O  O246  1  0.00792051  0.75971036  0.86713523  1
  O  O247  1  0.50270231  0.25641605  0.36921008  1
  O  O248  1  0.51021385  0.26161672  0.88020397  1
  O  O249  1  0.49064879  0.75815207  0.36511615  1
  O  O250  1  0.51081169  0.75779405  0.86684254  1
  O  O251  1  0.24491900  0.13622799  0.49540315  1
  O  O252  1  0.24406044  0.12816014  0.99628545  1
  O  O253  1  0.23314653  0.62850666  0.52340273  1
  O  O254  1  0.23873493  0.62698463  1.00194073  1
  O  O255  1  0.74421570  0.13349081  0.49619128  1
  O  O256  1  0.74411427  0.13115260  0.99449147  1
  O  O257  1  0.74718920  0.63240442  0.48774813  1
  O  O258  1  0.75411891  0.63662774  0.99172766  1
  O  O259  1  0.26061595  0.37192003  0.00697845  1
  O  O260  1  0.24579751  0.36005540  0.51536102  1
  O  O261  1  0.24593586  0.87669338  0.01150836  1
  O  O262  1  0.25629971  0.88972225  0.50835299  1
  O  O263  1  0.75779542  0.36323844  -0.00615851  1
  O  O264  1  0.75338559  0.36246181  0.49600289  1
  O  O265  1  0.75697961  0.87238239  0.00644302  1
  O  O266  1  0.75107838  0.86807630  0.50204183  1
  O  O267  1  0.11914047  0.49597627  0.23813066  1
  O  O268  1  0.13388718  0.50644170  0.76876761  1
  O  O269  1  0.13608396  1.00126697  0.25250274  1
  O  O270  1  0.13532297  1.00589470  0.74402206  1
  O  O271  1  0.63253476  0.49587793  0.23941870  1
  O  O272  1  0.63904435  0.51059359  0.74967431  1
  O  O273  1  0.62805570  0.98518278  0.25445643  1
  O  O274  1  0.63472600  1.00627433  0.74094195  1
  O  O275  1  0.36659005  0.00749571  0.26010468  1
  O  O276  1  0.36947505  0.00932830  0.75800844  1
  O  O277  1  0.37972191  0.50860468  0.24961566  1
  O  O278  1  0.37881305  0.49811199  0.76700413  1
  O  O279  1  0.86503317  0.00721545  0.25485428  1
  O  O280  1  0.86603920  0.01426161  0.74362639  1
  O  O281  1  0.87311722  0.51107701  0.25822342  1
  O  O282  1  0.86893812  0.51084622  0.75926427  1
  O  O283  1  0.12169042  0.36992027  0.37009383  1
  O  O284  1  0.12123152  0.36761143  0.87512552  1
  O  O285  1  0.10603924  0.88405673  0.37347166  1
  O  O286  1  0.11463019  0.86759725  0.87749049  1
  O  O287  1  0.61341865  0.36782565  0.37482649  1
  O  O288  1  0.61249614  0.36860278  0.88007096  1
  O  O289  1  0.60883210  0.87203999  0.36714437  1
  O  O290  1  0.62528629  0.86528686  0.87327835  1
  O  O291  1  0.37257659  0.12825457  0.13807525  1
  O  O292  1  0.38186842  0.12680071  0.63274290  1
  O  O293  1  0.37791992  0.62713913  0.13132179  1
  O  O294  1  0.37101694  0.64059451  0.62525473  1
  O  O295  1  0.88130028  0.13634956  0.12974743  1
  O  O296  1  0.87459698  0.13590906  0.63520396  1
  O  O297  1  0.87993376  0.63354061  0.13245775  1
  O  O298  1  0.86675788  0.63853791  0.63161459  1
  O  O299  1  0.25160647  0.26560305  0.12363342  1
  O  O300  1  0.25663084  0.24550556  0.61987594  1
  O  O301  1  0.25516069  0.75956529  0.11663286  1
  O  O302  1  0.26392919  0.75578884  0.63704365  1
  O  O303  1  0.76152378  0.24582575  0.11496881  1
  O  O304  1  0.75478385  0.24900783  0.61792887  1
  O  O305  1  0.75677419  0.75977882  0.11856304  1
  O  O306  1  0.75294517  0.75479168  0.61374658  1
  O  O307  1  0.24251204  0.25353432  0.38272053  1
  O  O308  1  0.24311055  0.24427520  0.87588873  1
  O  O309  1  0.27690105  0.73224720  0.40148888  1
  O  O310  1  0.23848037  0.75889203  0.86980433  1
  O  O311  1  0.74558362  0.24239698  0.38376253  1
  O  O312  1  0.74489889  0.24329400  0.88434704  1
  O  O313  1  0.74886755  0.74616779  0.38556901  1
  O  O314  1  0.74884139  0.74768099  0.87912984  1
  O  O315  1  0.00641591  0.12454849  0.00808594  1
  O  O316  1  -0.00374525  0.11396120  0.50078410  1
  O  O317  1  0.00974011  0.62165878  0.00287533  1
  O  O318  1  0.00081293  0.61590268  0.49897694  1
  O  O319  1  0.51554780  0.12741342  0.00062193  1
  O  O320  1  0.50508098  0.11862521  0.50727863  1
  O  O321  1  0.51226349  0.63993772  0.00606912  1
  O  O322  1  0.51078111  0.63225684  0.48599627  1
  O  O323  1  0.49667704  0.36897236  0.48421271  1
  O  O324  1  0.48925369  0.37200707  0.99549305  1
  O  O325  1  0.49625187  0.88286534  0.48958211  1
  O  O326  1  0.50955362  0.87257203  0.98268565  1
  O  O327  1  0.99702187  0.36650776  0.48787236  1
  O  O328  1  0.99509736  0.38221458  0.99687909  1
  O  O329  1  0.99140787  0.88765684  0.49114203  1
  O  O330  1  0.99271549  0.87857422  0.99400864  1
  O  O331  1  0.49755777  0.48572314  0.36725120  1
  O  O332  1  0.49488744  0.48754033  0.87435181  1
  O  O333  1  0.49097145  0.99406771  0.37717064  1
  O  O334  1  0.49435504  0.99216296  0.87481903  1
  O  O335  1  0.99331713  0.49166069  0.36773083  1
  O  O336  1  0.99068066  0.49684609  0.88284443  1
  O  O337  1  0.98970363  0.99760656  0.38145060  1
  O  O338  1  1.00238628  0.98720747  0.87502068  1
  O  O339  1  -0.00549043  0.01578162  0.12531895  1
  O  O340  1  0.00257788  0.00208958  0.61751985  1
  O  O341  1  0.00744667  0.50871083  0.12033558  1
  O  O342  1  -0.01624075  0.49547845  0.61416494  1
  O  O343  1  0.49459830  0.00357517  0.12532999  1
  O  O344  1  0.50487284  0.00614572  0.62309872  1
  O  O345  1  0.51945984  0.50235735  0.12889522  1
  O  O346  1  0.48507992  0.50513175  0.63280326  1
  O  O347  1  0.23789134  0.37354272  0.24226517  1
  O  O348  1  0.24816768  0.36933357  0.73758210  1
  O  O349  1  0.25038550  0.88663217  0.24131404  1
  O  O350  1  0.25463794  0.88990086  0.74685312  1
  O  O351  1  0.74521743  0.36960923  0.25246049  1
  O  O352  1  0.75338848  0.39250081  0.75586956  1
  O  O353  1  0.73927614  0.87708521  0.24329583  1
  O  O354  1  0.75686788  0.88869500  0.74408920  1
  O  O355  1  0.25479806  0.11773412  0.25089564  1
  O  O356  1  0.25846357  0.11676017  0.75936350  1
  O  O357  1  0.26019776  0.61324698  0.23766128  1
  O  O358  1  0.24779341  0.62125171  0.74281115  1
  O  O359  1  0.75214856  0.12044241  0.25450882  1
  O  O360  1  0.75554887  0.11698672  0.75809041  1
  O  O361  1  0.76118724  0.63386622  0.26330251  1
  O  O362  1  0.75683106  0.62127626  0.75571828  1
  O  O363  1  0.37248971  0.11893241  0.36364436  1
  O  O364  1  0.37365005  0.12086982  0.87017308  1
  O  O365  1  0.37801079  0.60812047  0.35510206  1
  O  O366  1  0.38170607  0.60998682  0.87925938  1
  O  O367  1  0.86789997  0.12199050  0.36874284  1
  O  O368  1  0.86178649  0.13076257  0.87021337  1
  O  O369  1  0.87196893  0.62137906  0.36884425  1
  O  O370  1  0.86532689  0.62633519  0.86999152  1
  O  O371  1  0.12983845  0.38279576  0.13076948  1
  O  O372  1  0.14057930  0.37160455  0.63426569  1
  O  O373  1  0.13818533  0.86821153  0.12796462  1
  O  O374  1  0.12186290  0.89082979  0.62239581  1
  O  O375  1  0.62303945  0.38577260  0.12312750  1
  O  O376  1  0.62714374  0.38449439  0.61998926  1
  O  O377  1  0.63297843  0.86822682  0.13133791  1
  O  O378  1  0.62760647  0.88728674  0.61792938  1
  O  O379  1  0.12191715  0.25954950  0.25770790  1
  O  O380  1  0.11860335  0.24501339  0.76385062  1
  O  O381  1  0.16320682  0.75635470  0.26930448  1
  O  O382  1  0.10914987  0.74710896  0.75406485  1
  O  O383  1  0.61552589  0.24711033  0.25847165  1
  O  O384  1  0.63351518  0.24440977  0.76520941  1
  O  O385  1  0.61307482  0.76013823  0.25176800  1
  O  O386  1  0.62068616  0.74927411  0.75521914  1
  O  O387  1  0.37961235  0.24316175  0.25027283  1
  O  O388  1  0.37091723  0.23334997  0.74343547  1
  O  O389  1  0.37288817  0.73401941  0.24035586  1
  O  O390  1  0.39237131  0.75121334  0.73988801  1
  O  O391  1  0.88088708  0.24546887  0.24467382  1
  O  O392  1  0.87595251  0.24174635  0.74607231  1
  O  O393  1  0.87184971  0.74602215  0.23744501  1
  O  O394  1  0.87605534  0.74625022  0.73897731  1
  O  O395  1  0.37856886  0.50597819  0.47728737  1
  O  O396  1  0.37153639  0.48654314  0.98592628  1
  O  O397  1  0.38005224  1.00785388  0.48572109  1
  O  O398  1  0.37967281  1.00698929  0.98681359  1
  O  O399  1  0.86613704  0.49933700  0.48510534  1
  O  O400  1  0.87757759  0.49739963  0.99722654  1
  O  O401  1  0.87712756  0.99680751  0.49613833  1
  O  O402  1  0.87588902  0.98988114  1.00455552  1
  O  O403  1  0.12276964  0.01542367  -0.00298574  1
  O  O404  1  0.11309266  0.00571968  0.50573052  1
  O  O405  1  0.12063483  0.50702987  0.00675852  1
  O  O406  1  0.11484285  0.49390026  0.51026666  1
  O  O407  1  0.62440027  0.01602247  -0.00463057  1
  O  O408  1  0.61817371  0.00574964  0.50704636  1
  O  O409  1  0.63505331  0.50429217  0.01286264  1
  O  O410  1  0.62431184  0.51429809  0.49541845  1
  O  O411  1  0.37084850  0.37872253  0.11555739  1
  O  O412  1  0.36394352  0.35359793  0.63092268  1
  O  O413  1  0.35816192  0.86300099  0.12971065  1
  O  O414  1  0.37590701  0.86350242  0.62517481  1
  O  O415  1  0.88478817  0.36522373  0.12305705  1
  O  O416  1  0.86555257  0.36177371  0.62766249  1
  O  O417  1  0.86938133  0.86929060  0.12060137  1
  O  O418  1  0.86417428  0.87038933  0.61615829  1
  O  O419  1  0.12305788  0.14113760  0.37407978  1
  O  O420  1  0.13061731  0.13186036  0.88295287  1
  O  O421  1  0.14284978  0.62374468  0.38184133  1
  O  O422  1  0.13343670  0.62736243  0.87314920  1
  O  O423  1  0.62806970  0.12980093  0.37994945  1
  O  O424  1  0.63428137  0.13216814  0.88392253  1
  O  O425  1  0.63271659  0.62697184  0.37811439  1
  O  O426  1  0.64029501  0.63745239  0.87788500  1
