# generated using pymatgen
data_V85Zn86O256
_symmetry_space_group_name_H-M   'P 1'
_cell_length_a   16.92535449
_cell_length_b   16.92991452
_cell_length_c   16.93231697
_cell_angle_alpha   90.02411915
_cell_angle_beta   89.99397856
_cell_angle_gamma   89.98476929
_symmetry_Int_Tables_number   1
_chemical_formula_structural   V85Zn86O256
_chemical_formula_sum   'V85 Zn86 O256'
_cell_volume   4851.86683409
_cell_formula_units_Z   1
loop_
 _symmetry_equiv_pos_site_id
 _symmetry_equiv_pos_as_xyz
  1  'x, y, z'
loop_
 _atom_site_type_symbol
 _atom_site_label
 _atom_site_symmetry_multiplicity
 _atom_site_fract_x
 _atom_site_fract_y
 _atom_site_fract_z
 _atom_site_occupancy
  V  V0  1  0.62651757  0.00069431  0.12647791  1
  V  V1  1  0.62664024  0.62690423  0.49927491  1
  V  V2  1  0.49857250  0.50052379  -0.00117107  1
  V  V3  1  0.75234482  0.75043023  0.49719843  1
  V  V4  1  0.63054876  0.13227420  0.50274674  1
  V  V5  1  0.75224754  0.00241439  0.75914722  1
  V  V6  1  0.11616240  0.87126876  0.74841322  1
  V  V7  1  0.62808642  0.49951925  0.63733851  1
  V  V8  1  0.24937563  0.87171350  0.62589787  1
  V  V9  1  0.24891786  0.62403494  0.37151091  1
  V  V10  1  0.75432883  0.87327900  0.62457034  1
  V  V11  1  0.50134992  0.00080772  0.00239948  1
  V  V12  1  0.62422572  0.50192921  0.12058186  1
  V  V13  1  0.37147930  0.62175153  0.75065675  1
  V  V14  1  0.87612297  0.50030757  0.37428155  1
  V  V15  1  0.24842472  -0.00194474  0.75145873  1
  V  V16  1  0.24006864  0.49812298  0.74775865  1
  V  V17  1  0.37673607  0.87111005  0.50077637  1
  V  V18  1  0.35747492  0.24977732  0.12559635  1
  V  V19  1  0.24570052  0.12165524  0.88110126  1
  V  V20  1  0.00333624  0.25751247  0.76090290  1
  V  V21  1  0.00410454  -0.00228000  0.49394806  1
  V  V22  1  0.11823103  0.74680090  0.86995853  1
  V  V23  1  0.87707733  0.00626066  0.88116073  1
  V  V24  1  0.11813395  0.11513601  -0.00494646  1
  V  V25  1  0.00298470  0.37390701  0.36360343  1
  V  V26  1  0.74652251  0.37207409  0.62354126  1
  V  V27  1  0.62673042  0.12468346  -0.00141977  1
  V  V28  1  0.51025837  0.86912898  0.37772855  1
  V  V29  1  0.87528916  0.87618853  0.00102486  1
  V  V30  1  0.62657589  0.24652796  0.87167055  1
  V  V31  1  0.25145177  0.12543327  0.38307209  1
  V  V32  1  0.11286627  0.63075598  0.01366138  1
  V  V33  1  0.75035361  0.37692959  0.12225997  1
  V  V34  1  0.50333893  0.25308026  0.74808174  1
  V  V35  1  0.75104298  0.13460860  0.38005891  1
  V  V36  1  0.37473698  0.12372210  0.75124159  1
  V  V37  1  -0.00058224  0.87765371  0.87870875  1
  V  V38  1  0.76956187  0.50297192  0.75868292  1
  V  V39  1  0.49943613  0.12971189  0.12961249  1
  V  V40  1  0.13607034  0.25855382  0.37428290  1
  V  V41  1  0.24897614  0.74988866  0.00061426  1
  V  V42  1  0.75181405  0.50170301  0.24775337  1
  V  V43  1  0.49642817  0.62677421  0.12425502  1
  V  V44  1  0.00560490  0.49731331  0.49997031  1
  V  V45  1  0.88642559  0.74470734  0.11973823  1
  V  V46  1  0.38088974  0.49332402  0.37515660  1
  V  V47  1  0.50066584  0.62404874  0.62534657  1
  V  V48  1  0.75004504  0.86735504  0.12317083  1
  V  V49  1  0.50313082  -0.00290369  0.50224929  1
  V  V50  1  0.74737889  0.62985423  0.37042544  1
  V  V51  1  0.37335305  -0.00234717  0.37201547  1
  V  V52  1  0.87675302  0.25096224  0.61555429  1
  V  V53  1  0.50306381  0.74772950  0.75880843  1
  V  V54  1  0.36925641  0.24998850  0.61654422  1
  V  V55  1  0.87579963  0.12621002  0.25031954  1
  V  V56  1  0.12375457  0.00288599  0.62384146  1
  V  V57  1  0.37642249  -0.00473669  0.87762251  1
  V  V58  1  0.24096002  0.37543567  0.61608559  1
  V  V59  1  0.61686120  0.37635827  0.25689310  1
  V  V60  1  0.19366984  0.29624126  -0.05968231  1
  V  V61  1  0.74862043  -0.00014356  0.25183691  1
  V  V62  1  -0.00643867  0.50331759  -0.00395868  1
  V  V63  1  0.37566911  0.36788550  0.00330904  1
  V  V64  1  0.24489755  0.74957137  0.49536964  1
  V  V65  1  0.75513380  0.63895906  0.87742185  1
  V  V66  1  0.87974188  -0.00591724  0.37556148  1
  V  V67  1  -0.00396066  0.11409400  0.12006497  1
  V  V68  1  0.00220514  0.62041619  0.63562272  1
  V  V69  1  0.12819864  0.00234746  0.12764209  1
  V  V70  1  0.12029300  0.62723294  0.49533063  1
  V  V71  1  0.00202148  0.74807835  0.26843771  1
  V  V72  1  0.87548699  0.37955096  -0.01949606  1
  V  V73  1  0.62938671  -0.00180389  0.62737884  1
  V  V74  1  0.62773451  0.86882845  0.75781523  1
  V  V75  1  0.36653972  0.12156957  0.25082241  1
  V  V76  1  0.87286610  0.12792171  0.75001196  1
  V  V77  1  0.88201440  0.74405179  0.63538257  1
  V  V78  1  0.75018849  0.24548902  -0.00649697  1
  V  V79  1  0.50341264  0.37548677  0.87039491  1
  V  V80  1  0.50413992  0.74756319  0.25524840  1
  V  V81  1  0.50051757  0.12273908  0.62736714  1
  V  V82  1  0.11789034  0.87834345  0.26264533  1
  V  V83  1  0.87410055  0.25224273  0.12550859  1
  V  V84  1  0.24766627  0.87608752  0.13346474  1
  Zn  Zn85  1  0.88193243  0.62331062  0.24318978  1
  Zn  Zn86  1  0.12897137  0.13120690  0.50219713  1
  Zn  Zn87  1  0.37370847  0.74803505  0.62632000  1
  Zn  Zn88  1  0.12330751  0.48125568  0.13213923  1
  Zn  Zn89  1  0.62327691  0.64331829  -0.01206001  1
  Zn  Zn90  1  0.50729934  0.86960205  0.88372474  1
  Zn  Zn91  1  0.88490382  0.86966353  0.49648063  1
  Zn  Zn92  1  0.24671103  0.62629766  0.87387542  1
  Zn  Zn93  1  0.50492354  0.49365340  0.49626331  1
  Zn  Zn94  1  0.37208521  0.62464104  0.25057612  1
  Zn  Zn95  1  0.62985300  0.86823100  0.25605360  1
  Zn  Zn96  1  0.37284769  0.49843131  0.87383695  1
  Zn  Zn97  1  0.00886892  0.24925207  0.24627877  1
  Zn  Zn98  1  0.87229649  0.37022956  0.49566696  1
  Zn  Zn99  1  0.37306909  0.87497257  0.00455197  1
  Zn  Zn100  1  0.37294478  0.75155848  0.12786676  1
  Zn  Zn101  1  0.24351850  0.48273128  0.24438560  1
  Zn  Zn102  1  0.62395184  0.26347223  0.38866784  1
  Zn  Zn103  1  0.38030429  0.37164980  0.49850535  1
  Zn  Zn104  1  0.49977106  0.25131451  0.25866527  1
  Zn  Zn105  1  0.12373988  0.37203254  0.75610024  1
  Zn  Zn106  1  0.00269534  0.12949901  0.62424847  1
  Zn  Zn107  1  0.18511878  0.31672923  0.18731190  1
  Zn  Zn108  1  0.18725571  0.18977423  0.69135766  1
  Zn  Zn109  1  0.18295054  0.69178437  0.19044497  1
  Zn  Zn110  1  0.18311325  0.68591537  0.68342150  1
  Zn  Zn111  1  0.68887597  0.19005754  0.18852666  1
  Zn  Zn112  1  0.68986249  0.18800132  0.68823457  1
  Zn  Zn113  1  0.68525546  0.68790425  0.18303928  1
  Zn  Zn114  1  0.69238170  0.68425329  0.69180042  1
  Zn  Zn115  1  0.31916058  0.30777321  0.31551846  1
  Zn  Zn116  1  0.31996307  0.31738388  0.80392123  1
  Zn  Zn117  1  0.31432340  0.81040360  0.31192193  1
  Zn  Zn118  1  0.31130686  0.81040456  0.81314296  1
  Zn  Zn119  1  0.81081490  0.31515062  0.31011445  1
  Zn  Zn120  1  0.80645555  0.31204523  0.80261776  1
  Zn  Zn121  1  0.81603204  0.81115698  0.31018447  1
  Zn  Zn122  1  0.81988774  0.81461944  0.80807968  1
  Zn  Zn123  1  0.18905910  0.44091245  0.43545224  1
  Zn  Zn124  1  0.18685301  0.45775968  0.94261681  1
  Zn  Zn125  1  0.19128963  0.94030046  0.43874638  1
  Zn  Zn126  1  0.18589951  0.93551210  0.94085699  1
  Zn  Zn127  1  0.68969497  0.44378877  0.44196048  1
  Zn  Zn128  1  0.68637156  0.43672494  0.93312543  1
  Zn  Zn129  1  0.69193816  0.94125345  0.43956089  1
  Zn  Zn130  1  0.69079065  0.81506742  0.93949871  1
  Zn  Zn131  1  0.30882589  0.06329517  0.06452700  1
  Zn  Zn132  1  0.31375080  0.05928299  0.56235244  1
  Zn  Zn133  1  0.30877333  0.56005340  0.06464117  1
  Zn  Zn134  1  0.31070584  0.55880008  0.56146128  1
  Zn  Zn135  1  0.80976488  0.06089351  0.06073656  1
  Zn  Zn136  1  0.81604524  0.06174507  0.56303757  1
  Zn  Zn137  1  0.81169460  0.56645986  0.05362211  1
  Zn  Zn138  1  0.81559809  0.56123603  0.56274221  1
  Zn  Zn139  1  0.42705722  0.43764161  0.18938125  1
  Zn  Zn140  1  0.43462417  0.43781512  0.68308788  1
  Zn  Zn141  1  0.43768598  0.93587465  0.19036413  1
  Zn  Zn142  1  0.43886682  0.93370309  0.68971696  1
  Zn  Zn143  1  0.94156189  0.44006204  0.18115817  1
  Zn  Zn144  1  0.93915785  0.43449488  0.68592818  1
  Zn  Zn145  1  0.93879595  0.93536816  0.19020153  1
  Zn  Zn146  1  0.93817394  0.93713867  0.68477943  1
  Zn  Zn147  1  0.06625282  0.06736636  0.30966544  1
  Zn  Zn148  1  0.05749485  0.06377982  0.80924855  1
  Zn  Zn149  1  0.06777626  0.56211254  0.30765584  1
  Zn  Zn150  1  0.05952162  0.55837357  0.81774681  1
  Zn  Zn151  1  0.56196518  0.06482391  0.31635828  1
  Zn  Zn152  1  0.56448898  0.06120195  0.81456134  1
  Zn  Zn153  1  0.56359322  0.56301809  0.31154835  1
  Zn  Zn154  1  0.56637839  0.56474353  0.81514295  1
  Zn  Zn155  1  0.44545167  0.18799625  0.43654845  1
  Zn  Zn156  1  0.43581588  0.18629147  0.93819796  1
  Zn  Zn157  1  0.43501651  0.68502614  0.43793334  1
  Zn  Zn158  1  0.43421281  0.68694565  0.93811080  1
  Zn  Zn159  1  0.94514985  0.18445215  0.43683773  1
  Zn  Zn160  1  0.93581692  0.18707171  0.93715333  1
  Zn  Zn161  1  0.93290806  0.68348963  0.43877813  1
  Zn  Zn162  1  0.93390313  0.68926291  0.93145596  1
  Zn  Zn163  1  0.04946308  0.30860305  0.05640402  1
  Zn  Zn164  1  0.06067979  0.31110672  0.55749595  1
  Zn  Zn165  1  0.06039447  0.81770373  0.06186835  1
  Zn  Zn166  1  0.06140087  0.81078504  0.55915718  1
  Zn  Zn167  1  0.56129910  0.31330298  0.06393711  1
  Zn  Zn168  1  0.56170956  0.31471267  0.56454244  1
  Zn  Zn169  1  0.55912533  0.81597187  0.07067794  1
  Zn  Zn170  1  0.56593139  0.80798886  0.56837252  1
  O  O171  1  0.11374173  0.11219378  0.11549290  1
  O  O172  1  0.12769772  0.11574531  0.62460759  1
  O  O173  1  0.11516543  0.64093954  0.11226325  1
  O  O174  1  0.10920939  0.62886549  0.61363060  1
  O  O175  1  0.61889183  0.12129420  0.12183849  1
  O  O176  1  0.62368878  0.11759009  0.62136253  1
  O  O177  1  0.61609116  0.61420315  0.12096697  1
  O  O178  1  0.62050320  0.61931816  0.62131280  1
  O  O179  1  0.37272310  0.38918092  0.37899963  1
  O  O180  1  0.38681549  0.37254814  0.88460176  1
  O  O181  1  0.38290158  0.88071941  0.38104890  1
  O  O182  1  0.37623597  0.88653657  0.87689706  1
  O  O183  1  0.87963804  0.38230587  0.37583390  1
  O  O184  1  0.86604101  0.37141284  0.88319207  1
  O  O185  1  0.86903829  0.89050513  0.37678516  1
  O  O186  1  0.88091110  0.88103009  0.88095450  1
  O  O187  1  0.26599862  0.00553081  0.37988927  1
  O  O188  1  0.25668990  0.00328314  0.87255965  1
  O  O189  1  0.25911711  0.50912672  0.37329060  1
  O  O190  1  0.25424643  0.50662500  0.86552821  1
  O  O191  1  0.75711930  0.00855002  0.36793895  1
  O  O192  1  0.76240689  -0.00396455  0.85980259  1
  O  O193  1  0.75859877  0.50669662  0.36930912  1
  O  O194  1  0.74951485  0.49769575  0.86036281  1
  O  O195  1  0.23581406  0.51603917  0.13282783  1
  O  O196  1  0.25379006  0.48457328  0.63215488  1
  O  O197  1  0.23796622  0.99214524  0.12321863  1
  O  O198  1  0.24059640  0.99307920  0.62915227  1
  O  O199  1  0.74168009  0.49962754  0.12604888  1
  O  O200  1  0.74699382  0.49734834  0.63371533  1
  O  O201  1  0.74873803  0.99140259  0.13358936  1
  O  O202  1  0.74945890  0.99241366  0.63335255  1
  O  O203  1  -0.00760681  0.37152039  0.26083094  1
  O  O204  1  0.00350982  0.36330554  0.74872147  1
  O  O205  1  0.01042234  0.86824839  0.25090389  1
  O  O206  1  0.01145055  0.87806480  0.75489719  1
  O  O207  1  0.51465215  0.37756076  0.24368928  1
  O  O208  1  0.49335455  0.36530160  0.75746273  1
  O  O209  1  0.50276986  0.86768792  0.26077984  1
  O  O210  1  0.50980230  0.86560138  0.75106899  1
  O  O211  1  0.49401728  0.12283784  0.24243375  1
  O  O212  1  0.49510811  0.12870871  0.74573665  1
  O  O213  1  0.50040153  0.63028485  0.24134178  1
  O  O214  1  0.49383855  0.62944723  0.74605106  1
  O  O215  1  0.99245846  0.12770463  0.23970070  1
  O  O216  1  0.98868588  0.13314055  0.74599818  1
  O  O217  1  0.99977192  0.64296839  0.25724936  1
  O  O218  1  1.00699216  0.61874548  0.73435380  1
  O  O219  1  0.37977240  0.25623888  0.00976816  1
  O  O220  1  0.37895894  0.24497614  0.51422086  1
  O  O221  1  0.36335899  0.75321273  0.00180746  1
  O  O222  1  0.36882496  0.75565797  0.50527601  1
  O  O223  1  0.86717209  0.25824082  0.00263580  1
  O  O224  1  0.87884159  0.24717049  0.51154549  1
  O  O225  1  0.87938163  0.75861171  0.01257923  1
  O  O226  1  0.86545840  0.75079520  0.50680126  1
  O  O227  1  0.11852101  0.24566294  0.48152732  1
  O  O228  1  0.12796997  0.23684875  0.99471749  1
  O  O229  1  0.13285048  0.74209186  0.50107970  1
  O  O230  1  0.12536307  0.74630620  0.99188549  1
  O  O231  1  0.62679191  0.23624696  0.50689456  1
  O  O232  1  0.63110789  0.24614576  0.99438756  1
  O  O233  1  0.63902613  0.73709744  0.50978761  1
  O  O234  1  0.62215241  0.75554498  1.00279575  1
  O  O235  1  0.49862881  0.23662206  0.12617295  1
  O  O236  1  0.49518563  0.24233553  0.63366241  1
  O  O237  1  0.49554787  0.74216441  0.13320170  1
  O  O238  1  0.49896506  0.73731767  0.63499236  1
  O  O239  1  0.98551671  0.23856496  0.12451347  1
  O  O240  1  0.99101106  0.25024799  0.63160120  1
  O  O241  1  0.98774416  0.75681897  0.13110981  1
  O  O242  1  0.98968809  0.73808157  0.61815960  1
  O  O243  1  0.00708235  0.25796486  0.37097007  1
  O  O244  1  -0.00739254  0.24902002  0.85926994  1
  O  O245  1  -0.00979329  0.75558390  0.36675821  1
  O  O246  1  0.00541238  0.76461611  0.87607445  1
  O  O247  1  0.51386430  0.24370155  0.37100457  1
  O  O248  1  0.50388955  0.25453141  0.86794548  1
  O  O249  1  0.49747528  0.75781212  0.37056900  1
  O  O250  1  0.49587972  0.75169039  0.86333085  1
  O  O251  1  0.25179535  0.12034552  0.48813874  1
  O  O252  1  0.24202606  0.12067040  0.98741419  1
  O  O253  1  0.24148908  0.63029318  0.49626686  1
  O  O254  1  0.23676410  0.63795131  0.99901939  1
  O  O255  1  0.74304245  0.11747625  0.49180143  1
  O  O256  1  0.74579247  0.13838807  1.00231780  1
  O  O257  1  0.74655173  0.63054003  0.49313767  1
  O  O258  1  0.74335771  0.62266487  0.98265201  1
  O  O259  1  0.25630026  0.36537580  -0.01125584  1
  O  O260  1  0.25448550  0.37917900  0.51337145  1
  O  O261  1  0.24607512  0.86476259  0.01131806  1
  O  O262  1  0.25452201  0.86747564  0.50471467  1
  O  O263  1  0.75570639  0.36711364  0.00322475  1
  O  O264  1  0.75454252  0.38373367  0.51736122  1
  O  O265  1  0.76390674  0.87540745  0.00921397  1
  O  O266  1  0.75073370  0.86618063  0.50660380  1
  O  O267  1  0.12641867  0.49164221  0.24838912  1
  O  O268  1  0.13605623  0.49516527  0.75570608  1
  O  O269  1  0.11888199  0.98819108  0.24150795  1
  O  O270  1  0.12921744  0.99334025  0.74318672  1
  O  O271  1  0.62948886  0.49283915  0.24155615  1
  O  O272  1  0.62944392  0.50195285  0.73912650  1
  O  O273  1  0.63697211  1.00114028  0.24741125  1
  O  O274  1  0.63417922  0.99539625  0.74636119  1
  O  O275  1  0.38265092  0.00664528  0.26230789  1
  O  O276  1  0.36998294  0.00340675  0.75770242  1
  O  O277  1  0.37124963  0.50547744  0.26226983  1
  O  O278  1  0.36595568  0.50648438  0.75101542  1
  O  O279  1  0.86661464  0.00513282  0.25533870  1
  O  O280  1  0.87198121  0.00760112  0.75342737  1
  O  O281  1  0.87183175  0.50262617  0.25638376  1
  O  O282  1  0.86806933  0.50110909  0.74884739  1
  O  O283  1  0.11919506  0.36610651  0.38030523  1
  O  O284  1  0.13867460  0.36156348  0.88558399  1
  O  O285  1  0.13032447  0.88235977  0.36060568  1
  O  O286  1  0.11760252  0.87075775  0.86970709  1
  O  O287  1  0.63400527  0.38037684  0.36107344  1
  O  O288  1  0.61106082  0.36265312  0.87996100  1
  O  O289  1  0.61367640  0.88114948  0.37706931  1
  O  O290  1  0.62661386  0.87780071  0.86143544  1
  O  O291  1  0.38021673  0.12778242  0.13230375  1
  O  O292  1  0.37781117  0.12886158  0.63245447  1
  O  O293  1  0.38756371  0.62543826  0.12488813  1
  O  O294  1  0.38289306  0.62262481  0.63422922  1
  O  O295  1  0.87796861  0.12949446  0.12753313  1
  O  O296  1  0.87570397  0.13326768  0.63207853  1
  O  O297  1  0.86837948  0.64162822  0.12462654  1
  O  O298  1  0.88686543  0.63528809  0.61959159  1
  O  O299  1  0.25989097  0.23879272  0.12438303  1
  O  O300  1  0.25839553  0.26120912  0.63364353  1
  O  O301  1  0.24950149  0.75723646  0.11908715  1
  O  O302  1  0.25038651  0.75455888  0.61509741  1
  O  O303  1  0.75781272  0.25349872  0.11547039  1
  O  O304  1  0.75651648  0.26561047  0.63373263  1
  O  O305  1  0.76220846  0.76342017  0.13554293  1
  O  O306  1  0.76272924  0.75085039  0.62020693  1
  O  O307  1  0.24357640  0.24341136  0.37735296  1
  O  O308  1  0.25218013  0.24224302  0.87255272  1
  O  O309  1  0.25729010  0.74379193  0.38938560  1
  O  O310  1  0.23908894  0.75130347  0.88344046  1
  O  O311  1  0.74508970  0.23831208  0.37079887  1
  O  O312  1  0.73820229  0.25503084  0.87925400  1
  O  O313  1  0.75554310  0.74228099  0.38308301  1
  O  O314  1  0.75198537  0.74502390  0.86846550  1
  O  O315  1  0.00646551  0.12756485  0.00599775  1
  O  O316  1  0.00509522  0.11208979  0.50494921  1
  O  O317  1  0.00612537  0.62295690  -0.00369867  1
  O  O318  1  0.00523339  0.61839207  0.50188293  1
  O  O319  1  0.50205652  0.11673633  0.00791618  1
  O  O320  1  0.50955735  0.11629181  0.50945649  1
  O  O321  1  0.50172856  0.61718836  0.00429623  1
  O  O322  1  0.50962658  0.62600791  0.50902719  1
  O  O323  1  0.49395559  0.38173853  0.51055922  1
  O  O324  1  0.49334038  0.38044034  0.99393075  1
  O  O325  1  0.49808737  0.87486416  0.49692046  1
  O  O326  1  0.49562430  0.88901743  1.00272672  1
  O  O327  1  0.99560237  0.38312812  0.49044624  1
  O  O328  1  0.97919024  0.37636268  0.99530166  1
  O  O329  1  1.00182031  0.89070944  0.50313599  1
  O  O330  1  0.98757758  0.87726561  0.99257944  1
  O  O331  1  0.48543624  0.50871403  0.37617633  1
  O  O332  1  0.49909685  0.49208395  0.88070471  1
  O  O333  1  0.49357826  0.99249519  0.38336678  1
  O  O334  1  0.49336026  0.99888031  0.88429485  1
  O  O335  1  0.99336090  0.49409864  0.37889180  1
  O  O336  1  1.00876723  0.49430518  0.89464809  1
  O  O337  1  0.99198216  1.00848150  0.38084836  1
  O  O338  1  0.99019803  0.98818698  0.86855873  1
  O  O339  1  0.00244054  0.00885648  0.12683433  1
  O  O340  1  0.01249526  0.00174093  0.62115102  1
  O  O341  1  0.00471348  0.49397511  0.10534009  1
  O  O342  1  -0.00879684  0.51218549  0.61458773  1
  O  O343  1  0.50269353  0.00908463  0.12085490  1
  O  O344  1  0.50722229  0.00365802  0.62333200  1
  O  O345  1  0.50412636  0.50580193  0.11870292  1
  O  O346  1  0.50821188  0.51168974  0.62845368  1
  O  O347  1  0.26725477  0.36988555  0.24040284  1
  O  O348  1  0.24665042  0.38163791  0.74325882  1
  O  O349  1  0.23558805  0.86520542  0.24041661  1
  O  O350  1  0.24102472  0.88024494  0.74668701  1
  O  O351  1  0.74285087  0.38348488  0.24083982  1
  O  O352  1  0.75409551  0.39040957  0.73616920  1
  O  O353  1  0.74983025  0.88339822  0.24540134  1
  O  O354  1  0.74598251  0.88080723  0.74371867  1
  O  O355  1  0.26658506  0.12276901  0.26563614  1
  O  O356  1  0.25309304  0.11811765  0.76188656  1
  O  O357  1  0.24806224  0.63752326  0.26674633  1
  O  O358  1  0.25543650  0.61789751  0.74534074  1
  O  O359  1  0.75471654  0.11843806  0.25578336  1
  O  O360  1  0.76291288  0.11772974  0.74572306  1
  O  O361  1  0.74959150  0.62041364  0.25563840  1
  O  O362  1  0.75020446  0.61181618  0.75911300  1
  O  O363  1  0.37415577  0.11704453  0.37249691  1
  O  O364  1  0.36849984  0.11426418  0.87214734  1
  O  O365  1  0.36515446  0.61707701  0.37571072  1
  O  O366  1  0.37179675  0.62449295  0.86145498  1
  O  O367  1  0.86850317  0.11915326  0.37068611  1
  O  O368  1  0.87827441  0.11544064  0.86697724  1
  O  O369  1  0.86398727  0.61786329  0.37003778  1
  O  O370  1  0.85699978  0.62652217  0.87645638  1
  O  O371  1  0.12655954  0.36708726  0.10776261  1
  O  O372  1  0.13865215  0.36705271  0.62590368  1
  O  O373  1  0.12753507  0.88436934  0.13041414  1
  O  O374  1  0.12857378  0.87940728  0.63235323  1
  O  O375  1  0.62934832  0.38601005  0.12923060  1
  O  O376  1  0.63868903  0.38300237  0.62365057  1
  O  O377  1  0.63466299  0.88397846  0.13071090  1
  O  O378  1  0.63280575  0.87996617  0.63436139  1
  O  O379  1  0.12470065  0.25137526  0.26790218  1
  O  O380  1  0.10788546  0.24872811  0.75051304  1
  O  O381  1  0.10950782  0.76305058  0.24948132  1
  O  O382  1  0.13039752  0.75871079  0.75895776  1
  O  O383  1  0.62692080  0.26941211  0.24524035  1
  O  O384  1  0.61296815  0.24354716  0.75652113  1
  O  O385  1  0.61106511  0.75115659  0.24557299  1
  O  O386  1  0.61700163  0.75797292  0.74247910  1
  O  O387  1  0.38201193  0.23894984  0.24199457  1
  O  O388  1  0.38615309  0.24153888  0.74459684  1
  O  O389  1  0.38754924  0.74603143  0.24887273  1
  O  O390  1  0.38138384  0.74247439  0.74694451  1
  O  O391  1  0.87172237  0.24359603  0.23940440  1
  O  O392  1  0.88062606  0.24451293  0.74164986  1
  O  O393  1  0.88848446  0.75284740  0.24044937  1
  O  O394  1  0.87803908  0.74954706  0.73426663  1
  O  O395  1  0.37727003  0.50245352  0.48657793  1
  O  O396  1  0.38370389  0.49243899  0.99893983  1
  O  O397  1  0.38426211  0.99103152  0.49630026  1
  O  O398  1  0.38089706  1.00109050  0.99348847  1
  O  O399  1  0.88361059  0.50234553  0.48622536  1
  O  O400  1  0.87675601  0.48706822  1.00129068  1
  O  O401  1  0.88434839  0.99847070  0.49228770  1
  O  O402  1  0.87021879  0.99512483  0.98765152  1
  O  O403  1  0.12481919  0.00775697  0.00781790  1
  O  O404  1  0.12222415  0.00232619  0.50769349  1
  O  O405  1  0.11851904  0.52113053  0.00454607  1
  O  O406  1  0.11216695  0.50671629  0.49680763  1
  O  O407  1  0.61470711  0.00915224  0.00946335  1
  O  O408  1  0.62182144  0.00549816  0.50924541  1
  O  O409  1  0.61220169  0.49493535  0.00599885  1
  O  O410  1  0.62666745  0.51341566  0.51154545  1
  O  O411  1  0.38221078  0.36461851  0.11165565  1
  O  O412  1  0.36445721  0.36411096  0.62681613  1
  O  O413  1  0.36236946  0.87589592  0.12635920  1
  O  O414  1  0.36761848  0.87444124  0.61939288  1
  O  O415  1  0.86787183  0.36581802  0.12088813  1
  O  O416  1  0.86707701  0.36789186  0.62129810  1
  O  O417  1  0.87101754  0.87052287  0.11877154  1
  O  O418  1  0.87341130  0.86264694  0.62199809  1
  O  O419  1  0.13699096  0.13236327  0.37469747  1
  O  O420  1  0.13174844  0.11488037  0.88155164  1
  O  O421  1  0.13222656  0.62220258  0.38772400  1
  O  O422  1  0.12292223  0.63720948  0.88069843  1
  O  O423  1  0.63539343  0.12004508  0.38751210  1
  O  O424  1  0.61829729  0.13764566  0.88315218  1
  O  O425  1  0.63810238  0.61839390  0.38388823  1
  O  O426  1  0.64278374  0.62168671  0.87365717  1
