# generated using pymatgen
data_V85Zn86O256
_symmetry_space_group_name_H-M   'P 1'
_cell_length_a   16.92652029
_cell_length_b   16.91750357
_cell_length_c   16.92801168
_cell_angle_alpha   90.04363773
_cell_angle_beta   90.06214748
_cell_angle_gamma   89.98496021
_symmetry_Int_Tables_number   1
_chemical_formula_structural   V85Zn86O256
_chemical_formula_sum   'V85 Zn86 O256'
_cell_volume   4847.40734688
_cell_formula_units_Z   1
loop_
 _symmetry_equiv_pos_site_id
 _symmetry_equiv_pos_as_xyz
  1  'x, y, z'
loop_
 _atom_site_type_symbol
 _atom_site_label
 _atom_site_symmetry_multiplicity
 _atom_site_fract_x
 _atom_site_fract_y
 _atom_site_fract_z
 _atom_site_occupancy
  V  V0  1  0.63142119  0.75190776  0.87967416  1
  V  V1  1  0.25426313  0.11835184  0.87945997  1
  V  V2  1  0.37461576  0.75378694  0.11666073  1
  V  V3  1  0.75008184  0.61631123  0.87080472  1
  V  V4  1  0.62578259  0.87419228  0.24876260  1
  V  V5  1  0.00046576  0.64016721  0.63035604  1
  V  V6  1  0.75107802  0.87031385  0.12038739  1
  V  V7  1  0.75759113  0.87040592  0.62530626  1
  V  V8  1  0.87227675  0.62115637  0.26636240  1
  V  V9  1  0.25361502  0.88055387  0.12986448  1
  V  V10  1  0.50123008  0.37321033  0.87514392  1
  V  V11  1  0.12598652  0.62675812  0.49952528  1
  V  V12  1  0.88364154  0.38008322  0.00111527  1
  V  V13  1  0.74898772  0.37414184  0.12462030  1
  V  V14  1  0.25162498  0.49839020  0.74969040  1
  V  V15  1  0.24324200  0.88099176  0.62327454  1
  V  V16  1  -0.00234129  0.12302389  0.62429141  1
  V  V17  1  0.36233258  0.24815060  0.12176974  1
  V  V18  1  0.75098327  0.50102059  0.26574393  1
  V  V19  1  0.13200291  0.24779221  0.87955012  1
  V  V20  1  0.50177350  0.62539489  0.12472655  1
  V  V21  1  0.63165275  0.62233347  0.49564543  1
  V  V22  1  0.74910786  0.00093171  0.25019181  1
  V  V23  1  0.11086699  0.62687898  -0.00111934  1
  V  V24  1  0.62469751  0.12312864  0.00002101  1
  V  V25  1  0.24978801  0.61772208  0.36992133  1
  V  V26  1  0.87222651  0.73883026  0.11798597  1
  V  V27  1  0.63832768  0.49705604  0.62849617  1
  V  V28  1  0.00040478  -0.00105805  0.49941660  1
  V  V29  1  0.49525598  0.49944492  0.49273927  1
  V  V30  1  0.63413698  0.62657900  0.00158477  1
  V  V31  1  0.25364863  0.75288780  0.49635069  1
  V  V32  1  0.50116702  0.49852200  0.00046614  1
  V  V33  1  0.37650112  0.75232456  0.62217310  1
  V  V34  1  0.49813935  0.12778406  0.12530855  1
  V  V35  1  0.12745209  0.75595996  0.36632136  1
  V  V36  1  0.00015151  0.12855438  0.12677147  1
  V  V37  1  0.87398225  0.12399287  0.75702464  1
  V  V38  1  0.37756440  0.12142480  0.75363136  1
  V  V39  1  -0.00616966  0.49899851  0.49484835  1
  V  V40  1  0.12648070  0.37442346  0.75133447  1
  V  V41  1  0.24634896  0.00155278  0.74810293  1
  V  V42  1  0.63920683  0.37762141  0.74835950  1
  V  V43  1  0.48567644  -0.00178722  -0.00323320  1
  V  V44  1  0.26467848  0.37376477  0.62216925  1
  V  V45  1  0.62567236  0.12085712  0.49476221  1
  V  V46  1  0.12055141  0.25559070  0.37389904  1
  V  V47  1  0.62571808  0.87319009  0.75137974  1
  V  V48  1  0.74433974  0.25529934  0.49611712  1
  V  V49  1  0.50258349  0.62291333  0.62397844  1
  V  V50  1  0.37240602  0.61784792  0.24914538  1
  V  V51  1  0.62007829  0.36649926  0.26323400  1
  V  V52  1  0.86709110  0.25945095  0.62523366  1
  V  V53  1  0.12445699  0.12274527  0.50658300  1
  V  V54  1  0.37552896  0.49978260  0.87526315  1
  V  V55  1  0.48771214  0.87578091  0.87861508  1
  V  V56  1  0.62648340  0.49660405  0.12688641  1
  V  V57  1  0.12206981  0.49915189  0.62584450  1
  V  V58  1  0.24396827  0.11730829  0.37143137  1
  V  V59  1  0.75835027  0.74707004  0.50119001  1
  V  V60  1  -0.00420868  0.00207863  -0.00489180  1
  V  V61  1  0.75212057  -0.00007726  0.75658799  1
  V  V62  1  0.63408926  0.74570164  0.37299373  1
  V  V63  1  0.37503865  0.62468051  0.75081432  1
  V  V64  1  0.87373839  0.87649621  -0.00495605  1
  V  V65  1  0.37589001  -0.00676846  0.37356191  1
  V  V66  1  0.36768842  0.11943281  0.24661511  1
  V  V67  1  0.00003633  0.74573099  0.24172170  1
  V  V68  1  0.36691525  0.37101410  -0.00150402  1
  V  V69  1  0.00237393  0.24970032  0.75027188  1
  V  V70  1  0.10434483  0.50746957  0.12407437  1
  V  V71  1  0.49940846  0.75116831  0.25222452  1
  V  V72  1  0.87600283  0.64016965  0.74726549  1
  V  V73  1  0.24981808  0.39054077  0.13132592  1
  V  V74  1  0.12424868  -0.00610568  0.13912909  1
  V  V75  1  0.87395705  0.12910550  0.25259185  1
  V  V76  1  0.43152564  0.32220290  0.43891005  1
  V  V77  1  0.49691663  0.12010782  0.62446463  1
  V  V78  1  0.24964440  0.25407236  0.50370268  1
  V  V79  1  0.49674668  0.25063311  0.74425755  1
  V  V80  1  0.62770337  0.24720048  0.87334973  1
  V  V81  1  -0.00045987  0.87600949  0.36560626  1
  V  V82  1  0.62185858  -0.00377406  0.62031637  1
  V  V83  1  0.12955785  0.12596409  0.00017575  1
  V  V84  1  0.88315564  0.49846062  0.86751050  1
  Zn  Zn85  1  0.49759401  0.25175680  0.25945796  1
  Zn  Zn86  1  0.74594933  0.12597672  0.37459308  1
  Zn  Zn87  1  0.86362351  0.38359210  0.49875648  1
  Zn  Zn88  1  0.50607503  0.88038024  0.38242711  1
  Zn  Zn89  1  0.75575953  0.11971709  0.88123704  1
  Zn  Zn90  1  0.87268946  -0.00001835  0.37711499  1
  Zn  Zn91  1  -0.00263191  0.86977715  0.86707386  1
  Zn  Zn92  1  0.38493704  0.88931297  0.51039384  1
  Zn  Zn93  1  -0.01129460  0.38177803  0.37024775  1
  Zn  Zn94  1  0.00830556  0.37863481  0.88086630  1
  Zn  Zn95  1  0.75269190  0.24905471  0.00032157  1
  Zn  Zn96  1  0.12147015  0.75385233  0.86464231  1
  Zn  Zn97  1  0.50145513  0.75014334  0.75147080  1
  Zn  Zn98  1  0.87870113  0.87073180  0.50049900  1
  Zn  Zn99  1  0.62162899  -0.00139417  0.12404990  1
  Zn  Zn100  1  0.24628242  0.75456804  -0.00276730  1
  Zn  Zn101  1  0.12414193  0.38644922  0.25425950  1
  Zn  Zn102  1  -0.00081701  0.25596779  0.25106436  1
  Zn  Zn103  1  0.24902158  0.62880179  0.88108261  1
  Zn  Zn104  1  0.11757546  0.87042058  0.74717499  1
  Zn  Zn105  1  0.87617843  0.25225016  0.12294992  1
  Zn  Zn106  1  0.37334973  0.49441283  0.37477880  1
  Zn  Zn107  1  0.18525230  0.18996803  0.18721075  1
  Zn  Zn108  1  0.18988791  0.18706129  0.68770525  1
  Zn  Zn109  1  0.18848827  0.68625279  0.18195797  1
  Zn  Zn110  1  0.19012034  0.68974374  0.68849535  1
  Zn  Zn111  1  0.68616996  0.19035371  0.18771928  1
  Zn  Zn112  1  0.68699911  0.18573139  0.68560713  1
  Zn  Zn113  1  0.69289089  0.68526744  0.18808019  1
  Zn  Zn114  1  0.69013007  0.68702261  0.68890392  1
  Zn  Zn115  1  0.30217128  0.30259935  0.30518242  1
  Zn  Zn116  1  0.31241428  0.30741246  0.81106986  1
  Zn  Zn117  1  0.30837707  0.81098352  0.30203272  1
  Zn  Zn118  1  0.30384594  0.80992217  0.80980706  1
  Zn  Zn119  1  0.81203935  0.31429003  0.31724687  1
  Zn  Zn120  1  0.81453924  0.31055712  0.81587672  1
  Zn  Zn121  1  0.81533770  0.81230844  0.31115690  1
  Zn  Zn122  1  0.80892366  0.81054988  0.81819464  1
  Zn  Zn123  1  0.18669000  0.43769180  0.44059922  1
  Zn  Zn124  1  0.18744174  0.44380354  0.94114303  1
  Zn  Zn125  1  0.18708472  0.93706735  0.43762828  1
  Zn  Zn126  1  0.18544396  0.93525455  0.94097635  1
  Zn  Zn127  1  0.68437063  0.43544808  0.44043041  1
  Zn  Zn128  1  0.69177398  0.43709404  0.93780498  1
  Zn  Zn129  1  0.68835139  0.93434814  0.43714559  1
  Zn  Zn130  1  0.68443460  0.93881903  0.94036375  1
  Zn  Zn131  1  0.30724373  0.05744085  0.06263811  1
  Zn  Zn132  1  0.31449854  0.06512082  0.56200092  1
  Zn  Zn133  1  0.31105546  0.56875701  0.05819285  1
  Zn  Zn134  1  0.31244225  0.56211522  0.56005958  1
  Zn  Zn135  1  0.81168729  0.06137704  0.06692294  1
  Zn  Zn136  1  0.81263434  0.06317260  0.56615728  1
  Zn  Zn137  1  0.81504005  0.55658038  0.06229041  1
  Zn  Zn138  1  0.81477637  0.56743854  0.56701567  1
  Zn  Zn139  1  0.43880010  0.43604292  0.18857220  1
  Zn  Zn140  1  0.44593019  0.43896457  0.68662376  1
  Zn  Zn141  1  0.43684039  0.93901586  0.18885807  1
  Zn  Zn142  1  0.43616074  0.93839668  0.69429625  1
  Zn  Zn143  1  0.93522826  0.43804611  0.19203390  1
  Zn  Zn144  1  0.93846266  0.43968754  0.68913259  1
  Zn  Zn145  1  0.93526934  0.93802134  0.18435658  1
  Zn  Zn146  1  0.93426610  0.93868833  0.68378792  1
  Zn  Zn147  1  0.05918449  0.06636172  0.31533720  1
  Zn  Zn148  1  0.04644836  0.03173612  0.79460873  1
  Zn  Zn149  1  0.06312146  0.56695106  0.30726957  1
  Zn  Zn150  1  0.06052541  0.56835219  0.81321355  1
  Zn  Zn151  1  0.55967452  0.06227384  0.30927546  1
  Zn  Zn152  1  0.56327472  0.05810255  0.81279062  1
  Zn  Zn153  1  0.56379333  0.56066617  0.31256774  1
  Zn  Zn154  1  0.56352643  0.56072233  0.81161793  1
  Zn  Zn155  1  0.43590131  0.15987423  0.44015134  1
  Zn  Zn156  1  0.43732187  0.18859045  0.93735355  1
  Zn  Zn157  1  0.44045686  0.68784550  0.43608258  1
  Zn  Zn158  1  0.44277410  0.68812272  0.93651463  1
  Zn  Zn159  1  0.93233866  0.19154082  0.43739550  1
  Zn  Zn160  1  0.94198559  0.19302298  0.93892905  1
  Zn  Zn161  1  0.94305631  0.68681852  0.43732492  1
  Zn  Zn162  1  0.93926582  0.69048332  0.93605455  1
  Zn  Zn163  1  0.06664044  0.31324765  0.06400946  1
  Zn  Zn164  1  0.06289883  0.31372295  0.56418740  1
  Zn  Zn165  1  0.05931127  0.81360177  0.05906655  1
  Zn  Zn166  1  0.06675591  0.81512492  0.55790517  1
  Zn  Zn167  1  0.56001930  0.30978182  0.06447000  1
  Zn  Zn168  1  0.56939757  0.30935214  0.56792063  1
  Zn  Zn169  1  0.56241018  0.81260329  0.06061739  1
  Zn  Zn170  1  0.56414705  0.81174727  0.55967243  1
  O  O171  1  0.12051539  0.11895544  0.12034446  1
  O  O172  1  0.11714657  0.13281764  0.61273310  1
  O  O173  1  0.12468082  0.61368810  0.11703180  1
  O  O174  1  0.12058461  0.61696923  0.62152183  1
  O  O175  1  0.61431389  0.12666525  0.11819406  1
  O  O176  1  0.61780231  0.11459570  0.62069667  1
  O  O177  1  0.62309722  0.61955664  0.11839920  1
  O  O178  1  0.61847475  0.61950850  0.62027747  1
  O  O179  1  0.37139202  0.37357776  0.37237191  1
  O  O180  1  0.37833650  0.37652339  0.88244414  1
  O  O181  1  0.36775113  0.88938728  0.36626408  1
  O  O182  1  0.38999026  0.86627074  0.87026293  1
  O  O183  1  0.87669564  0.37205988  0.38641319  1
  O  O184  1  0.87632313  0.38507692  0.87976513  1
  O  O185  1  0.88492165  0.87650680  0.37866133  1
  O  O186  1  0.87106827  0.87340025  0.89116479  1
  O  O187  1  0.25297258  0.01135864  0.37556647  1
  O  O188  1  0.24854899  0.01208049  0.86791770  1
  O  O189  1  0.25061949  0.51399753  0.37983229  1
  O  O190  1  0.25869363  0.50219437  0.86686118  1
  O  O191  1  0.75070998  -0.00096705  0.36196454  1
  O  O192  1  0.74292581  0.00079988  0.86135270  1
  O  O193  1  0.74443995  0.49791562  0.36522729  1
  O  O194  1  0.75582440  0.51098927  0.87420025  1
  O  O195  1  0.25767866  0.49032860  0.12707081  1
  O  O196  1  0.24241857  0.49435129  0.62845660  1
  O  O197  1  0.23745778  0.99220365  0.12654185  1
  O  O198  1  0.26255148  0.99075590  0.63122648  1
  O  O199  1  0.74481942  0.48948604  0.13267265  1
  O  O200  1  0.73757240  0.50178993  0.62076913  1
  O  O201  1  0.74592435  0.99273538  0.13663853  1
  O  O202  1  0.74271082  0.99183805  0.63382289  1
  O  O203  1  0.00488270  0.37372498  0.25358709  1
  O  O204  1  0.01030826  0.36888820  0.75171813  1
  O  O205  1  -0.00691325  0.86682736  0.25940468  1
  O  O206  1  0.01130916  0.92006652  0.76068725  1
  O  O207  1  0.51460050  0.37135762  0.24504454  1
  O  O208  1  0.50481394  0.36590486  0.75683581  1
  O  O209  1  0.50678866  0.86721005  0.25187418  1
  O  O210  1  0.50713417  0.87384216  0.76227269  1
  O  O211  1  0.49115881  0.12902538  0.24167217  1
  O  O212  1  0.49644133  0.12969125  0.74739570  1
  O  O213  1  0.49715677  0.63187383  0.24333803  1
  O  O214  1  0.49126550  0.62429581  0.74225320  1
  O  O215  1  0.99090091  0.12822562  0.24439151  1
  O  O216  1  0.99355195  0.12588280  0.74151425  1
  O  O217  1  0.98375919  0.63229183  0.25228107  1
  O  O218  1  0.98720253  0.62195061  0.74279452  1
  O  O219  1  0.37880577  0.26003898  0.00801743  1
  O  O220  1  0.37184692  0.25464401  0.49091675  1
  O  O221  1  0.38080822  0.74608148  0.01462462  1
  O  O222  1  0.37172095  0.74514030  0.51128922  1
  O  O223  1  0.87168731  0.26126844  0.00060428  1
  O  O224  1  0.86039126  0.24731056  0.50974808  1
  O  O225  1  0.87774473  0.75815700  0.01101090  1
  O  O226  1  0.86177030  0.74635925  0.49469742  1
  O  O227  1  0.13223264  0.24515166  0.49466530  1
  O  O228  1  0.12112672  0.23744199  0.99377574  1
  O  O229  1  0.13242242  0.74482815  0.48918085  1
  O  O230  1  0.12356651  0.73451177  1.00823165  1
  O  O231  1  0.63711966  0.23802709  0.50886787  1
  O  O232  1  0.62244776  0.23911439  0.99230167  1
  O  O233  1  0.63294089  0.74083503  0.49150194  1
  O  O234  1  0.62013403  0.73816902  0.99269221  1
  O  O235  1  0.48773798  0.23810876  0.12367498  1
  O  O236  1  0.50753631  0.23912966  0.63811164  1
  O  O237  1  0.49685202  0.74723476  0.13493539  1
  O  O238  1  0.49621871  0.73750701  0.62640991  1
  O  O239  1  1.00215678  0.23926776  0.12821083  1
  O  O240  1  0.99413422  0.24102139  0.62872763  1
  O  O241  1  0.98852389  0.75708571  0.13653710  1
  O  O242  1  1.00360341  0.73889693  0.61531298  1
  O  O243  1  0.01143004  0.25087889  0.37809723  1
  O  O244  1  0.01462157  0.25143945  0.86743840  1
  O  O245  1  0.00734807  0.75596452  0.36646247  1
  O  O246  1  0.00600960  0.75674130  0.87912836  1
  O  O247  1  0.48590915  0.25563328  0.38335460  1
  O  O248  1  0.51051192  0.25283116  0.86720778  1
  O  O249  1  0.50894326  0.74825066  0.36241488  1
  O  O250  1  0.51080760  0.75949154  0.87442580  1
  O  O251  1  0.24259217  0.13148749  0.49589690  1
  O  O252  1  0.24188582  0.12115494  0.99288166  1
  O  O253  1  0.24521002  0.63295996  0.49247688  1
  O  O254  1  0.24039051  0.63159994  0.99967339  1
  O  O255  1  0.74164214  0.12969740  0.50057618  1
  O  O256  1  0.74037217  0.12561871  1.00079775  1
  O  O257  1  0.73935749  0.63044521  0.50550576  1
  O  O258  1  0.73873064  0.61845851  0.99317129  1
  O  O259  1  0.26176677  0.37996308  0.00980865  1
  O  O260  1  0.24810531  0.36658726  0.50845963  1
  O  O261  1  0.24199926  0.87211943  0.02033408  1
  O  O262  1  0.25859219  0.87112628  0.50553390  1
  O  O263  1  0.75730326  0.37379255  0.00878371  1
  O  O264  1  0.74358014  0.36001197  0.50427879  1
  O  O265  1  0.75544002  0.88373986  0.01303413  1
  O  O266  1  0.75109990  0.86567010  0.50773530  1
  O  O267  1  0.12223590  0.50391776  0.23094173  1
  O  O268  1  0.13000986  0.49674595  0.74367580  1
  O  O269  1  0.12053696  1.00660352  0.23735680  1
  O  O270  1  0.14591332  1.01269169  0.74183306  1
  O  O271  1  0.63088155  0.49210706  0.24482050  1
  O  O272  1  0.62024301  0.49033723  0.74140687  1
  O  O273  1  0.63062300  0.99405751  0.24709325  1
  O  O274  1  0.63190007  0.99352326  0.74122740  1
  O  O275  1  0.37243769  0.01162521  0.25541343  1
  O  O276  1  0.36938886  0.01458377  0.75129346  1
  O  O277  1  0.38371490  0.51372006  0.25392220  1
  O  O278  1  0.37438522  0.50568547  0.75494456  1
  O  O279  1  0.86663898  0.01073192  0.24837629  1
  O  O280  1  0.86336074  0.01226470  0.74308475  1
  O  O281  1  0.86693842  0.51346093  0.24747602  1
  O  O282  1  0.87463670  0.50427142  0.76336568  1
  O  O283  1  0.12529329  0.36759111  0.37408981  1
  O  O284  1  0.12942759  0.36815186  0.87219909  1
  O  O285  1  0.11907291  0.86294497  0.37700998  1
  O  O286  1  0.12013172  0.87919677  0.86974740  1
  O  O287  1  0.62360469  0.37526162  0.36182112  1
  O  O288  1  0.62064775  0.36791759  0.87082966  1
  O  O289  1  0.62461351  0.86569491  0.36674848  1
  O  O290  1  0.62335923  0.86605123  0.87201172  1
  O  O291  1  0.37483029  0.12962594  0.12873880  1
  O  O292  1  0.38979077  0.12169753  0.63156638  1
  O  O293  1  0.38192234  0.63194630  0.13131437  1
  O  O294  1  0.38273933  0.62912565  0.63034387  1
  O  O295  1  0.88368621  0.12797906  0.13196242  1
  O  O296  1  0.88119224  0.13511238  0.63354136  1
  O  O297  1  0.86706483  0.63614584  0.12758777  1
  O  O298  1  0.88316586  0.62443819  0.64006401  1
  O  O299  1  0.25833314  0.25922668  0.12512175  1
  O  O300  1  0.24856248  0.25661946  0.61241453  1
  O  O301  1  0.26023084  0.75770966  0.12310997  1
  O  O302  1  0.26022566  0.75722167  0.61732549  1
  O  O303  1  0.74997796  0.26339651  0.12382325  1
  O  O304  1  0.75830287  0.24441527  0.61664346  1
  O  O305  1  0.75860856  0.75963642  0.12900639  1
  O  O306  1  0.74221640  0.75887975  0.61453539  1
  O  O307  1  0.24156971  0.24009401  0.38484352  1
  O  O308  1  0.23873492  0.23859652  0.86922392  1
  O  O309  1  0.24438870  0.74534714  0.37645815  1
  O  O310  1  0.24319529  0.74694324  0.87897676  1
  O  O311  1  0.74900289  0.24499972  0.39229317  1
  O  O312  1  0.73710714  0.24624998  0.87690420  1
  O  O313  1  0.73962220  0.75424734  0.38077914  1
  O  O314  1  0.73835171  0.73677009  0.87493719  1
  O  O315  1  0.00440810  0.12214403  0.01048296  1
  O  O316  1  0.00514156  0.12190867  0.50458821  1
  O  O317  1  0.01154465  0.62261023  -0.00045634  1
  O  O318  1  0.00610871  0.61721701  0.50775053  1
  O  O319  1  0.50433302  0.11899735  0.00482725  1
  O  O320  1  0.51101420  0.12473796  0.51359238  1
  O  O321  1  0.51047319  0.61825729  0.00508757  1
  O  O322  1  0.50993142  0.61920291  0.50576476  1
  O  O323  1  0.49627986  0.37695103  0.50091478  1
  O  O324  1  0.49130930  0.37878723  0.99561640  1
  O  O325  1  0.49404418  0.86693131  0.49364716  1
  O  O326  1  0.50421699  0.88278652  0.98800970  1
  O  O327  1  1.00400165  0.39288686  0.50234905  1
  O  O328  1  0.98824451  0.37097563  0.99978743  1
  O  O329  1  1.00033856  0.88317583  0.49078919  1
  O  O330  1  0.99020931  0.88681994  1.00301799  1
  O  O331  1  0.49931703  0.50160108  0.38800933  1
  O  O332  1  0.49544099  0.49271801  0.87982702  1
  O  O333  1  0.48095964  0.99918298  0.36726909  1
  O  O334  1  0.50395248  0.98482504  0.88135992  1
  O  O335  1  1.00916741  0.50458489  0.39242657  1
  O  O336  1  0.98716072  0.49782867  0.87270057  1
  O  O337  1  0.99882118  0.99172903  0.37941784  1
  O  O338  1  0.99590016  1.01042163  0.89486183  1
  O  O339  1  0.00875325  0.00964705  0.12260838  1
  O  O340  1  -0.00379966  0.01518510  0.61470802  1
  O  O341  1  0.00652457  0.49824924  0.12098630  1
  O  O342  1  0.00967991  0.50715320  0.61976720  1
  O  O343  1  0.49879176  0.01100153  0.11848966  1
  O  O344  1  0.51033033  0.00590901  0.63331901  1
  O  O345  1  0.50639907  0.50494204  0.12020902  1
  O  O346  1  0.50573064  0.51028290  0.61607769  1
  O  O347  1  0.24571108  0.37412790  0.23505937  1
  O  O348  1  0.24549706  0.37833813  0.74345086  1
  O  O349  1  0.23944216  0.86716037  0.23020984  1
  O  O350  1  0.25257028  0.88668358  0.74055894  1
  O  O351  1  0.73972856  0.37927966  0.24521084  1
  O  O352  1  0.73817559  0.36998520  0.75345668  1
  O  O353  1  0.74677066  0.88091682  0.24178429  1
  O  O354  1  0.74647992  0.87913787  0.74454172  1
  O  O355  1  0.25544708  0.13128556  0.25935451  1
  O  O356  1  0.26075064  0.12325193  0.75440597  1
  O  O357  1  0.26099520  0.63226887  0.25732521  1
  O  O358  1  0.26428247  0.61719228  0.74621430  1
  O  O359  1  0.75347744  0.11844640  0.25018238  1
  O  O360  1  0.75643772  0.11752749  0.75103650  1
  O  O361  1  0.76098375  0.61557679  0.24946155  1
  O  O362  1  0.76395434  0.62689652  0.75597367  1
  O  O363  1  0.36385624  0.11593520  0.36533035  1
  O  O364  1  0.36611449  0.13175330  0.86808013  1
  O  O365  1  0.36712920  0.62773469  0.36626700  1
  O  O366  1  0.37794252  0.62092747  0.86574523  1
  O  O367  1  0.87127318  0.12198666  0.36599065  1
  O  O368  1  0.87421595  0.13566714  0.86124735  1
  O  O369  1  0.87359353  0.62784721  0.36482127  1
  O  O370  1  0.86997247  0.61710525  0.86805901  1
  O  O371  1  0.13650079  0.38934128  0.11968914  1
  O  O372  1  0.13220864  0.38370561  0.63099004  1
  O  O373  1  0.12481826  0.89055186  0.12401598  1
  O  O374  1  0.13985081  0.87703713  0.62167995  1
  O  O375  1  0.63074089  0.37872185  0.12858372  1
  O  O376  1  0.61845633  0.38539008  0.63661225  1
  O  O377  1  0.63262869  0.87410893  0.13012868  1
  O  O378  1  0.63197206  0.87945475  0.63064388  1
  O  O379  1  0.12391507  0.25182154  0.26229390  1
  O  O380  1  0.12200916  0.25427455  0.75599900  1
  O  O381  1  0.11300051  0.73985038  0.25488621  1
  O  O382  1  0.12620087  0.75584089  0.74690097  1
  O  O383  1  0.62032213  0.26136942  0.25088669  1
  O  O384  1  0.61933323  0.25432689  0.75628796  1
  O  O385  1  0.62096713  0.75115094  0.25575361  1
  O  O386  1  0.62341115  0.75476432  0.75885367  1
  O  O387  1  0.37652991  0.23882500  0.24125643  1
  O  O388  1  0.38708897  0.23959178  0.75344561  1
  O  O389  1  0.38480979  0.74209358  0.24260119  1
  O  O390  1  0.37636717  0.74141358  0.73855127  1
  O  O391  1  0.87285386  0.23955286  0.24702417  1
  O  O392  1  0.88107029  0.24631565  0.74338277  1
  O  O393  1  0.87764509  0.73810200  0.24431471  1
  O  O394  1  0.87478700  0.73903433  0.75510830  1
  O  O395  1  0.38652704  0.50358611  0.49627166  1
  O  O396  1  0.38161067  0.49402148  0.99462095  1
  O  O397  1  0.37126630  1.00432776  0.47940343  1
  O  O398  1  0.38623158  1.00353568  1.00014147  1
  O  O399  1  0.89034594  0.50232315  0.50853698  1
  O  O400  1  0.86860185  0.49205268  0.98408983  1
  O  O401  1  0.88729780  1.00085283  0.49872685  1
  O  O402  1  0.88393920  0.99088285  1.01255860  1
  O  O403  1  0.11646424  0.01202624  0.01024884  1
  O  O404  1  0.11279981  0.00998711  0.49409273  1
  O  O405  1  0.12955444  0.51137466  0.01386168  1
  O  O406  1  0.12048700  0.50732799  0.51004710  1
  O  O407  1  0.61582078  0.01191859  0.00182815  1
  O  O408  1  0.63228960  0.00388202  0.51266817  1
  O  O409  1  0.62038160  0.50454001  0.00565889  1
  O  O410  1  0.61835984  0.50543268  0.50663147  1
  O  O411  1  0.36656505  0.36955888  0.12108359  1
  O  O412  1  0.36384328  0.38040765  0.63071157  1
  O  O413  1  0.36416810  0.86960111  0.13128245  1
  O  O414  1  0.37189095  0.86575865  0.62734824  1
  O  O415  1  0.86715421  0.37678975  0.11823037  1
  O  O416  1  0.88137065  0.36303605  0.62140165  1
  O  O417  1  0.86728703  0.86628112  0.12020287  1
  O  O418  1  0.86231498  0.87620474  0.62140897  1
  O  O419  1  0.12864446  0.13137961  0.38505754  1
  O  O420  1  0.13307649  0.13058710  0.88445658  1
  O  O421  1  0.13223615  0.63467186  0.37725626  1
  O  O422  1  0.12686669  0.62095946  0.88906837  1
  O  O423  1  0.62204512  0.11623373  0.39043210  1
  O  O424  1  0.62481853  0.13111658  0.88201812  1
  O  O425  1  0.62194935  0.63235824  0.38428210  1
  O  O426  1  0.63095273  0.62811772  0.87985500  1
