# generated using pymatgen
data_V85Zn86O256
_symmetry_space_group_name_H-M   'P 1'
_cell_length_a   16.92870026
_cell_length_b   16.93116259
_cell_length_c   16.93563987
_cell_angle_alpha   90.01156720
_cell_angle_beta   90.02262244
_cell_angle_gamma   89.94881238
_symmetry_Int_Tables_number   1
_chemical_formula_structural   V85Zn86O256
_chemical_formula_sum   'V85 Zn86 O256'
_cell_volume   4854.13432127
_cell_formula_units_Z   1
loop_
 _symmetry_equiv_pos_site_id
 _symmetry_equiv_pos_as_xyz
  1  'x, y, z'
loop_
 _atom_site_type_symbol
 _atom_site_label
 _atom_site_symmetry_multiplicity
 _atom_site_fract_x
 _atom_site_fract_y
 _atom_site_fract_z
 _atom_site_occupancy
  V  V0  1  0.49722252  0.24650224  0.75146152  1
  V  V1  1  0.49915317  0.00135541  0.00002886  1
  V  V2  1  0.49660147  0.87596794  0.87608382  1
  V  V3  1  0.36795051  0.12924099  0.25060304  1
  V  V4  1  0.00830901  0.25389172  0.26496496  1
  V  V5  1  0.62672901  0.12505999  0.49845381  1
  V  V6  1  0.74570729  0.74711799  0.00153588  1
  V  V7  1  -0.00115787  0.37043007  0.87047838  1
  V  V8  1  0.50066663  0.00099314  0.49868352  1
  V  V9  1  0.74997693  0.87646014  0.12638400  1
  V  V10  1  0.62100810  0.74197192  0.87982933  1
  V  V11  1  0.49993535  0.12352415  0.62588427  1
  V  V12  1  0.24973802  0.37597557  0.12676566  1
  V  V13  1  0.74705836  0.62489462  0.87750921  1
  V  V14  1  -0.00576672  0.87998295  0.86670040  1
  V  V15  1  0.88029375  0.50399848  0.87944022  1
  V  V16  1  -0.00095819  0.00853930  0.48894271  1
  V  V17  1  0.01204421  0.12476250  0.11930549  1
  V  V18  1  0.62378070  0.25140382  0.87582542  1
  V  V19  1  0.50219752  0.75038977  0.24904676  1
  V  V20  1  0.88824041  0.11868450  0.75254613  1
  V  V21  1  0.75535211  0.12213428  0.37551371  1
  V  V22  1  0.50334639  0.25651418  0.24569399  1
  V  V23  1  0.13749051  0.87549740  0.74474312  1
  V  V24  1  0.75323339  0.24923200  0.50130217  1
  V  V25  1  0.50176803  0.87702453  0.37511955  1
  V  V26  1  0.12834596  0.01459584  0.62839967  1
  V  V27  1  0.62760374  0.25720517  0.36970849  1
  V  V28  1  0.37636970  0.62730879  0.24871778  1
  V  V29  1  0.24734957  0.50281120  0.24918640  1
  V  V30  1  0.37219105  0.87448605  0.49965719  1
  V  V31  1  0.36697162  0.76041630  0.12657206  1
  V  V32  1  0.88887080  0.86338596  0.50059774  1
  V  V33  1  0.75290446  0.00217751  0.25219813  1
  V  V34  1  0.50922719  0.50702223  0.00251606  1
  V  V35  1  0.75170939  0.25183408  -0.00094208  1
  V  V36  1  0.37495663  0.25346333  0.11714066  1
  V  V37  1  0.36834265  0.00664604  0.37495292  1
  V  V38  1  0.75145512  0.36950656  0.62550882  1
  V  V39  1  0.75060454  0.49715564  0.75205848  1
  V  V40  1  0.00737205  0.00229428  -0.00558939  1
  V  V41  1  -0.00432863  0.75385777  0.73677346  1
  V  V42  1  0.62654799  0.37572893  0.74938253  1
  V  V43  1  0.00184179  0.60840268  0.62275777  1
  V  V44  1  0.48723253  0.39382616  0.86611680  1
  V  V45  1  0.12258008  0.74437516  0.87154380  1
  V  V46  1  0.74809454  0.48797523  0.25617262  1
  V  V47  1  0.25280411  -0.00974020  0.24068730  1
  V  V48  1  0.87180487  0.88403671  -0.00723458  1
  V  V49  1  0.24406313  0.11992651  0.86825829  1
  V  V50  1  0.88087208  0.12035172  0.25257418  1
  V  V51  1  0.49421872  0.74939896  0.75005848  1
  V  V52  1  0.88004260  0.24923334  0.12513779  1
  V  V53  1  0.34628208  0.41804434  -0.03569290  1
  V  V54  1  0.87833392  0.75198644  0.12609444  1
  V  V55  1  0.24158626  0.24107855  -0.00039955  1
  V  V56  1  0.25743021  0.38392392  0.62688050  1
  V  V57  1  0.87266349  0.62976622  0.74249693  1
  V  V58  1  0.11515526  0.50115970  0.12151377  1
  V  V59  1  0.49782992  0.62396567  0.62410979  1
  V  V60  1  0.63281453  0.87504463  0.74837003  1
  V  V61  1  0.88581250  0.37648138  0.50017689  1
  V  V62  1  0.75129386  0.62566103  0.37686323  1
  V  V63  1  0.62582905  0.12771227  -0.00024168  1
  V  V64  1  0.63440060  -0.00445231  0.62449385  1
  V  V65  1  0.62552063  0.00302646  0.12585684  1
  V  V66  1  0.62802805  0.87707060  0.25220755  1
  V  V67  1  0.89371297  0.24501864  0.63267240  1
  V  V68  1  0.12611305  0.38870634  0.74430662  1
  V  V69  1  0.49544576  0.49511496  0.50035705  1
  V  V70  1  0.88083269  0.37937805  0.00203393  1
  V  V71  1  0.37121180  -0.00040747  0.86707436  1
  V  V72  1  0.12127458  0.24566277  0.86796991  1
  V  V73  1  0.12051271  0.61688123  0.50197932  1
  V  V74  1  0.24370483  0.75215255  -0.00190013  1
  V  V75  1  0.62654556  0.49854968  0.13127276  1
  V  V76  1  0.49282904  0.37399394  0.37722326  1
  V  V77  1  0.36993453  0.74760465  0.62603324  1
  V  V78  1  0.24547255  0.63327878  0.37536796  1
  V  V79  1  0.13221754  0.12969621  0.47867545  1
  V  V80  1  0.11019519  0.87403928  0.24828884  1
  V  V81  1  0.88256282  0.49753243  0.37850332  1
  V  V82  1  0.25566757  0.25219243  0.49150896  1
  V  V83  1  0.74868592  0.75530304  0.51973282  1
  V  V84  1  0.62962386  0.75007671  0.37625891  1
  Zn  Zn85  1  0.76046294  -0.00259909  0.75393798  1
  Zn  Zn86  1  0.30398054  0.53535031  0.81024739  1
  Zn  Zn87  1  0.37423530  0.25052716  0.62163285  1
  Zn  Zn88  1  -0.00679376  0.62253324  0.11834894  1
  Zn  Zn89  1  0.11895351  0.62213913  -0.00442185  1
  Zn  Zn90  1  0.10440128  0.76172897  0.38413593  1
  Zn  Zn91  1  0.50064688  0.12922078  0.12466195  1
  Zn  Zn92  1  -0.00860030  0.74910758  0.25895862  1
  Zn  Zn93  1  0.04835125  0.43983350  0.43655860  1
  Zn  Zn94  1  0.13606017  -0.00390726  0.11542672  1
  Zn  Zn95  1  0.62408255  0.49826117  0.62345071  1
  Zn  Zn96  1  0.37747133  0.50151907  0.37434885  1
  Zn  Zn97  1  0.62628946  0.62168922  0.50147441  1
  Zn  Zn98  1  0.36336034  0.88202764  0.00514952  1
  Zn  Zn99  1  0.25354527  0.88256124  0.62816509  1
  Zn  Zn100  1  0.12407879  0.37391555  0.26839586  1
  Zn  Zn101  1  0.74483977  0.37071331  0.13043064  1
  Zn  Zn102  1  0.50841398  0.62993306  0.12232346  1
  Zn  Zn103  1  0.75693309  0.11768415  0.87208714  1
  Zn  Zn104  1  0.36908031  0.11935316  0.74566811  1
  Zn  Zn105  1  0.24458921  0.75112097  0.50127319  1
  Zn  Zn106  1  0.87411821  0.62425028  0.24831654  1
  Zn  Zn107  1  0.18825119  0.18588297  0.19190666  1
  Zn  Zn108  1  0.18836275  0.19485001  0.68760983  1
  Zn  Zn109  1  0.18366289  0.69186906  0.18630083  1
  Zn  Zn110  1  0.18589077  0.67469679  0.68942026  1
  Zn  Zn111  1  0.68935037  0.18885423  0.18738835  1
  Zn  Zn112  1  0.69104001  0.18327171  0.69040139  1
  Zn  Zn113  1  0.69140836  0.68251958  0.18959780  1
  Zn  Zn114  1  0.67786841  0.68188137  0.69406767  1
  Zn  Zn115  1  0.31280790  0.31430853  0.31038804  1
  Zn  Zn116  1  0.30716097  0.30802626  0.80598839  1
  Zn  Zn117  1  0.31188453  0.81504064  0.31393591  1
  Zn  Zn118  1  0.31105562  0.70408334  0.81301098  1
  Zn  Zn119  1  0.82054538  0.31006722  0.31540595  1
  Zn  Zn120  1  0.81539585  0.30620585  0.81312943  1
  Zn  Zn121  1  0.82102848  0.81650405  0.32264484  1
  Zn  Zn122  1  0.81161994  0.81148866  0.81196351  1
  Zn  Zn123  1  0.20749722  0.43898629  0.43870763  1
  Zn  Zn124  1  0.17543469  0.43203962  0.94110178  1
  Zn  Zn125  1  0.18649182  0.94029074  0.43359746  1
  Zn  Zn126  1  0.18696328  0.93015615  0.93094970  1
  Zn  Zn127  1  0.68616541  0.43627745  0.44097031  1
  Zn  Zn128  1  0.68545588  0.43761317  0.93935091  1
  Zn  Zn129  1  0.69610280  0.93590651  0.43917012  1
  Zn  Zn130  1  0.68595641  0.93666949  0.93433251  1
  Zn  Zn131  1  0.31507226  0.06726080  0.05987271  1
  Zn  Zn132  1  0.30846720  0.06536170  0.56163437  1
  Zn  Zn133  1  0.30602993  0.57455633  0.06490425  1
  Zn  Zn134  1  0.31404947  0.56445587  0.56061004  1
  Zn  Zn135  1  0.81556660  0.06484185  0.06177704  1
  Zn  Zn136  1  0.81839030  0.06264863  0.56721380  1
  Zn  Zn137  1  0.80759623  0.56319891  0.06406803  1
  Zn  Zn138  1  0.81188833  0.56034228  0.56220900  1
  Zn  Zn139  1  0.43652300  0.43707010  0.18577125  1
  Zn  Zn140  1  0.43459704  0.43746827  0.68618445  1
  Zn  Zn141  1  0.43925237  0.93970543  0.18812043  1
  Zn  Zn142  1  0.44140008  0.93507124  0.68658175  1
  Zn  Zn143  1  0.93473221  0.43387448  0.19394227  1
  Zn  Zn144  1  0.93631349  0.43324636  0.69218815  1
  Zn  Zn145  1  0.93804739  0.94132022  0.18099455  1
  Zn  Zn146  1  0.94386466  0.94196735  0.67242090  1
  Zn  Zn147  1  0.06728975  0.06044160  0.30832543  1
  Zn  Zn148  1  0.06238123  0.06142051  0.80926013  1
  Zn  Zn149  1  0.06280923  0.57417636  0.30339104  1
  Zn  Zn150  1  0.05717161  0.56256195  0.81137124  1
  Zn  Zn151  1  0.55993514  0.06919983  0.31146209  1
  Zn  Zn152  1  0.56874978  0.06129623  0.81312452  1
  Zn  Zn153  1  0.56520100  0.56145408  0.31158943  1
  Zn  Zn154  1  0.46816338  0.56937042  0.81870872  1
  Zn  Zn155  1  0.43658569  0.18912874  0.43649630  1
  Zn  Zn156  1  0.43479035  0.18774517  0.93420629  1
  Zn  Zn157  1  0.43854187  0.68665773  0.43769440  1
  Zn  Zn158  1  0.43281273  0.68791772  0.94573687  1
  Zn  Zn159  1  0.93890815  0.18316925  0.44331947  1
  Zn  Zn160  1  0.93954554  0.18632256  0.93503484  1
  Zn  Zn161  1  0.93650731  0.68554470  0.44075798  1
  Zn  Zn162  1  0.93984952  0.69155946  0.93926782  1
  Zn  Zn163  1  0.06349486  0.31550256  0.06240077  1
  Zn  Zn164  1  0.07315883  0.30818169  0.56505331  1
  Zn  Zn165  1  0.06301904  0.81880643  0.06254474  1
  Zn  Zn166  1  0.06500845  0.81223898  0.56189935  1
  Zn  Zn167  1  0.55733785  0.32588618  0.05682613  1
  Zn  Zn168  1  0.56229493  0.31061256  0.56062117  1
  Zn  Zn169  1  0.56103876  0.81436072  0.06440368  1
  Zn  Zn170  1  0.56336405  0.81174212  0.56247875  1
  O  O171  1  0.11463761  0.12340694  0.12544600  1
  O  O172  1  0.12813515  0.11594209  0.62613265  1
  O  O173  1  0.12527283  0.60916049  0.12739269  1
  O  O174  1  0.11380285  0.62599398  0.61609988  1
  O  O175  1  0.62328389  0.12268296  0.11743117  1
  O  O176  1  0.61678202  0.11931417  0.61990895  1
  O  O177  1  0.62576970  0.60766623  0.13049859  1
  O  O178  1  0.61152162  0.62033457  0.62360957  1
  O  O179  1  0.38871553  0.37796151  0.37120309  1
  O  O180  1  0.38376809  0.35291771  0.88396263  1
  O  O181  1  0.38282862  0.88260838  0.38097267  1
  O  O182  1  0.39053699  0.88358623  0.88224602  1
  O  O183  1  0.87399668  0.38190577  0.38817054  1
  O  O184  1  0.88074619  0.37953023  0.87958495  1
  O  O185  1  0.85478152  0.88752690  0.40585094  1
  O  O186  1  0.88087654  0.87201790  0.88171666  1
  O  O187  1  0.26485199  -0.00142694  0.36553503  1
  O  O188  1  0.25897085  0.00718799  0.88191943  1
  O  O189  1  0.25740465  0.51401639  0.36517410  1
  O  O190  1  0.27382275  0.47201427  0.90174356  1
  O  O191  1  0.74197157  0.01573001  0.36950512  1
  O  O192  1  0.74018167  0.00494481  0.86762263  1
  O  O193  1  0.75320229  0.50439487  0.37200785  1
  O  O194  1  0.75628698  0.50335109  0.87117912  1
  O  O195  1  0.24457709  0.49413882  0.13104792  1
  O  O196  1  0.25713044  0.48396434  0.61898267  1
  O  O197  1  0.25215128  1.00768766  0.13305255  1
  O  O198  1  0.23537404  0.99887735  0.62023135  1
  O  O199  1  0.74263438  0.49648158  0.13549473  1
  O  O200  1  0.75066818  0.48547555  0.63198478  1
  O  O201  1  0.74538546  0.99735083  0.13072657  1
  O  O202  1  0.73666164  1.00533961  0.62568356  1
  O  O203  1  0.00062732  0.35717461  0.24903906  1
  O  O204  1  0.01284347  0.37692370  0.75746627  1
  O  O205  1  0.00817536  0.88112186  0.25077172  1
  O  O206  1  -0.00124288  0.87027081  0.75079034  1
  O  O207  1  0.49614376  0.36322178  0.25637534  1
  O  O208  1  0.51022955  0.36400200  0.75175187  1
  O  O209  1  0.50786664  0.87135541  0.25625059  1
  O  O210  1  0.50743258  0.86822487  0.75790718  1
  O  O211  1  0.49072743  0.13958495  0.24702245  1
  O  O212  1  0.50367285  0.13120611  0.74261697  1
  O  O213  1  0.49264681  0.63179043  0.25001899  1
  O  O214  1  0.50621781  0.63914839  0.73849571  1
  O  O215  1  0.99695611  0.13151876  0.24238351  1
  O  O216  1  0.98811676  0.12595030  0.74957239  1
  O  O217  1  0.99142567  0.63166032  0.23675599  1
  O  O218  1  0.99129634  0.63268198  0.74390113  1
  O  O219  1  0.36770729  0.24418822  0.01226332  1
  O  O220  1  0.36123943  0.24304049  0.50328395  1
  O  O221  1  0.36285267  0.75353310  0.00899662  1
  O  O222  1  0.37608887  0.75905748  0.50732674  1
  O  O223  1  0.86908619  0.25458407  0.00582608  1
  O  O224  1  0.87218017  0.25399547  0.51169095  1
  O  O225  1  0.86467978  0.76319791  0.00514829  1
  O  O226  1  0.86287203  0.75750024  0.50433551  1
  O  O227  1  0.13502957  0.23518373  0.50291549  1
  O  O228  1  0.13347580  0.25964835  0.98738769  1
  O  O229  1  0.12739311  0.73996464  0.49782283  1
  O  O230  1  0.12945217  0.75533489  0.99121629  1
  O  O231  1  0.63318892  0.24332076  0.49278228  1
  O  O232  1  0.63000989  0.25139478  0.99434156  1
  O  O233  1  0.63353702  0.74670076  0.49479599  1
  O  O234  1  0.63324405  0.75816839  0.99268765  1
  O  O235  1  0.49227280  0.25623364  0.12816218  1
  O  O236  1  0.50027512  0.24100091  0.63195688  1
  O  O237  1  0.49455978  0.74883841  0.13206869  1
  O  O238  1  0.49270354  0.74557981  0.63064960  1
  O  O239  1  0.99245294  0.24370138  0.12457809  1
  O  O240  1  0.99127927  0.25151781  0.62572100  1
  O  O241  1  0.98322587  0.75917382  0.12463454  1
  O  O242  1  0.99952052  0.74546613  0.63510255  1
  O  O243  1  -0.00351056  0.24474958  0.36266491  1
  O  O244  1  0.00601172  0.26223743  0.87907424  1
  O  O245  1  -0.00965814  0.75429408  0.37294565  1
  O  O246  1  0.00335688  0.76260836  0.86519281  1
  O  O247  1  0.50684836  0.25595202  0.36831729  1
  O  O248  1  0.50624744  0.25691778  0.86803873  1
  O  O249  1  0.50878532  0.75603981  0.37014711  1
  O  O250  1  0.50330144  0.75707607  0.87162249  1
  O  O251  1  0.24119257  0.13701037  0.50014219  1
  O  O252  1  0.25069776  0.13591232  0.99049566  1
  O  O253  1  0.24323000  0.62690958  0.49167848  1
  O  O254  1  0.23952688  0.64341977  1.00212176  1
  O  O255  1  0.74890448  0.12935899  0.49325469  1
  O  O256  1  0.74674108  0.13751274  0.99835499  1
  O  O257  1  0.74889074  0.63398919  0.49565557  1
  O  O258  1  0.75311048  0.63972018  0.99383390  1
  O  O259  1  0.25538348  0.36442544  0.00805878  1
  O  O260  1  0.24511526  0.36240589  0.51608434  1
  O  O261  1  0.24830408  0.86106812  0.00012252  1
  O  O262  1  0.26282182  0.87381753  0.49836612  1
  O  O263  1  0.75902191  0.36367903  -0.00033915  1
  O  O264  1  0.75813304  0.36834227  0.50862334  1
  O  O265  1  0.75420978  0.86925885  0.00472304  1
  O  O266  1  0.74250873  0.85705575  0.50729988  1
  O  O267  1  0.13573779  0.49974894  0.24242900  1
  O  O268  1  0.12829290  0.48730068  0.76011394  1
  O  O269  1  0.13622486  0.99199319  0.24578150  1
  O  O270  1  0.11824110  0.99197218  0.73472277  1
  O  O271  1  0.63240731  0.49725513  0.24244485  1
  O  O272  1  0.63227642  0.48136785  0.74694651  1
  O  O273  1  0.62938657  0.99917610  0.24448494  1
  O  O274  1  0.62201810  0.99065254  0.74001897  1
  O  O275  1  0.37255341  0.00866759  0.25439107  1
  O  O276  1  0.38267345  -0.00085802  0.76337185  1
  O  O277  1  0.36535281  0.51002731  0.24666917  1
  O  O278  1  0.40573206  0.47573517  0.78751059  1
  O  O279  1  0.87232847  0.01373353  0.24536983  1
  O  O280  1  0.87833665  0.01446542  0.73622196  1
  O  O281  1  0.86578664  0.49892711  0.26016993  1
  O  O282  1  0.86844321  0.50535483  0.76002376  1
  O  O283  1  0.12713358  0.38471302  0.38039177  1
  O  O284  1  0.11582216  0.37012531  0.86723264  1
  O  O285  1  0.13715939  0.87361866  0.35426136  1
  O  O286  1  0.11422183  0.86783900  0.86248894  1
  O  O287  1  0.61899242  0.36129034  0.37897268  1
  O  O288  1  0.61691249  0.36668076  0.86878451  1
  O  O289  1  0.62223049  0.87131689  0.37107298  1
  O  O290  1  0.61368093  0.86749707  0.86787801  1
  O  O291  1  0.37918730  0.13568362  0.13204655  1
  O  O292  1  0.38852769  0.12159772  0.62680184  1
  O  O293  1  0.37592397  0.63794325  0.13725463  1
  O  O294  1  0.38712322  0.63413326  0.61984783  1
  O  O295  1  0.88284319  0.13297812  0.13209000  1
  O  O296  1  0.87513910  0.13973567  0.63271361  1
  O  O297  1  0.86902417  0.63810923  0.12519606  1
  O  O298  1  0.87866731  0.61859820  0.63766273  1
  O  O299  1  0.25208541  0.25541847  0.11880390  1
  O  O300  1  0.25333860  0.25833645  0.61827849  1
  O  O301  1  0.25636275  0.74989718  0.11664820  1
  O  O302  1  0.26357308  0.74963281  0.62525364  1
  O  O303  1  0.76190475  0.25058397  0.11944181  1
  O  O304  1  0.75291099  0.25834556  0.62134514  1
  O  O305  1  0.75273122  0.75666729  0.11838861  1
  O  O306  1  0.74247631  0.74200900  0.61744972  1
  O  O307  1  0.25477242  0.25980046  0.39182266  1
  O  O308  1  0.24227990  0.24288106  0.88182777  1
  O  O309  1  0.25252051  0.73932124  0.37557780  1
  O  O310  1  0.23710169  0.75437434  0.88621654  1
  O  O311  1  0.74508649  0.24230068  0.37755437  1
  O  O312  1  0.74125387  0.24942887  0.88310763  1
  O  O313  1  0.74588036  0.74155031  0.38053612  1
  O  O314  1  0.74142174  0.74847826  0.88316942  1
  O  O315  1  -0.00763199  0.11420061  0.00652656  1
  O  O316  1  0.01865681  0.11918312  0.49585647  1
  O  O317  1  0.00433860  0.63082154  0.00578687  1
  O  O318  1  0.00456901  0.62563822  0.51241875  1
  O  O319  1  0.50590070  0.11674654  -0.00081568  1
  O  O320  1  0.50679159  0.12184939  0.50598895  1
  O  O321  1  0.49853482  0.61211989  0.00372892  1
  O  O322  1  0.50368830  0.61888338  0.50641747  1
  O  O323  1  0.50291764  0.38063877  0.49113073  1
  O  O324  1  0.48654924  0.39173006  0.98668996  1
  O  O325  1  0.49100503  0.88046170  0.49532222  1
  O  O326  1  0.50310094  0.88871936  0.99407315  1
  O  O327  1  0.99050512  0.37305081  0.51089875  1
  O  O328  1  0.98680733  0.37289423  0.99288026  1
  O  O329  1  0.99339505  0.88146711  0.49769785  1
  O  O330  1  0.99050285  0.88122444  0.98958013  1
  O  O331  1  0.50247850  0.49053996  0.37969404  1
  O  O332  1  0.52354339  0.49382036  0.88715629  1
  O  O333  1  0.49395810  0.99680382  0.37953076  1
  O  O334  1  0.49777266  0.99577166  0.88171226  1
  O  O335  1  0.98579502  0.50956528  0.36884003  1
  O  O336  1  0.98635759  0.49043832  0.87221274  1
  O  O337  1  1.01244527  1.00012106  0.38974583  1
  O  O338  1  1.00178500  0.98816646  0.87811959  1
  O  O339  1  0.00260309  0.00936643  0.11355584  1
  O  O340  1  0.02261455  -0.00490394  0.60490061  1
  O  O341  1  0.01347673  0.49376726  0.13257282  1
  O  O342  1  -0.00260061  0.50932427  0.63303195  1
  O  O343  1  0.50589778  0.00367014  0.11705694  1
  O  O344  1  0.50745242  0.00667962  0.61779522  1
  O  O345  1  0.51139531  0.49988797  0.12267430  1
  O  O346  1  0.49840072  0.50638268  0.61884892  1
  O  O347  1  0.24824558  0.38448530  0.24386216  1
  O  O348  1  0.24053193  0.37443228  0.73993246  1
  O  O349  1  0.25550327  0.88814107  0.24612813  1
  O  O350  1  0.23588915  0.87209152  0.75056388  1
  O  O351  1  0.75514078  0.38360768  0.25266474  1
  O  O352  1  0.74581875  0.37347160  0.74486885  1
  O  O353  1  0.74727841  0.88442721  0.24864013  1
  O  O354  1  0.73668418  0.87432847  0.75126170  1
  O  O355  1  0.26277138  0.11914887  0.24854383  1
  O  O356  1  0.25187608  0.13050548  0.76355668  1
  O  O357  1  0.25449443  0.62158118  0.25398225  1
  O  O358  1  0.25699998  0.62116105  0.75523667  1
  O  O359  1  0.75963051  0.12286246  0.25604644  1
  O  O360  1  0.76419656  0.12316936  0.75072736  1
  O  O361  1  0.75326635  0.61306082  0.26124681  1
  O  O362  1  0.75498668  0.61956602  0.75640440  1
  O  O363  1  0.38303462  0.11701020  0.36451515  1
  O  O364  1  0.36670506  0.11615272  0.87277964  1
  O  O365  1  0.37028655  0.62772245  0.36177763  1
  O  O366  1  0.38046336  0.62737931  0.86672235  1
  O  O367  1  0.86666462  0.13178425  0.36602469  1
  O  O368  1  0.87525963  0.13306833  0.85708375  1
  O  O369  1  0.86244676  0.61562949  0.37869512  1
  O  O370  1  0.86963519  0.61862802  0.86822456  1
  O  O371  1  0.13536776  0.38365661  0.12779490  1
  O  O372  1  0.13269339  0.37441374  0.63901518  1
  O  O373  1  0.12297240  0.87973958  0.14073849  1
  O  O374  1  0.13046488  0.87898134  0.63101880  1
  O  O375  1  0.62797321  0.38889678  0.12297125  1
  O  O376  1  0.63358483  0.37113386  0.63237447  1
  O  O377  1  0.63108897  0.88197356  0.13276640  1
  O  O378  1  0.61596174  0.88408036  0.63510384  1
  O  O379  1  0.11207369  0.25096650  0.24811315  1
  O  O380  1  0.12900344  0.26203440  0.76400382  1
  O  O381  1  0.11918221  0.76467210  0.24892512  1
  O  O382  1  0.11557160  0.75669032  0.75326595  1
  O  O383  1  0.61618554  0.24519692  0.25691162  1
  O  O384  1  0.61934478  0.25501489  0.75659929  1
  O  O385  1  0.62361215  0.75561585  0.25631673  1
  O  O386  1  0.61483179  0.75783574  0.75745982  1
  O  O387  1  0.37863722  0.24616892  0.23986382  1
  O  O388  1  0.38860395  0.24423281  0.74895246  1
  O  O389  1  0.38009625  0.74722060  0.24475423  1
  O  O390  1  0.38713911  0.75873336  0.74144283  1
  O  O391  1  0.88482825  0.24165302  0.24269585  1
  O  O392  1  0.87571460  0.24482917  0.73734962  1
  O  O393  1  0.86830197  0.75373922  0.23934257  1
  O  O394  1  0.88144310  0.74001236  0.75448640  1
  O  O395  1  0.39029743  0.50601160  0.49373699  1
  O  O396  1  0.38426034  0.50198731  1.01503682  1
  O  O397  1  0.37895240  0.99637237  0.49244556  1
  O  O398  1  0.38419206  1.00063409  0.99232947  1
  O  O399  1  0.86983825  0.48821490  0.49231609  1
  O  O400  1  0.86469840  0.49054490  0.99195922  1
  O  O401  1  0.89739657  1.01410500  0.50015320  1
  O  O402  1  0.88144485  0.98889724  1.00381861  1
  O  O403  1  0.11137807  -0.00858315  -0.00196462  1
  O  O404  1  0.12793546  0.01501469  0.50214197  1
  O  O405  1  0.12610650  0.50008186  0.01695647  1
  O  O406  1  0.12617553  0.51353690  0.49218931  1
  O  O407  1  0.61867179  0.00641217  0.00616533  1
  O  O408  1  0.62110522  0.00455057  0.50481870  1
  O  O409  1  0.62065866  0.49681142  0.01461316  1
  O  O410  1  0.61351869  0.50036276  0.50370439  1
  O  O411  1  0.36142223  0.36901392  0.12591483  1
  O  O412  1  0.36232606  0.36985843  0.63085700  1
  O  O413  1  0.38269643  0.86415755  0.12320171  1
  O  O414  1  0.37477468  0.86988068  0.61660517  1
  O  O415  1  0.87339239  0.36715264  0.11799607  1
  O  O416  1  0.86976278  0.36415147  0.62327155  1
  O  O417  1  0.86644424  0.87214486  0.11704444  1
  O  O418  1  0.86991755  0.89260000  0.59700023  1
  O  O419  1  0.13261039  0.12615707  0.38027147  1
  O  O420  1  0.12976216  0.13216762  0.87153546  1
  O  O421  1  0.13136441  0.63105163  0.37880625  1
  O  O422  1  0.11515874  0.64048575  0.87278614  1
  O  O423  1  0.63108196  0.13599386  0.37916288  1
  O  O424  1  0.62348927  0.13964093  0.88088937  1
  O  O425  1  0.63601906  0.62969411  0.37654745  1
  O  O426  1  0.63106201  0.64093007  0.87087926  1
