# generated using pymatgen
data_V85Zn86O256
_symmetry_space_group_name_H-M   'P 1'
_cell_length_a   16.92576155
_cell_length_b   16.92756924
_cell_length_c   16.91641893
_cell_angle_alpha   90.01245030
_cell_angle_beta   89.93798590
_cell_angle_gamma   89.97457961
_symmetry_Int_Tables_number   1
_chemical_formula_structural   V85Zn86O256
_chemical_formula_sum   'V85 Zn86 O256'
_cell_volume   4846.75359852
_cell_formula_units_Z   1
loop_
 _symmetry_equiv_pos_site_id
 _symmetry_equiv_pos_as_xyz
  1  'x, y, z'
loop_
 _atom_site_type_symbol
 _atom_site_label
 _atom_site_symmetry_multiplicity
 _atom_site_fract_x
 _atom_site_fract_y
 _atom_site_fract_z
 _atom_site_occupancy
  V  V0  1  0.00432257  0.62099603  0.62347191  1
  V  V1  1  0.00862479  0.00168667  0.00018560  1
  V  V2  1  -0.00445938  0.50760127  0.00530883  1
  V  V3  1  -0.00192461  0.37894689  0.87026647  1
  V  V4  1  0.87330741  0.62722023  0.25215113  1
  V  V5  1  0.49875337  0.50265247  -0.00538937  1
  V  V6  1  0.12638207  0.63058975  -0.01776648  1
  V  V7  1  0.11831802  -0.00133003  0.63475322  1
  V  V8  1  0.87614560  -0.00124650  0.37783467  1
  V  V9  1  0.50259710  0.00067732  -0.00240337  1
  V  V10  1  0.24649255  0.12602860  0.87677782  1
  V  V11  1  0.74860355  0.25142402  -0.00199025  1
  V  V12  1  0.62163209  -0.00961558  0.63132749  1
  V  V13  1  0.24804842  0.75355614  0.50110036  1
  V  V14  1  0.25633730  0.86953469  0.13103368  1
  V  V15  1  0.74201983  0.26472557  0.51243993  1
  V  V16  1  0.87440204  0.12600751  0.24890345  1
  V  V17  1  0.74451848  0.50522533  0.26590187  1
  V  V18  1  0.50076636  0.12613414  0.12436878  1
  V  V19  1  0.49631324  0.63446768  0.11793429  1
  V  V20  1  0.86279121  0.50730543  0.87784668  1
  V  V21  1  0.50576765  0.87422712  0.86143735  1
  V  V22  1  0.87470020  0.75275565  0.62777147  1
  V  V23  1  0.01555050  0.87034173  0.87511679  1
  V  V24  1  0.88291793  0.49203634  0.37523511  1
  V  V25  1  0.62677465  0.73905517  0.37143365  1
  V  V26  1  0.62934675  0.62435937  -0.00793610  1
  V  V27  1  0.75082132  0.75048335  0.00267076  1
  V  V28  1  0.62230409  0.37547134  0.25257529  1
  V  V29  1  0.62702912  0.87219531  0.24993217  1
  V  V30  1  0.12031736  0.51321070  0.12619770  1
  V  V31  1  0.38507700  0.75174074  0.62231755  1
  V  V32  1  0.37262811  0.61825133  0.73734942  1
  V  V33  1  0.87493617  0.25109288  0.12571525  1
  V  V34  1  0.75205678  -0.00361078  0.24446408  1
  V  V35  1  0.74695883  0.49086138  0.74053827  1
  V  V36  1  0.87966350  -0.00021738  0.87065674  1
  V  V37  1  0.37350103  0.25093658  0.12391095  1
  V  V38  1  0.88380223  0.37743658  0.51876051  1
  V  V39  1  0.62336470  0.25342156  0.85825064  1
  V  V40  1  0.00043538  0.87232487  0.37807989  1
  V  V41  1  0.49780658  0.50665671  0.50578198  1
  V  V42  1  0.75584003  0.12608737  0.86816593  1
  V  V43  1  0.00286105  0.74853213  0.24239908  1
  V  V44  1  0.36823025  0.11791108  0.24915235  1
  V  V45  1  0.75238929  0.74563579  0.49514551  1
  V  V46  1  0.37726408  0.25592437  0.61696681  1
  V  V47  1  0.62742502  0.12714304  -0.00146003  1
  V  V48  1  -0.00047345  0.23616522  0.74850703  1
  V  V49  1  0.35900921  0.50163415  0.86641401  1
  V  V50  1  0.87592800  0.22924256  0.63061199  1
  V  V51  1  0.01820890  0.75220162  0.75257896  1
  V  V52  1  0.49284230  0.37303786  0.38407493  1
  V  V53  1  0.37405342  0.49919280  0.37556095  1
  V  V54  1  0.12661417  0.61940378  0.50084461  1
  V  V55  1  0.50439131  0.37407637  0.85771600  1
  V  V56  1  0.11956589  0.37968508  0.25507721  1
  V  V57  1  0.62999172  0.75012258  0.86691365  1
  V  V58  1  0.24994900  0.50179250  0.24910530  1
  V  V59  1  0.24716614  0.37629284  0.12440458  1
  V  V60  1  0.74627854  0.37727969  0.12782794  1
  V  V61  1  0.12434071  0.25159456  0.37848881  1
  V  V62  1  0.24576685  0.24888808  -0.00067003  1
  V  V63  1  0.87283564  0.37781431  0.00142062  1
  V  V64  1  0.13298419  0.00171995  0.13213733  1
  V  V65  1  0.62263953  0.62599589  0.51360885  1
  V  V66  1  0.12160935  0.24859079  0.87954793  1
  V  V67  1  -0.00304852  0.25572247  0.25660049  1
  V  V68  1  0.86800051  0.62973297  0.75514221  1
  V  V69  1  0.49779942  0.25116766  0.24922319  1
  V  V70  1  0.62323116  0.24797905  0.37557234  1
  V  V71  1  0.87430067  0.87531930  0.00807006  1
  V  V72  1  0.37477767  0.63273318  0.24387126  1
  V  V73  1  0.63062777  -0.00630517  0.12167114  1
  V  V74  1  0.37936234  0.86252738  0.00198625  1
  V  V75  1  0.74966707  0.12583587  0.37654531  1
  V  V76  1  0.24528200  0.11544454  0.37571508  1
  V  V77  1  0.24276540  0.38419004  0.62148106  1
  V  V78  1  0.37702854  -0.00038785  0.87333422  1
  V  V79  1  0.74883697  -0.00945635  0.75218504  1
  V  V80  1  0.38079500  0.13613460  0.75133978  1
  V  V81  1  0.00812065  0.12699261  0.12189651  1
  V  V82  1  0.37610034  0.37570688  -0.00364840  1
  V  V83  1  0.62664729  0.11943961  0.50295569  1
  V  V84  1  0.49433506  -0.00060971  0.49991706  1
  Zn  Zn85  1  -0.00434230  0.00920499  0.51179421  1
  Zn  Zn86  1  0.50638197  0.74140115  0.74392031  1
  Zn  Zn87  1  0.11926496  0.12652569  0.51260405  1
  Zn  Zn88  1  0.24387950  0.74822919  -0.00703703  1
  Zn  Zn89  1  0.12561592  0.75131709  0.37523885  1
  Zn  Zn90  1  0.49731426  0.75231614  0.24810688  1
  Zn  Zn91  1  0.24945749  0.62776604  0.37348150  1
  Zn  Zn92  1  0.13036240  0.87874211  0.25515529  1
  Zn  Zn93  1  0.49840399  0.87506653  0.37397522  1
  Zn  Zn94  1  0.62694816  0.47245917  0.62881724  1
  Zn  Zn95  1  0.01047950  0.49350817  0.49715938  1
  Zn  Zn96  1  0.37004017  -0.00335902  0.37327428  1
  Zn  Zn97  1  0.13586016  0.39189706  0.75006264  1
  Zn  Zn98  1  0.24687412  -0.00760609  0.75262518  1
  Zn  Zn99  1  0.50237771  0.12899331  0.63135378  1
  Zn  Zn100  1  0.37139204  0.87824954  0.49812902  1
  Zn  Zn101  1  0.25354626  0.25126763  0.49827417  1
  Zn  Zn102  1  0.87366613  0.74611124  0.12546944  1
  Zn  Zn103  1  0.74569101  0.86951806  0.62985453  1
  Zn  Zn104  1  0.62279740  0.50095347  0.12526625  1
  Zn  Zn105  1  0.24297093  0.87038736  0.63841246  1
  Zn  Zn106  1  0.87306119  0.87433342  0.50227819  1
  Zn  Zn107  1  0.18600095  0.18907310  0.19118228  1
  Zn  Zn108  1  0.18990461  0.18735230  0.68936987  1
  Zn  Zn109  1  0.18875123  0.69253547  0.18664716  1
  Zn  Zn110  1  0.19527396  0.67917118  0.68394884  1
  Zn  Zn111  1  0.68676527  0.18640010  0.18696090  1
  Zn  Zn112  1  0.69225051  0.17998106  0.68673181  1
  Zn  Zn113  1  0.68723633  0.68355525  0.18146537  1
  Zn  Zn114  1  0.69179898  0.68215792  0.68748429  1
  Zn  Zn115  1  0.30922580  0.31083177  0.31192135  1
  Zn  Zn116  1  0.31019812  0.31676251  0.80807949  1
  Zn  Zn117  1  0.31363827  0.81318131  0.31571355  1
  Zn  Zn118  1  0.30681248  0.80358628  0.81414504  1
  Zn  Zn119  1  0.80981759  0.31628267  0.31869226  1
  Zn  Zn120  1  0.81623622  0.31376393  0.80873542  1
  Zn  Zn121  1  0.81083109  0.81273657  0.31223010  1
  Zn  Zn122  1  0.81659561  0.81343529  0.82077875  1
  Zn  Zn123  1  0.19293972  0.43495203  0.44028349  1
  Zn  Zn124  1  0.18183182  0.43679332  0.93963832  1
  Zn  Zn125  1  0.18102648  0.93845493  0.44802614  1
  Zn  Zn126  1  0.19277328  0.93918561  0.94373900  1
  Zn  Zn127  1  0.67833898  0.42607328  0.46084452  1
  Zn  Zn128  1  0.68522230  0.43775667  0.93324978  1
  Zn  Zn129  1  0.68847695  0.93130534  0.43748911  1
  Zn  Zn130  1  0.69032295  0.93314218  0.93620434  1
  Zn  Zn131  1  0.31261797  0.06155183  0.05939081  1
  Zn  Zn132  1  0.30208874  0.06436341  0.56638512  1
  Zn  Zn133  1  0.31037254  0.56360327  0.05904281  1
  Zn  Zn134  1  0.31187178  0.56355285  0.55889138  1
  Zn  Zn135  1  0.81685815  0.06298793  0.05857372  1
  Zn  Zn136  1  0.80758922  0.05840341  0.56231226  1
  Zn  Zn137  1  0.80728161  0.56567084  0.07014588  1
  Zn  Zn138  1  0.81456822  0.56660602  0.56186976  1
  Zn  Zn139  1  0.43754830  0.44168964  0.18550662  1
  Zn  Zn140  1  0.43333594  0.43586889  0.68393656  1
  Zn  Zn141  1  0.44083147  0.93823600  0.18605363  1
  Zn  Zn142  1  0.43064181  0.93812886  0.68665208  1
  Zn  Zn143  1  0.93492252  0.44058619  0.18906744  1
  Zn  Zn144  1  0.95768367  0.44689800  0.69906230  1
  Zn  Zn145  1  0.94222494  0.93610481  0.18896998  1
  Zn  Zn146  1  0.94090615  0.93400291  0.69180262  1
  Zn  Zn147  1  0.05906319  0.06494807  0.31549459  1
  Zn  Zn148  1  0.06582199  0.06209842  0.81273868  1
  Zn  Zn149  1  0.06055222  0.56908509  0.31562571  1
  Zn  Zn150  1  0.05549683  0.56396891  0.81214439  1
  Zn  Zn151  1  0.56034098  0.06079064  0.31176919  1
  Zn  Zn152  1  0.56475776  0.06573939  0.81150341  1
  Zn  Zn153  1  0.55792386  0.56330846  0.31355121  1
  Zn  Zn154  1  0.56110218  0.56268956  0.80763033  1
  Zn  Zn155  1  0.43703042  0.18040473  0.43717179  1
  Zn  Zn156  1  0.43955057  0.19120537  0.93502856  1
  Zn  Zn157  1  0.43845120  0.68756733  0.43357512  1
  Zn  Zn158  1  0.42056282  0.69606700  0.92550250  1
  Zn  Zn159  1  0.93700499  0.19063830  0.44151451  1
  Zn  Zn160  1  0.93746894  0.18586635  0.93902497  1
  Zn  Zn161  1  0.93584630  0.68346270  0.43303785  1
  Zn  Zn162  1  0.94092707  0.68921516  0.93775809  1
  Zn  Zn163  1  0.06127568  0.31759542  0.06355286  1
  Zn  Zn164  1  0.06086721  0.31076476  0.56741737  1
  Zn  Zn165  1  0.06620728  0.81354304  0.06328167  1
  Zn  Zn166  1  0.06360636  0.81562915  0.56378393  1
  Zn  Zn167  1  0.56232431  0.31514040  0.05724648  1
  Zn  Zn168  1  0.55794380  0.31207590  0.56665172  1
  Zn  Zn169  1  0.56387616  0.81277093  0.05742961  1
  Zn  Zn170  1  0.56304575  0.81383112  0.55818487  1
  O  O171  1  0.11496847  0.12100220  0.12886731  1
  O  O172  1  0.13117258  0.11057748  0.62945375  1
  O  O173  1  0.12387015  0.61458250  0.12527140  1
  O  O174  1  0.11595838  0.62745108  0.61725219  1
  O  O175  1  0.62129107  0.11712875  0.11890211  1
  O  O176  1  0.62423332  0.11498904  0.61771434  1
  O  O177  1  0.61592137  0.62004705  0.11157181  1
  O  O178  1  0.62426831  0.62198852  0.61486004  1
  O  O179  1  0.38236771  0.38430020  0.36443568  1
  O  O180  1  0.38302248  0.38297111  0.87472559  1
  O  O181  1  0.37974210  0.87994122  0.37859537  1
  O  O182  1  0.38886087  0.88699422  0.88461126  1
  O  O183  1  0.87992758  0.38850791  0.37419491  1
  O  O184  1  0.87610241  0.38340265  0.88513428  1
  O  O185  1  0.87870094  0.88396636  0.37538508  1
  O  O186  1  0.88679835  0.88283318  0.88627122  1
  O  O187  1  0.24634350  0.01175986  0.37895648  1
  O  O188  1  0.25995154  0.00956276  0.87897488  1
  O  O189  1  0.25825537  0.50131153  0.36732954  1
  O  O190  1  0.26049179  0.49051202  0.87416213  1
  O  O191  1  0.75850706  0.00389816  0.36839492  1
  O  O192  1  0.75750015  0.00541661  0.87188378  1
  O  O193  1  0.75580075  0.48986357  0.36714482  1
  O  O194  1  0.75906768  0.49958689  0.86849942  1
  O  O195  1  0.24009809  0.49514820  0.12890792  1
  O  O196  1  0.25735343  0.48329858  0.61925873  1
  O  O197  1  0.24015210  0.99350541  0.11672253  1
  O  O198  1  0.24073293  0.99344014  0.63037364  1
  O  O199  1  0.74692717  0.48938570  0.13690543  1
  O  O200  1  0.75274816  0.50306481  0.63740052  1
  O  O201  1  0.74318596  1.00885317  0.13272936  1
  O  O202  1  0.74300951  0.99656296  0.63539250  1
  O  O203  1  0.00754457  0.36754744  0.24243325  1
  O  O204  1  -0.02355662  0.35264126  0.76992728  1
  O  O205  1  0.00024478  0.86749271  0.26084663  1
  O  O206  1  -0.00045280  0.85943038  0.75951430  1
  O  O207  1  0.50553286  0.37094995  0.25483172  1
  O  O208  1  0.50258726  0.38042809  0.75822906  1
  O  O209  1  0.51455005  0.87437018  0.24716570  1
  O  O210  1  0.49616607  0.87257766  0.75936338  1
  O  O211  1  0.49485529  0.13288886  0.24379271  1
  O  O212  1  0.48514949  0.12448276  0.75176457  1
  O  O213  1  0.49208042  0.62255978  0.23702542  1
  O  O214  1  0.48201421  0.62581223  0.75541140  1
  O  O215  1  0.99252916  0.13424675  0.24211039  1
  O  O216  1  0.99328470  0.13831688  0.76469396  1
  O  O217  1  0.98969562  0.63765713  0.25595546  1
  O  O218  1  0.99106741  0.63849480  0.74364600  1
  O  O219  1  0.36925953  0.25704662  0.00453788  1
  O  O220  1  0.37528970  0.24139687  0.51387773  1
  O  O221  1  0.40278509  0.76777427  0.02116767  1
  O  O222  1  0.36953026  0.74572608  0.50900191  1
  O  O223  1  0.86830664  0.25643237  0.00634941  1
  O  O224  1  0.87233307  0.25912413  0.51502344  1
  O  O225  1  0.87016558  0.75633380  0.00088420  1
  O  O226  1  0.86803947  0.74722510  0.50730415  1
  O  O227  1  0.11900749  0.25247559  0.48482872  1
  O  O228  1  0.12863853  0.25753359  0.98839849  1
  O  O229  1  0.13338335  0.74276786  0.50134383  1
  O  O230  1  0.12285260  0.73514941  0.99851588  1
  O  O231  1  0.62880762  0.23733207  0.49620813  1
  O  O232  1  0.63301612  0.24507051  0.99466448  1
  O  O233  1  0.62977562  0.74337266  0.49232451  1
  O  O234  1  0.63203123  0.74340823  0.99267302  1
  O  O235  1  0.49465143  0.24538647  0.12733446  1
  O  O236  1  0.48511594  0.24778247  0.62464862  1
  O  O237  1  0.51193127  0.73655141  0.12892231  1
  O  O238  1  0.48965860  0.75053018  0.62173605  1
  O  O239  1  0.99675888  0.24423749  0.13127521  1
  O  O240  1  0.98979964  0.24995812  0.63935587  1
  O  O241  1  0.99633260  0.75833590  0.13859471  1
  O  O242  1  0.99467063  0.74661502  0.63585415  1
  O  O243  1  0.00343490  0.24941279  0.36117745  1
  O  O244  1  0.00496503  0.25462311  0.87469581  1
  O  O245  1  -0.00201722  0.75886334  0.36695116  1
  O  O246  1  0.00024024  0.75561179  0.86170778  1
  O  O247  1  0.50123499  0.25510216  0.37047090  1
  O  O248  1  0.51104199  0.26129875  0.87839572  1
  O  O249  1  0.51090621  0.75304099  0.36869114  1
  O  O250  1  0.50828600  0.76004141  0.87336516  1
  O  O251  1  0.24187044  0.13200787  0.48945346  1
  O  O252  1  0.25807353  0.13562857  0.98706672  1
  O  O253  1  0.24265717  0.63426502  0.49965232  1
  O  O254  1  0.22952797  0.62295615  1.00402984  1
  O  O255  1  0.74117214  0.13265509  0.49726014  1
  O  O256  1  0.74683546  0.13070912  0.99080990  1
  O  O257  1  0.74155410  0.63682804  0.50325332  1
  O  O258  1  0.73909827  0.63035718  1.00175822  1
  O  O259  1  0.25466193  0.36951359  0.00457067  1
  O  O260  1  0.24910019  0.36732980  0.51256536  1
  O  O261  1  0.26251767  0.87209323  0.00691028  1
  O  O262  1  0.25071733  0.86230696  0.50270711  1
  O  O263  1  0.75275848  0.37192815  0.00719070  1
  O  O264  1  0.77380336  0.36202131  0.48444833  1
  O  O265  1  0.76259748  0.86702194  -0.00360915  1
  O  O266  1  0.75121705  0.86088843  0.50501111  1
  O  O267  1  0.12537043  0.49677654  0.24505478  1
  O  O268  1  0.06276449  0.47632871  0.74632855  1
  O  O269  1  0.11658238  0.99873863  0.23575763  1
  O  O270  1  0.12759008  1.00047815  0.74230148  1
  O  O271  1  0.62956479  0.49427273  0.25152536  1
  O  O272  1  0.64080735  0.50408133  0.74509150  1
  O  O273  1  0.63238852  0.99550755  0.24239935  1
  O  O274  1  0.63420930  1.00509862  0.74248666  1
  O  O275  1  0.38217369  0.01512838  0.25001059  1
  O  O276  1  0.37588939  0.01131384  0.76236886  1
  O  O277  1  0.37034897  0.50732934  0.25547526  1
  O  O278  1  0.37639916  0.50519481  0.75589449  1
  O  O279  1  0.86763081  0.00426288  0.25299289  1
  O  O280  1  0.87054204  -0.00510264  0.76449223  1
  O  O281  1  0.86790971  0.50301334  0.26040191  1
  O  O282  1  0.87039504  0.50859106  0.75982758  1
  O  O283  1  0.12935226  0.37044728  0.36182358  1
  O  O284  1  0.11393449  0.36935151  0.87200864  1
  O  O285  1  0.11513632  0.87543005  0.37392601  1
  O  O286  1  0.11474118  0.87906119  0.88431798  1
  O  O287  1  0.61484059  0.36622015  0.37267742  1
  O  O288  1  0.61665779  0.36486556  0.87791928  1
  O  O289  1  0.62348122  0.86759113  0.36419888  1
  O  O290  1  0.61654838  0.86478552  0.88012781  1
  O  O291  1  0.37892645  0.13074772  0.13002708  1
  O  O292  1  0.37305032  0.13303110  0.63870885  1
  O  O293  1  0.38381630  0.61769066  0.13004434  1
  O  O294  1  0.37627271  0.62961892  0.63012481  1
  O  O295  1  0.88307107  0.13167151  0.12994387  1
  O  O296  1  0.87617280  0.13158241  0.62102711  1
  O  O297  1  0.87282305  0.62325142  0.14442712  1
  O  O298  1  0.88043288  0.63739952  0.63226596  1
  O  O299  1  0.25228240  0.25529645  0.11935017  1
  O  O300  1  0.26176465  0.25295814  0.62385232  1
  O  O301  1  0.24820078  0.76637375  0.11730058  1
  O  O302  1  0.26195686  0.74954724  0.61707519  1
  O  O303  1  0.75375807  0.25774217  0.12130347  1
  O  O304  1  0.76289533  0.24516543  0.62042110  1
  O  O305  1  0.75188890  0.74737407  0.10932384  1
  O  O306  1  0.75788363  0.75071970  0.62028032  1
  O  O307  1  0.23948283  0.24431761  0.37482845  1
  O  O308  1  0.24112387  0.24755634  0.87790801  1
  O  O309  1  0.24941261  0.74730019  0.38549406  1
  O  O310  1  0.31206247  0.74170360  0.90327465  1
  O  O311  1  0.74326576  0.24457522  0.38437030  1
  O  O312  1  0.74721502  0.24382007  0.87690506  1
  O  O313  1  0.74090918  0.75412522  0.38342138  1
  O  O314  1  0.74130715  0.75381511  0.88649965  1
  O  O315  1  -0.00507177  0.11590795  0.01122624  1
  O  O316  1  0.00774239  0.11995283  0.48586840  1
  O  O317  1  0.01100805  0.61746801  -0.00163151  1
  O  O318  1  0.00966751  0.62992924  0.50689189  1
  O  O319  1  0.50684154  0.12082739  0.00363890  1
  O  O320  1  0.51201083  0.11654267  0.50167096  1
  O  O321  1  0.50131577  0.61921546  0.00119524  1
  O  O322  1  0.50751696  0.61657863  0.49514606  1
  O  O323  1  0.49582157  0.37998936  0.48671673  1
  O  O324  1  0.49230167  0.38369678  0.99422278  1
  O  O325  1  0.50022251  0.88941963  0.49802884  1
  O  O326  1  0.49859317  0.88690666  0.99546375  1
  O  O327  1  0.98787682  0.37554589  0.50212819  1
  O  O328  1  0.99223598  0.38157559  0.99171781  1
  O  O329  1  0.99485513  0.87669662  0.48782357  1
  O  O330  1  0.99610420  0.88127178  0.99537799  1
  O  O331  1  0.49261540  0.49135814  0.37933928  1
  O  O332  1  0.49899669  0.49069094  0.88242635  1
  O  O333  1  0.49769387  1.00096038  0.38562642  1
  O  O334  1  0.49807613  0.99561098  0.87813884  1
  O  O335  1  0.98680286  0.50255205  0.37828502  1
  O  O336  1  0.98659371  0.49354721  0.88958793  1
  O  O337  1  0.98522980  0.99297583  0.36833692  1
  O  O338  1  0.99678168  0.99492271  0.88205328  1
  O  O339  1  0.00595348  0.00787938  0.11891445  1
  O  O340  1  0.01003128  -0.00209136  0.62970376  1
  O  O341  1  0.00518583  0.49364739  0.11324714  1
  O  O342  1  -0.01624065  0.51995321  0.61183118  1
  O  O343  1  0.51019002  0.00796336  0.11855531  1
  O  O344  1  0.50562633  0.00396573  0.62033431  1
  O  O345  1  0.49988049  0.50513151  0.10843121  1
  O  O346  1  0.50593845  0.48575405  0.60872262  1
  O  O347  1  0.24131612  0.38154968  0.24312937  1
  O  O348  1  0.24715630  0.37273302  0.73339668  1
  O  O349  1  0.25187667  0.87308358  0.23546003  1
  O  O350  1  0.26144344  0.87822620  0.75216365  1
  O  O351  1  0.74015041  0.37905651  0.24723932  1
  O  O352  1  0.75568447  0.39210198  0.75139257  1
  O  O353  1  0.74129040  0.88799398  0.25092279  1
  O  O354  1  0.75316805  0.88669901  0.75390034  1
  O  O355  1  0.25926673  0.13051386  0.25720156  1
  O  O356  1  0.26188248  0.12498112  0.76414666  1
  O  O357  1  0.25705081  0.61908518  0.24702798  1
  O  O358  1  0.27174067  0.62827591  0.75232996  1
  O  O359  1  0.75399395  0.11662859  0.25509396  1
  O  O360  1  0.75084032  0.11339697  0.76323802  1
  O  O361  1  0.75303859  0.61305587  0.24826384  1
  O  O362  1  0.76377699  0.61653040  0.75033748  1
  O  O363  1  0.36395032  0.12503955  0.36591490  1
  O  O364  1  0.37243448  0.12275103  0.86781096  1
  O  O365  1  0.37543761  0.61605620  0.36224559  1
  O  O366  1  0.37896541  0.60234259  0.86780605  1
  O  O367  1  0.86788383  0.12017007  0.36846554  1
  O  O368  1  0.86638757  0.11353181  0.88418794  1
  O  O369  1  0.87271610  0.60984042  0.36537938  1
  O  O370  1  0.88146258  0.61780655  0.86803768  1
  O  O371  1  0.12870547  0.38408269  0.13418457  1
  O  O372  1  0.13751409  0.37024559  0.62715420  1
  O  O373  1  0.13895701  0.88381519  0.12481126  1
  O  O374  1  0.12593502  0.88937066  0.62421857  1
  O  O375  1  0.62897104  0.37652186  0.13244752  1
  O  O376  1  0.64890389  0.37481261  0.57086779  1
  O  O377  1  0.62420834  0.88787087  0.12837134  1
  O  O378  1  0.62525415  0.88631408  0.62420980  1
  O  O379  1  0.11637092  0.26004022  0.25584895  1
  O  O380  1  0.11030588  0.25200218  0.75915402  1
  O  O381  1  0.11677968  0.75401766  0.25254051  1
  O  O382  1  0.11611642  0.74337556  0.74654515  1
  O  O383  1  0.61836275  0.25395533  0.25598572  1
  O  O384  1  0.63025815  0.24444528  0.75895315  1
  O  O385  1  0.63093145  0.75760482  0.25418920  1
  O  O386  1  0.62618601  0.74186054  0.76194439  1
  O  O387  1  0.37972782  0.24331837  0.24233706  1
  O  O388  1  0.37348057  0.23958374  0.74545210  1
  O  O389  1  0.37613012  0.73655607  0.25091089  1
  O  O390  1  0.38059440  0.73915165  0.73309998  1
  O  O391  1  0.87929558  0.24857603  0.24613446  1
  O  O392  1  0.87611106  0.24434029  0.73669501  1
  O  O393  1  0.87785170  0.74287125  0.24980836  1
  O  O394  1  0.87564152  0.74488878  0.74561696  1
  O  O395  1  0.38266479  0.50774081  0.48420292  1
  O  O396  1  0.37867002  0.49554786  0.98703939  1
  O  O397  1  0.38314996  1.00495355  0.50154259  1
  O  O398  1  0.38447674  1.00053468  0.98851868  1
  O  O399  1  0.87141346  0.48915786  0.49097314  1
  O  O400  1  0.87701732  0.50039988  0.99814809  1
  O  O401  1  0.87402823  0.99667055  0.49122629  1
  O  O402  1  0.88501294  0.99344642  0.99341826  1
  O  O403  1  0.11361511  -0.00140950  0.01015826  1
  O  O404  1  0.11894940  0.00430012  0.51593409  1
  O  O405  1  0.11489869  0.50682357  0.00626306  1
  O  O406  1  0.12607646  0.51331093  0.49326044  1
  O  O407  1  0.62453033  0.00527680  0.00545037  1
  O  O408  1  0.62241995  0.00481124  0.50643767  1
  O  O409  1  0.61690318  0.50738737  -0.00246844  1
  O  O410  1  0.61407785  0.51525576  0.49069884  1
  O  O411  1  0.36827672  0.37115200  0.11936095  1
  O  O412  1  0.36747261  0.35977523  0.62819619  1
  O  O413  1  0.36266726  0.88937278  0.11711247  1
  O  O414  1  0.37521266  0.86121041  0.61955224  1
  O  O415  1  0.86717555  0.37036629  0.12166616  1
  O  O416  1  0.88155543  0.37812898  0.61846984  1
  O  O417  1  0.87997286  0.87645509  0.11162715  1
  O  O418  1  0.87475136  0.86261418  0.62560213  1
  O  O419  1  0.13291232  0.13683703  0.36468535  1
  O  O420  1  0.13448057  0.13449853  0.87445338  1
  O  O421  1  0.12776124  0.63068024  0.38444693  1
  O  O422  1  0.12440757  0.61987471  0.88314330  1
  O  O423  1  0.63012402  0.12791869  0.38123738  1
  O  O424  1  0.63320482  0.13258334  0.88089002  1
  O  O425  1  0.62258137  0.63655702  0.37693920  1
  O  O426  1  0.61758588  0.63321604  0.88550732  1
