# generated using pymatgen
data_V85Zn86O256
_symmetry_space_group_name_H-M   'P 1'
_cell_length_a   16.94057251
_cell_length_b   16.93719404
_cell_length_c   16.92459892
_cell_angle_alpha   89.90443390
_cell_angle_beta   89.93855704
_cell_angle_gamma   89.99503124
_symmetry_Int_Tables_number   1
_chemical_formula_structural   V85Zn86O256
_chemical_formula_sum   'V85 Zn86 O256'
_cell_volume   4856.09390704
_cell_formula_units_Z   1
loop_
 _symmetry_equiv_pos_site_id
 _symmetry_equiv_pos_as_xyz
  1  'x, y, z'
loop_
 _atom_site_type_symbol
 _atom_site_label
 _atom_site_symmetry_multiplicity
 _atom_site_fract_x
 _atom_site_fract_y
 _atom_site_fract_z
 _atom_site_occupancy
  V  V0  1  0.36893642  0.24536221  0.12522815  1
  V  V1  1  0.37683634  0.37879003  -0.00018398  1
  V  V2  1  0.50175557  0.87349563  0.87588829  1
  V  V3  1  0.74586074  0.00537380  0.74497861  1
  V  V4  1  0.75354007  0.25811187  -0.00828828  1
  V  V5  1  0.00694216  0.87746630  0.37630796  1
  V  V6  1  0.25251925  0.74791366  0.00293504  1
  V  V7  1  0.00194424  0.75560822  0.74803081  1
  V  V8  1  0.37440019  0.88147633  0.00014418  1
  V  V9  1  0.75687196  0.87818691  0.11839047  1
  V  V10  1  0.62706961  0.87226702  0.25389184  1
  V  V11  1  0.73985137  0.87486928  0.62592195  1
  V  V12  1  0.25319985  0.74823607  0.49914220  1
  V  V13  1  0.12324786  0.62453502  0.49899311  1
  V  V14  1  0.37623163  0.24641698  0.63091634  1
  V  V15  1  -0.00007017  0.49757397  0.49520026  1
  V  V16  1  0.12456308  0.12021852  -0.00903686  1
  V  V17  1  0.37560155  0.62446227  0.24538244  1
  V  V18  1  0.88017519  0.50290618  0.86283117  1
  V  V19  1  0.87815661  0.23821445  0.63121476  1
  V  V20  1  0.00133446  0.74845326  0.24865621  1
  V  V21  1  0.75356190  0.00744349  0.24654831  1
  V  V22  1  0.50480931  0.12023886  0.62767736  1
  V  V23  1  0.50275631  0.13170504  0.12980012  1
  V  V24  1  0.37793591  0.74249599  0.63455731  1
  V  V25  1  -0.00753544  0.49771404  0.00054164  1
  V  V26  1  0.24680651  0.11743724  0.38095733  1
  V  V27  1  0.37441678  0.37191159  0.49949675  1
  V  V28  1  0.87173971  0.87534810  0.49961002  1
  V  V29  1  0.75138472  0.12613711  0.37102223  1
  V  V30  1  0.50586667  0.74890958  0.25135470  1
  V  V31  1  -0.00693588  -0.00362160  0.00655142  1
  V  V32  1  -0.00872390  0.87491259  0.87709899  1
  V  V33  1  0.75327523  0.37551960  0.62196282  1
  V  V34  1  0.11892275  0.50572158  0.12429163  1
  V  V35  1  -0.01040949  0.24760240  0.25420870  1
  V  V36  1  0.62984282  0.60976590  0.00297441  1
  V  V37  1  0.37850020  0.12947260  0.25288749  1
  V  V38  1  0.75009639  0.75384118  -0.00206213  1
  V  V39  1  0.24535849  0.87600957  0.12807329  1
  V  V40  1  0.25694024  0.50547914  0.75481363  1
  V  V41  1  0.37907756  0.87238901  0.49893737  1
  V  V42  1  0.12800317  0.75568221  0.86912272  1
  V  V43  1  0.50636638  0.61123592  0.12061950  1
  V  V44  1  0.87776703  0.37422556  0.49230916  1
  V  V45  1  0.49636728  0.00526022  -0.00415863  1
  V  V46  1  0.63111378  0.36913585  0.75454800  1
  V  V47  1  0.74589376  0.74362220  0.48622308  1
  V  V48  1  0.74971087  0.25216651  0.49861824  1
  V  V49  1  0.62629904  0.00252622  0.12430139  1
  V  V50  1  0.62580345  0.37812289  0.23927071  1
  V  V51  1  0.24599212  0.49823132  0.24709729  1
  V  V52  1  0.24763292  0.24868153  0.50104882  1
  V  V53  1  0.87325064  0.00769639  0.87173111  1
  V  V54  1  0.24959603  0.37317556  0.62886437  1
  V  V55  1  0.11570816  0.37466213  0.24997078  1
  V  V56  1  0.87374215  0.25243385  0.12302338  1
  V  V57  1  0.11728622  0.12773172  0.51136262  1
  V  V58  1  -0.00431522  0.00646434  0.51132754  1
  V  V59  1  0.00216661  0.37181339  0.87543131  1
  V  V60  1  0.86811316  0.74675861  0.63071771  1
  V  V61  1  0.12472745  0.49867971  0.62834356  1
  V  V62  1  0.00135454  0.23786757  0.75326228  1
  V  V63  1  -0.00515339  0.62313247  0.63271071  1
  V  V64  1  0.62184159  0.25080166  0.36827936  1
  V  V65  1  0.37165104  0.49572676  0.37297104  1
  V  V66  1  0.24524065  0.00405233  0.24036522  1
  V  V67  1  0.87658282  0.00627548  0.37030753  1
  V  V68  1  0.75495775  0.62642653  0.86563539  1
  V  V69  1  0.86892252  0.62914370  0.25115588  1
  V  V70  1  0.62537211  0.11942130  0.49994208  1
  V  V71  1  0.23960989  0.25037364  -0.01400421  1
  V  V72  1  0.50020602  0.49860568  0.50056630  1
  V  V73  1  0.88099546  0.74920368  0.11944697  1
  V  V74  1  0.49789676  0.36794726  0.36674414  1
  V  V75  1  0.11952413  0.25406581  0.37492059  1
  V  V76  1  0.00317759  0.12340818  0.13048364  1
  V  V77  1  0.24832218  0.62327953  0.37206163  1
  V  V78  1  0.62591355  0.50077953  0.62399017  1
  V  V79  1  0.87342919  0.50468837  0.37059329  1
  V  V80  1  0.11739487  0.62883934  0.00204256  1
  V  V81  1  0.50669489  0.38147599  0.87925578  1
  V  V82  1  0.50091875  -0.00415612  0.50147609  1
  V  V83  1  0.50407392  0.24785815  0.75733707  1
  V  V84  1  0.63045228  0.12889705  -0.00986622  1
  Zn  Zn85  1  0.37699705  -0.00369014  0.37541608  1
  Zn  Zn86  1  0.12262352  0.88072170  0.24777633  1
  Zn  Zn87  1  0.38549248  0.50781650  0.87624507  1
  Zn  Zn88  1  0.24657971  0.37243539  0.12331637  1
  Zn  Zn89  1  0.73799564  0.51338486  0.24336175  1
  Zn  Zn90  1  0.75620724  0.50422456  0.74504665  1
  Zn  Zn91  1  0.62277108  0.63161098  0.48656361  1
  Zn  Zn92  1  0.12613827  0.75137442  0.37335421  1
  Zn  Zn93  1  0.38038660  0.75150110  0.12604486  1
  Zn  Zn94  1  0.62002603  0.87483644  0.74832245  1
  Zn  Zn95  1  0.25711878  0.63088635  0.87046466  1
  Zn  Zn96  1  0.24366366  -0.00391060  0.77742135  1
  Zn  Zn97  1  0.75693045  0.38456146  0.11999366  1
  Zn  Zn98  1  0.50006169  0.73809666  0.75934734  1
  Zn  Zn99  1  0.50583475  0.86693350  0.37573709  1
  Zn  Zn100  1  0.12617693  0.36972042  0.75637427  1
  Zn  Zn101  1  0.37010900  0.11356450  0.78032227  1
  Zn  Zn102  1  0.24123029  0.87438014  0.64078235  1
  Zn  Zn103  1  0.12212086  -0.00955516  0.64190563  1
  Zn  Zn104  1  0.62516992  0.74822244  0.87395354  1
  Zn  Zn105  1  0.75255041  0.13178557  0.86717066  1
  Zn  Zn106  1  0.49671843  0.61870857  0.63307136  1
  Zn  Zn107  1  0.18435505  0.18553531  0.18389536  1
  Zn  Zn108  1  0.18304890  0.18172761  0.69717525  1
  Zn  Zn109  1  0.18417750  0.68934069  0.18690370  1
  Zn  Zn110  1  0.18764464  0.68794243  0.68553305  1
  Zn  Zn111  1  0.68822332  0.19218193  0.18460177  1
  Zn  Zn112  1  0.68764636  0.18792029  0.68557775  1
  Zn  Zn113  1  0.68849360  0.69010493  0.18339648  1
  Zn  Zn114  1  0.67762683  0.68818044  0.68591379  1
  Zn  Zn115  1  0.30524059  0.30996331  0.31056396  1
  Zn  Zn116  1  0.31757072  0.31485017  0.81310175  1
  Zn  Zn117  1  0.31635520  0.81209254  0.31381436  1
  Zn  Zn118  1  0.31451604  0.82153565  0.81617762  1
  Zn  Zn119  1  0.81050597  0.31719342  0.31276171  1
  Zn  Zn120  1  0.82074391  0.31858046  0.81397779  1
  Zn  Zn121  1  0.81625237  0.82001746  0.30872168  1
  Zn  Zn122  1  0.81272516  0.81574788  0.81084043  1
  Zn  Zn123  1  0.18467116  0.43489550  0.43804475  1
  Zn  Zn124  1  0.18444171  0.43625564  0.93808122  1
  Zn  Zn125  1  0.19004151  0.94207466  0.49258343  1
  Zn  Zn126  1  0.17801894  0.93387471  0.94174545  1
  Zn  Zn127  1  0.67283390  0.46808790  0.41591479  1
  Zn  Zn128  1  0.69408438  0.43788648  0.93287931  1
  Zn  Zn129  1  0.68842991  0.93643728  0.43643163  1
  Zn  Zn130  1  0.68705012  0.94045430  0.93610985  1
  Zn  Zn131  1  0.31358573  0.06768153  -0.04933569  1
  Zn  Zn132  1  0.31072011  0.05889055  0.63460677  1
  Zn  Zn133  1  0.31115001  0.56428396  0.06165409  1
  Zn  Zn134  1  0.31191945  0.56135629  0.56373886  1
  Zn  Zn135  1  0.81886310  0.07039813  0.06164952  1
  Zn  Zn136  1  0.80928355  0.06131134  0.56222897  1
  Zn  Zn137  1  0.81520568  0.56642986  0.06454594  1
  Zn  Zn138  1  0.81319554  0.56388860  0.56008806  1
  Zn  Zn139  1  0.43733263  0.43296504  0.18636321  1
  Zn  Zn140  1  0.43888125  0.43470564  0.69092244  1
  Zn  Zn141  1  0.43506107  0.94208795  0.18524425  1
  Zn  Zn142  1  0.43498035  0.93194993  0.68725205  1
  Zn  Zn143  1  0.93596730  0.43829831  0.18509250  1
  Zn  Zn144  1  0.93938657  0.43208632  0.68754710  1
  Zn  Zn145  1  0.93678889  0.93702253  0.18834250  1
  Zn  Zn146  1  0.93051828  0.93464566  0.69031408  1
  Zn  Zn147  1  0.06391030  0.06542471  0.31665317  1
  Zn  Zn148  1  0.06174297  0.06167930  0.81552510  1
  Zn  Zn149  1  0.05658687  0.56519601  0.31170900  1
  Zn  Zn150  1  0.06880976  0.56519174  0.81325397  1
  Zn  Zn151  1  0.56287376  0.05995980  0.31370788  1
  Zn  Zn152  1  0.56350239  0.05936066  0.81279423  1
  Zn  Zn153  1  0.55911455  0.56143396  0.31126520  1
  Zn  Zn154  1  0.56779648  0.56222676  0.81195308  1
  Zn  Zn155  1  0.43606656  0.18517483  0.44039813  1
  Zn  Zn156  1  0.44550260  0.19999509  0.94514818  1
  Zn  Zn157  1  0.43797277  0.68346990  0.43427308  1
  Zn  Zn158  1  0.43819027  0.68628396  0.94086938  1
  Zn  Zn159  1  0.93597460  0.18840615  0.43764671  1
  Zn  Zn160  1  0.93761075  0.18667563  0.93905695  1
  Zn  Zn161  1  0.93442559  0.68823461  0.43886795  1
  Zn  Zn162  1  0.93538408  0.68674501  0.93659281  1
  Zn  Zn163  1  0.05988813  0.31503731  0.06378421  1
  Zn  Zn164  1  0.05941330  0.31265441  0.56800728  1
  Zn  Zn165  1  0.06356829  0.81689343  0.06189220  1
  Zn  Zn166  1  0.05845342  0.80955135  0.55847697  1
  Zn  Zn167  1  0.56376614  0.30788942  0.05867233  1
  Zn  Zn168  1  0.56383923  0.31194112  0.56139512  1
  Zn  Zn169  1  0.56582462  0.81065375  0.06536947  1
  Zn  Zn170  1  0.56347209  0.80660056  0.56294421  1
  O  O171  1  0.10977617  0.13103117  0.11490998  1
  O  O172  1  0.12188053  0.12461412  0.61239482  1
  O  O173  1  0.12483238  0.61677413  0.11793813  1
  O  O174  1  0.11792197  0.61866459  0.61776064  1
  O  O175  1  0.61884231  0.12185548  0.12103377  1
  O  O176  1  0.61328019  0.13289050  0.61412196  1
  O  O177  1  0.61838220  0.62449640  0.11632541  1
  O  O178  1  0.62476998  0.61123348  0.61372914  1
  O  O179  1  0.37919021  0.37506903  0.37646765  1
  O  O180  1  0.38615563  0.37862498  0.88298006  1
  O  O181  1  0.38508928  0.87266897  0.38437772  1
  O  O182  1  0.38677821  0.87113499  0.89272443  1
  O  O183  1  0.87775052  0.37731034  0.38723866  1
  O  O184  1  0.88705514  0.39050853  0.87506286  1
  O  O185  1  0.88092744  0.88783969  0.37972785  1
  O  O186  1  0.88572664  0.88179082  0.87398869  1
  O  O187  1  0.25242330  0.01347407  0.37500546  1
  O  O188  1  0.25066634  -0.00172178  0.89140091  1
  O  O189  1  0.25268093  0.50269333  0.36901240  1
  O  O190  1  0.24670121  0.49808051  0.86048157  1
  O  O191  1  0.75610420  0.00493892  0.36641823  1
  O  O192  1  0.75714121  0.00047608  0.86545527  1
  O  O193  1  0.77148197  0.48773360  0.35894924  1
  O  O194  1  0.76264772  0.50800821  0.87222159  1
  O  O195  1  0.23722740  0.49811203  0.13003812  1
  O  O196  1  0.24702172  0.49319322  0.63352155  1
  O  O197  1  0.25153024  0.99599514  0.14083722  1
  O  O198  1  0.23769317  0.98745849  0.59329851  1
  O  O199  1  0.76713792  0.49593709  0.13499710  1
  O  O200  1  0.74485037  0.49269546  0.62301902  1
  O  O201  1  0.75045820  0.99711716  0.12886234  1
  O  O202  1  0.75523931  0.99169065  0.63635748  1
  O  O203  1  0.01001980  0.36659935  0.24848456  1
  O  O204  1  0.00173455  0.36687126  0.75789172  1
  O  O205  1  0.00063979  0.86910902  0.25862790  1
  O  O206  1  -0.00288476  0.86258768  0.75605594  1
  O  O207  1  0.50807055  0.37374141  0.25828272  1
  O  O208  1  0.51030730  0.36740915  0.75538490  1
  O  O209  1  0.50834556  0.86790535  0.24630823  1
  O  O210  1  0.49871293  0.87413660  0.76350390  1
  O  O211  1  0.49048085  0.11938881  0.24385946  1
  O  O212  1  0.50421010  0.13100849  0.74264028  1
  O  O213  1  0.49939629  0.62760092  0.23887180  1
  O  O214  1  0.50449397  0.62445985  0.74646364  1
  O  O215  1  1.00651465  0.13498656  0.24357798  1
  O  O216  1  0.99530835  0.13944950  0.75658882  1
  O  O217  1  0.99300739  0.64329162  0.25408218  1
  O  O218  1  1.00541751  0.63429549  0.73815340  1
  O  O219  1  0.36231316  0.25730208  0.00785786  1
  O  O220  1  0.36874390  0.25563721  0.50614692  1
  O  O221  1  0.36623188  0.75853331  0.00627533  1
  O  O222  1  0.37054345  0.75001629  0.50302451  1
  O  O223  1  0.86218378  0.24571073  0.00737416  1
  O  O224  1  0.87336103  0.25796415  0.50912872  1
  O  O225  1  0.86392200  0.74520192  0.00789630  1
  O  O226  1  0.86705428  0.75569740  0.50951534  1
  O  O227  1  0.12403811  0.24749024  0.49416995  1
  O  O228  1  0.13514722  0.24643808  1.00421721  1
  O  O229  1  0.13370007  0.73962612  0.49594750  1
  O  O230  1  0.13025425  0.74496801  0.99620390  1
  O  O231  1  0.62911949  0.24263526  0.48998092  1
  O  O232  1  0.64218655  0.24120852  1.00476149  1
  O  O233  1  0.63960268  0.74803053  0.49763169  1
  O  O234  1  0.63972869  0.74332005  1.00171078  1
  O  O235  1  0.49186407  0.23716474  0.11937407  1
  O  O236  1  0.49530967  0.24708818  0.63441685  1
  O  O237  1  0.50122609  0.74061975  0.13523219  1
  O  O238  1  0.48672881  0.74480828  0.62250970  1
  O  O239  1  0.99523325  0.24515319  0.13375669  1
  O  O240  1  0.98571124  0.25444314  0.63662388  1
  O  O241  1  0.99113211  0.76229853  0.13362052  1
  O  O242  1  0.99297986  0.74448386  0.62982555  1
  O  O243  1  0.00710239  0.24556622  0.36677125  1
  O  O244  1  -0.01367359  0.25852171  0.86206379  1
  O  O245  1  -0.00251024  0.76086152  0.36939859  1
  O  O246  1  0.00220005  0.75434683  0.86671814  1
  O  O247  1  0.50698036  0.25915810  0.38232673  1
  O  O248  1  0.50182835  0.26026235  0.86212595  1
  O  O249  1  0.50155239  0.74365181  0.35790159  1
  O  O250  1  0.50295432  0.75928819  0.88001459  1
  O  O251  1  0.23646643  0.13536258  0.49242192  1
  O  O252  1  0.23296104  0.13693427  1.00400666  1
  O  O253  1  0.24573431  0.63066749  0.49417182  1
  O  O254  1  0.23912814  0.63793853  1.00555150  1
  O  O255  1  0.74202519  0.13060306  0.49463814  1
  O  O256  1  0.74459782  0.13368699  0.99767098  1
  O  O257  1  0.75360964  0.64136192  0.49916771  1
  O  O258  1  0.74250578  0.63163088  0.99559584  1
  O  O259  1  0.25249053  0.36384526  0.00118310  1
  O  O260  1  0.25472374  0.36979537  0.50782063  1
  O  O261  1  0.25449647  0.86665673  0.00916026  1
  O  O262  1  0.26379824  0.85509286  0.48483528  1
  O  O263  1  0.74611699  0.36152209  0.00200208  1
  O  O264  1  0.75834270  0.36885743  0.50607872  1
  O  O265  1  0.74650524  0.86919051  0.00814153  1
  O  O266  1  0.75362270  0.86946380  0.50631927  1
  O  O267  1  0.12243644  0.49474386  0.24408576  1
  O  O268  1  0.13378199  0.49716708  0.74275067  1
  O  O269  1  0.14118120  0.99956304  0.25823137  1
  O  O270  1  0.13005437  1.00722526  0.75100806  1
  O  O271  1  0.62291207  0.48209795  0.24898624  1
  O  O272  1  0.62947980  0.48719213  0.73722993  1
  O  O273  1  0.63243761  0.99544629  0.24265516  1
  O  O274  1  0.64097881  0.99347473  0.75540351  1
  O  O275  1  0.36531025  0.01127445  0.25438495  1
  O  O276  1  0.36741418  0.00947298  0.72774072  1
  O  O277  1  0.36755585  0.50259062  0.25263858  1
  O  O278  1  0.36031476  0.49351525  0.75176645  1
  O  O279  1  0.86520289  -0.00286970  0.25811083  1
  O  O280  1  0.86072998  -0.00479667  0.75872797  1
  O  O281  1  0.89182964  0.51536990  0.25737467  1
  O  O282  1  0.87717314  0.50169392  0.75805450  1
  O  O283  1  0.12776583  0.36244766  0.36856585  1
  O  O284  1  0.10833848  0.37872818  0.87404810  1
  O  O285  1  0.11018000  0.87598658  0.37993608  1
  O  O286  1  0.10946472  0.86027326  0.88365588  1
  O  O287  1  0.61616878  0.36970007  0.36700570  1
  O  O288  1  0.62278330  0.37750493  0.86507677  1
  O  O289  1  0.62459062  0.88097237  0.35850083  1
  O  O290  1  0.61163113  0.87287235  0.88105465  1
  O  O291  1  0.38329775  0.13607307  0.13427168  1
  O  O292  1  0.39177171  0.14040618  0.61225984  1
  O  O293  1  0.38857390  0.62496381  0.12702038  1
  O  O294  1  0.37524859  0.63865764  0.61920748  1
  O  O295  1  0.88963802  0.13871007  0.12395006  1
  O  O296  1  0.87055327  0.14042934  0.61989111  1
  O  O297  1  0.87698802  0.64222590  0.13335989  1
  O  O298  1  0.88362155  0.63313450  0.62063662  1
  O  O299  1  0.25615822  0.25050517  0.11812023  1
  O  O300  1  0.25762500  0.25500104  0.62201285  1
  O  O301  1  0.25296859  0.75791008  0.12063003  1
  O  O302  1  0.25948779  0.75014317  0.61589380  1
  O  O303  1  0.75935775  0.25168851  0.11663466  1
  O  O304  1  0.75990539  0.25609630  0.62020745  1
  O  O305  1  0.75792955  0.75978565  0.11789840  1
  O  O306  1  0.75446836  0.75557462  0.62018606  1
  O  O307  1  0.24107476  0.24211919  0.38100021  1
  O  O308  1  0.25129756  0.25293701  0.88725464  1
  O  O309  1  0.25017324  0.73878784  0.37876045  1
  O  O310  1  0.24288951  0.75280793  0.88477418  1
  O  O311  1  0.74378625  0.24556479  0.37992606  1
  O  O312  1  0.75960138  0.25004845  0.88695550  1
  O  O313  1  0.75876643  0.75861010  0.38873861  1
  O  O314  1  0.75257305  0.74421895  0.88164945  1
  O  O315  1  0.00656866  0.12121186  0.00817404  1
  O  O316  1  0.00280886  0.11813069  0.49833622  1
  O  O317  1  0.01242559  0.62016517  -0.00536165  1
  O  O318  1  0.00360397  0.61926620  0.50947790  1
  O  O319  1  0.51133092  0.12181546  0.00868194  1
  O  O320  1  0.50770456  0.11838772  0.50484123  1
  O  O321  1  0.51679621  0.62904999  0.01215498  1
  O  O322  1  0.50061411  0.60718631  0.49886421  1
  O  O323  1  0.49292087  0.37975680  0.49268303  1
  O  O324  1  0.49173056  0.36391042  0.99037612  1
  O  O325  1  0.49938064  0.87910757  0.49837546  1
  O  O326  1  0.49362634  0.88376388  1.00204933  1
  O  O327  1  0.99013569  0.38642354  0.50981408  1
  O  O328  1  1.00354479  0.38595853  0.99165384  1
  O  O329  1  0.98826431  0.88159034  0.49199454  1
  O  O330  1  1.00120582  0.88612566  0.99390473  1
  O  O331  1  0.48932453  0.48581998  0.38064719  1
  O  O332  1  0.50311859  0.48570449  0.87269929  1
  O  O333  1  0.49920442  0.99961261  0.38855817  1
  O  O334  1  0.50555987  0.99393483  0.89022401  1
  O  O335  1  0.99473042  0.50246337  0.38926951  1
  O  O336  1  0.99670425  0.49847422  0.87914104  1
  O  O337  1  0.99058468  0.99604340  0.37730604  1
  O  O338  1  0.99140145  0.99237704  0.88091395  1
  O  O339  1  -0.00729700  0.00863858  0.11902020  1
  O  O340  1  -0.00284188  -0.00658792  0.61373689  1
  O  O341  1  0.00988149  0.49633158  0.11537708  1
  O  O342  1  0.00222840  0.50725141  0.61894194  1
  O  O343  1  0.50517532  0.01085977  0.11757496  1
  O  O344  1  0.50047430  0.00816445  0.61267340  1
  O  O345  1  0.49899593  0.51256379  0.12734525  1
  O  O346  1  0.50553124  0.49530447  0.61734260  1
  O  O347  1  0.23595687  0.38126164  0.24839602  1
  O  O348  1  0.24759075  0.38035890  0.74413777  1
  O  O349  1  0.25247403  0.88668127  0.24740371  1
  O  O350  1  0.24979408  0.88167489  0.75163410  1
  O  O351  1  0.73275733  0.37002004  0.24688530  1
  O  O352  1  0.74680375  0.37634063  0.74193939  1
  O  O353  1  0.74469999  0.88607461  0.24209811  1
  O  O354  1  0.74825522  0.88268703  0.74112664  1
  O  O355  1  0.25318531  0.11710904  0.25495557  1
  O  O356  1  0.26410644  0.11686483  0.73069588  1
  O  O357  1  0.25356515  0.61808908  0.25204600  1
  O  O358  1  0.24666309  0.60944343  0.74936713  1
  O  O359  1  0.74432929  0.11428304  0.25262645  1
  O  O360  1  0.74520326  0.11137833  0.74855664  1
  O  O361  1  0.76387711  0.63037422  0.24865733  1
  O  O362  1  0.74162251  0.62415337  0.76243360  1
  O  O363  1  0.36559294  0.12702120  0.36938485  1
  O  O364  1  0.38664616  0.12564281  0.88831368  1
  O  O365  1  0.36955536  0.61464478  0.36597318  1
  O  O366  1  0.36672450  0.61689182  0.89376344  1
  O  O367  1  0.86708711  0.11443170  0.37931611  1
  O  O368  1  0.87320157  0.11148028  0.87723074  1
  O  O369  1  0.87975810  0.61666652  0.36693446  1
  O  O370  1  0.86608007  0.61795492  0.87645812  1
  O  O371  1  0.12519926  0.38348455  0.13351281  1
  O  O372  1  0.13341927  0.38165607  0.62569087  1
  O  O373  1  0.14042744  0.87512179  0.12703329  1
  O  O374  1  0.13289723  0.88318167  0.59232386  1
  O  O375  1  0.62211132  0.36592044  0.13798740  1
  O  O376  1  0.63848223  0.37525666  0.62963756  1
  O  O377  1  0.63633764  0.88267666  0.13187022  1
  O  O378  1  0.63664627  0.87288443  0.62314455  1
  O  O379  1  0.11864495  0.25685911  0.25605517  1
  O  O380  1  0.10615062  0.25143724  0.74332123  1
  O  O381  1  0.11679918  0.75646995  0.25341338  1
  O  O382  1  0.11663516  0.74606763  0.75750885  1
  O  O383  1  0.62551979  0.25522215  0.26273424  1
  O  O384  1  0.62005002  0.26078072  0.74443196  1
  O  O385  1  0.62083810  0.76046741  0.24375712  1
  O  O386  1  0.62034550  0.75716230  0.75465746  1
  O  O387  1  0.36639457  0.23743175  0.24369690  1
  O  O388  1  0.38553422  0.24791807  0.74376640  1
  O  O389  1  0.38293990  0.74048888  0.24700571  1
  O  O390  1  0.37502475  0.75347294  0.73658458  1
  O  O391  1  0.88523767  0.25269705  0.24889682  1
  O  O392  1  0.88021273  0.25354051  0.73699677  1
  O  O393  1  0.88108333  0.74747929  0.24430116  1
  O  O394  1  0.88141221  0.75279536  0.73693751  1
  O  O395  1  0.37960508  0.49144514  0.49554861  1
  O  O396  1  0.36596218  0.48110701  1.00467367  1
  O  O397  1  0.38691321  0.98453976  0.49788850  1
  O  O398  1  0.38641347  0.99331581  1.00956307  1
  O  O399  1  0.88052328  0.49493659  0.49230422  1
  O  O400  1  0.89039351  0.51089807  0.99195926  1
  O  O401  1  0.87852365  0.99649549  0.49291233  1
  O  O402  1  0.88582682  1.00388496  0.99259641  1
  O  O403  1  0.11034109  0.01366138  -0.00040742  1
  O  O404  1  0.10578144  0.01776556  0.48418771  1
  O  O405  1  0.11974207  0.50901324  0.00613828  1
  O  O406  1  0.11747313  0.50339225  0.50621692  1
  O  O407  1  0.62116390  0.00936557  0.00750694  1
  O  O408  1  0.62234758  0.01304035  0.49456341  1
  O  O409  1  0.63402737  0.51109141  0.00176558  1
  O  O410  1  0.61287305  0.48075211  0.51496395  1
  O  O411  1  0.37474080  0.36109436  0.12138274  1
  O  O412  1  0.37139563  0.36342575  0.62176102  1
  O  O413  1  0.36502022  0.87574602  0.11792911  1
  O  O414  1  0.37512632  0.85916665  0.61045078  1
  O  O415  1  0.87762772  0.35819535  0.12929652  1
  O  O416  1  0.86535390  0.37167074  0.61749251  1
  O  O417  1  0.86296673  0.86680946  0.13077277  1
  O  O418  1  0.86458302  0.86630263  0.61844200  1
  O  O419  1  0.13109742  0.13815231  0.37925073  1
  O  O420  1  0.11267576  0.13344963  0.89345781  1
  O  O421  1  0.13030320  0.62382941  0.38145444  1
  O  O422  1  0.13064192  0.63802686  0.88329676  1
  O  O423  1  0.62935527  0.13320537  0.37948691  1
  O  O424  1  0.62811595  0.12313056  0.88697335  1
  O  O425  1  0.63542531  0.57681807  0.38899976  1
  O  O426  1  0.63447539  0.62411969  0.88927580  1
