# generated using pymatgen
data_V85Zn86O256
_symmetry_space_group_name_H-M   'P 1'
_cell_length_a   16.94167281
_cell_length_b   16.96229899
_cell_length_c   16.96152168
_cell_angle_alpha   90.07776726
_cell_angle_beta   90.03818445
_cell_angle_gamma   89.93523507
_symmetry_Int_Tables_number   1
_chemical_formula_structural   V85Zn86O256
_chemical_formula_sum   'V85 Zn86 O256'
_cell_volume   4874.21904835
_cell_formula_units_Z   1
loop_
 _symmetry_equiv_pos_site_id
 _symmetry_equiv_pos_as_xyz
  1  'x, y, z'
loop_
 _atom_site_type_symbol
 _atom_site_label
 _atom_site_symmetry_multiplicity
 _atom_site_fract_x
 _atom_site_fract_y
 _atom_site_fract_z
 _atom_site_occupancy
  V  V0  1  0.24664529  0.50158419  0.24288701  1
  V  V1  1  0.13333284  0.12276266  0.49602159  1
  V  V2  1  0.62992893  -0.00114366  0.61714642  1
  V  V3  1  0.87949282  0.87483030  -0.00616307  1
  V  V4  1  0.62892844  0.11616891  0.00665831  1
  V  V5  1  0.25137388  0.25008553  0.49706124  1
  V  V6  1  0.49945411  0.49976477  0.00235868  1
  V  V7  1  0.87407178  0.51001420  0.36856501  1
  V  V8  1  0.61686465  0.87103098  0.24127273  1
  V  V9  1  0.75523160  0.24797251  0.00222974  1
  V  V10  1  0.75294849  0.62323044  0.87370888  1
  V  V11  1  0.00605449  0.49746617  0.00330921  1
  V  V12  1  0.86826118  0.12612134  0.27435737  1
  V  V13  1  0.13563488  0.24688171  0.86910305  1
  V  V14  1  0.01643481  0.76406604  0.75341309  1
  V  V15  1  0.00672715  0.12558074  0.62937896  1
  V  V16  1  0.12733551  0.62331584  0.00471854  1
  V  V17  1  0.73298942  0.24484453  0.49460057  1
  V  V18  1  0.50278451  0.37289084  0.37398414  1
  V  V19  1  0.75266040  0.12291079  0.87341534  1
  V  V20  1  0.50131163  0.24947514  0.75005705  1
  V  V21  1  0.00435026  0.36104921  0.86775762  1
  V  V22  1  0.24502272  0.36840818  0.12231870  1
  V  V23  1  0.36946972  0.11943357  0.74915646  1
  V  V24  1  0.37112156  0.36547806  0.00156837  1
  V  V25  1  0.75448003  0.49911339  0.74883838  1
  V  V26  1  0.12211425  0.38045253  0.24650820  1
  V  V27  1  0.50005303  0.37410962  0.87662815  1
  V  V28  1  0.50095480  -0.00277708  0.49820202  1
  V  V29  1  0.30872418  0.80217326  0.66580583  1
  V  V30  1  0.62508200  0.74870567  0.87345639  1
  V  V31  1  0.24458326  0.62188544  0.87827412  1
  V  V32  1  0.37711996  0.87009594  0.00425228  1
  V  V33  1  0.75239873  0.51047525  0.25175368  1
  V  V34  1  0.09836422  0.62610188  0.49828392  1
  V  V35  1  0.75214692  0.36938845  0.12805189  1
  V  V36  1  0.62722587  0.24783791  0.87488991  1
  V  V37  1  0.24299649  0.87299332  0.14173251  1
  V  V38  1  0.75195597  0.75045612  0.00054347  1
  V  V39  1  0.62560572  0.62322488  0.00044371  1
  V  V40  1  0.49724456  0.49781569  0.50394376  1
  V  V41  1  0.37125780  0.62560142  0.74454208  1
  V  V42  1  0.50554585  0.87465485  0.87597105  1
  V  V43  1  0.36604829  0.37321226  0.49913400  1
  V  V44  1  -0.00803027  0.37823998  0.37241490  1
  V  V45  1  0.62027782  0.50162477  0.62807167  1
  V  V46  1  0.18938044  0.80695823  -0.05230553  1
  V  V47  1  0.12714608  0.24965529  0.37328895  1
  V  V48  1  0.50273611  0.24801593  0.24712934  1
  V  V49  1  0.88757158  0.62804008  0.74448285  1
  V  V50  1  0.00093779  0.62146127  0.13020147  1
  V  V51  1  0.36867716  0.00358521  0.37689451  1
  V  V52  1  0.50220357  0.75189717  0.73755704  1
  V  V53  1  0.87514383  0.87842324  0.49295463  1
  V  V54  1  -0.01178750  0.13213896  0.12472429  1
  V  V55  1  0.37247228  0.86746501  0.50042014  1
  V  V56  1  0.87298956  0.74892318  0.12743772  1
  V  V57  1  0.24617513  0.62369563  0.37495840  1
  V  V58  1  -0.00339068  0.75056075  0.24867306  1
  V  V59  1  -0.00178502  0.88354395  0.36429523  1
  V  V60  1  0.75390100  -0.00056509  0.74609331  1
  V  V61  1  0.87893494  0.24551785  0.61608070  1
  V  V62  1  0.12265646  0.75806697  0.36841997  1
  V  V63  1  0.36708600  0.12639016  0.25610965  1
  V  V64  1  0.87775564  0.37102012  0.00562394  1
  V  V65  1  0.50795375  0.12332232  0.62445455  1
  V  V66  1  0.62925226  0.62194936  0.49118153  1
  V  V67  1  -0.00163868  0.00092802  0.49862920  1
  V  V68  1  0.74810726  0.37378978  0.61976319  1
  V  V69  1  0.38314749  0.62663090  0.25222164  1
  V  V70  1  0.88009773  0.12871291  0.74935218  1
  V  V71  1  0.12065261  0.00152397  0.13712284  1
  V  V72  1  0.75328608  0.86978975  0.62095349  1
  V  V73  1  0.36844961  0.50105597  0.87620145  1
  V  V74  1  0.92507292  0.42714799  0.54664638  1
  V  V75  1  0.37352770  0.74809416  0.12838623  1
  V  V76  1  0.87802020  0.49844686  0.87708191  1
  V  V77  1  0.75102418  0.74574841  0.48724719  1
  V  V78  1  0.13884538  -0.00872700  0.63164700  1
  V  V79  1  0.36899452  0.24920448  0.62162803  1
  V  V80  1  0.37138426  -0.00251542  0.87195698  1
  V  V81  1  0.00257631  0.00002702  -0.00635447  1
  V  V82  1  0.24575459  0.74990648  0.50153130  1
  V  V83  1  0.50230120  0.11560996  0.12709079  1
  V  V84  1  0.62842024  0.37029659  0.25317746  1
  Zn  Zn85  1  0.61687696  0.74350361  0.36541414  1
  Zn  Zn86  1  -0.00640912  0.25297056  0.24441925  1
  Zn  Zn87  1  0.37101034  0.24596419  0.12296744  1
  Zn  Zn88  1  0.19464629  0.42912802  0.70344775  1
  Zn  Zn89  1  0.49632472  0.62577723  0.62348829  1
  Zn  Zn90  1  0.50547108  -0.00414531  0.00326962  1
  Zn  Zn91  1  0.88338839  -0.00519647  0.86869414  1
  Zn  Zn92  1  0.74797512  -0.00114078  0.25407337  1
  Zn  Zn93  1  0.62570881  0.49930055  0.12547959  1
  Zn  Zn94  1  0.25677530  0.13003552  0.88075892  1
  Zn  Zn95  1  0.49698767  0.86421947  0.36682660  1
  Zn  Zn96  1  0.24242727  0.00236996  0.26021024  1
  Zn  Zn97  1  0.13734235  0.87466540  0.75770707  1
  Zn  Zn98  1  0.74401384  0.88911509  0.12377246  1
  Zn  Zn99  1  0.62425602  0.37727734  0.75175113  1
  Zn  Zn100  1  0.13336139  0.13751943  0.00950001  1
  Zn  Zn101  1  0.63000687  0.87358982  0.74755120  1
  Zn  Zn102  1  0.37213309  0.49900585  0.37500720  1
  Zn  Zn103  1  0.50165850  0.62793450  0.12898325  1
  Zn  Zn104  1  0.11159770  0.50212908  0.60518810  1
  Zn  Zn105  1  0.88143004  0.74517036  0.62159768  1
  Zn  Zn106  1  0.70909045  0.11633966  0.38499104  1
  Zn  Zn107  1  0.18430996  0.18925770  0.18964583  1
  Zn  Zn108  1  0.18670679  0.18979382  0.69079266  1
  Zn  Zn109  1  0.18592923  0.69117962  0.18685806  1
  Zn  Zn110  1  0.18974017  0.64115486  0.67695098  1
  Zn  Zn111  1  0.69165217  0.18471066  0.18949122  1
  Zn  Zn112  1  0.68933657  0.18706603  0.68492340  1
  Zn  Zn113  1  0.68475504  0.69210884  0.18552221  1
  Zn  Zn114  1  0.69054778  0.68560544  0.68422604  1
  Zn  Zn115  1  0.31314457  0.31210565  0.31251160  1
  Zn  Zn116  1  0.31035016  0.31007944  0.81177338  1
  Zn  Zn117  1  0.31529332  0.80972099  0.31533134  1
  Zn  Zn118  1  0.31951108  0.80662378  0.82609026  1
  Zn  Zn119  1  0.81317915  0.30638319  0.31460340  1
  Zn  Zn120  1  0.81832806  0.31170171  0.80973792  1
  Zn  Zn121  1  0.80933580  0.81612626  0.30847407  1
  Zn  Zn122  1  0.81534915  0.81069497  0.81223338  1
  Zn  Zn123  1  0.18238138  0.43970515  0.43539991  1
  Zn  Zn124  1  0.18499234  0.43458560  0.93677035  1
  Zn  Zn125  1  0.18650280  0.93528029  0.44132043  1
  Zn  Zn126  1  0.20651169  0.98129853  0.95979832  1
  Zn  Zn127  1  0.69002048  0.43517743  0.43645666  1
  Zn  Zn128  1  0.68832867  0.43577653  0.93714011  1
  Zn  Zn129  1  0.68607747  0.93376101  0.42424491  1
  Zn  Zn130  1  0.69424253  0.93694801  0.93665756  1
  Zn  Zn131  1  0.31582531  0.05820951  0.06958231  1
  Zn  Zn132  1  0.31534870  0.06444324  0.56024076  1
  Zn  Zn133  1  0.31009699  0.55942189  0.06465366  1
  Zn  Zn134  1  0.30451676  0.55641819  0.56394729  1
  Zn  Zn135  1  0.81406755  0.05760534  0.06620596  1
  Zn  Zn136  1  0.81302656  0.06479716  0.55363875  1
  Zn  Zn137  1  0.81576495  0.56149573  0.06671293  1
  Zn  Zn138  1  0.80918572  0.56582009  0.56449073  1
  Zn  Zn139  1  0.43437327  0.43915073  0.18638951  1
  Zn  Zn140  1  0.39806881  0.42135932  0.70391260  1
  Zn  Zn141  1  0.43627950  0.93718613  0.19070391  1
  Zn  Zn142  1  0.44204590  0.93808344  0.68742925  1
  Zn  Zn143  1  0.93556133  0.43867848  0.18708434  1
  Zn  Zn144  1  0.98484274  0.46220387  0.71590015  1
  Zn  Zn145  1  0.92779226  0.94425701  0.18454954  1
  Zn  Zn146  1  0.94394988  0.93556967  0.68484781  1
  Zn  Zn147  1  0.05659193  0.06846402  0.31219862  1
  Zn  Zn148  1  0.06868110  0.06321360  0.81052039  1
  Zn  Zn149  1  0.05983676  0.56363420  0.31358406  1
  Zn  Zn150  1  0.06770109  0.56282948  0.81824323  1
  Zn  Zn151  1  0.56213443  0.04786903  0.30827853  1
  Zn  Zn152  1  0.56574406  0.05945817  0.81004076  1
  Zn  Zn153  1  0.56333253  0.55419724  0.31369405  1
  Zn  Zn154  1  0.55857555  0.56305086  0.81306946  1
  Zn  Zn155  1  0.49565841  0.16386830  0.41394004  1
  Zn  Zn156  1  0.44109892  0.18410507  0.93835722  1
  Zn  Zn157  1  0.43350856  0.68504136  0.44083433  1
  Zn  Zn158  1  0.43665766  0.68939647  0.93923249  1
  Zn  Zn159  1  0.94482924  0.19405107  0.44315971  1
  Zn  Zn160  1  0.93948836  0.18355187  0.94015366  1
  Zn  Zn161  1  0.92655336  0.69585111  0.42560314  1
  Zn  Zn162  1  0.94269960  0.69002164  0.93384887  1
  Zn  Zn163  1  0.06818513  0.30976299  0.05865049  1
  Zn  Zn164  1  0.07233418  0.30898064  0.57131093  1
  Zn  Zn165  1  0.05681231  0.81986202  0.07120000  1
  Zn  Zn166  1  0.05955384  0.81011452  0.56671365  1
  Zn  Zn167  1  0.56577381  0.30908178  0.06521231  1
  Zn  Zn168  1  0.55778875  0.31654512  0.56636893  1
  Zn  Zn169  1  0.55988253  0.80688831  0.06575249  1
  Zn  Zn170  1  0.56415465  0.81070369  0.55032352  1
  O  O171  1  0.11709237  0.11870036  0.12703739  1
  O  O172  1  0.12162688  0.11962098  0.62013215  1
  O  O173  1  0.11425900  0.63145170  0.11654397  1
  O  O174  1  0.10327322  0.62829392  0.60155327  1
  O  O175  1  0.61704951  0.13250577  0.11673138  1
  O  O176  1  0.61543944  0.11607976  0.62831733  1
  O  O177  1  0.62285801  0.62240177  0.11188880  1
  O  O178  1  0.62334667  0.61323451  0.61825878  1
  O  O179  1  0.38219331  0.37710752  0.38302328  1
  O  O180  1  0.38031744  0.38322903  0.88480148  1
  O  O181  1  0.37560189  0.87880566  0.38667864  1
  O  O182  1  0.38647930  0.87798749  0.88326629  1
  O  O183  1  0.88704584  0.38010138  0.36838085  1
  O  O184  1  0.88207657  0.37550980  0.88789298  1
  O  O185  1  0.88312727  0.87143877  0.38559155  1
  O  O186  1  0.86987270  0.87645316  0.88875835  1
  O  O187  1  0.26278127  -0.00418771  0.37855225  1
  O  O188  1  0.26983142  -0.00724343  0.86466550  1
  O  O189  1  0.24963769  0.50865745  0.36524475  1
  O  O190  1  0.25685754  0.50815719  0.87907905  1
  O  O191  1  0.74548987  0.00965419  0.37126061  1
  O  O192  1  0.75434417  0.00629982  0.86463897  1
  O  O193  1  0.75653623  0.49079171  0.35867295  1
  O  O194  1  0.75790711  0.50139357  0.86873788  1
  O  O195  1  0.25119588  0.49111834  0.13783315  1
  O  O196  1  0.22650153  0.53278635  0.63942721  1
  O  O197  1  0.24043218  0.99024305  0.13133232  1
  O  O198  1  0.23674184  1.00458587  0.62005829  1
  O  O199  1  0.75174642  0.48840153  0.13454277  1
  O  O200  1  0.74352536  0.49205329  0.62967586  1
  O  O201  1  0.75209690  1.00229431  0.13657436  1
  O  O202  1  0.74563154  0.99439639  0.62369666  1
  O  O203  1  0.00594468  0.37378114  0.25329127  1
  O  O204  1  -0.01793317  0.36287497  0.77103031  1
  O  O205  1  -0.00896198  0.87313168  0.25947130  1
  O  O206  1  0.01034697  0.87029526  0.75356959  1
  O  O207  1  0.50613063  0.37227959  0.25355721  1
  O  O208  1  0.49521699  0.36469941  0.75813289  1
  O  O209  1  0.50870817  0.87207884  0.24826923  1
  O  O210  1  0.50398946  0.86634269  0.75659848  1
  O  O211  1  0.49405888  0.13256640  0.24166528  1
  O  O212  1  0.49692429  0.13080723  0.74341027  1
  O  O213  1  0.48684436  0.61447059  0.24969885  1
  O  O214  1  0.48981946  0.63806203  0.75389857  1
  O  O215  1  0.98960721  0.12919045  0.23962283  1
  O  O216  1  0.99369850  0.11988702  0.74004619  1
  O  O217  1  1.00352566  0.63397226  0.23929156  1
  O  O218  1  0.98899465  0.62874885  0.75364380  1
  O  O219  1  0.37989737  0.26216206  -0.00024822  1
  O  O220  1  0.36717225  0.25517255  0.50544627  1
  O  O221  1  0.37400039  0.76295809  0.00494288  1
  O  O222  1  0.36290459  0.75801107  0.50524022  1
  O  O223  1  0.86305189  0.25599426  -0.00540397  1
  O  O224  1  0.86560182  0.24491367  0.51265320  1
  O  O225  1  0.87362690  0.75597889  0.00424344  1
  O  O226  1  0.86848227  0.75856289  0.50240881  1
  O  O227  1  0.13182972  0.24199196  0.49465285  1
  O  O228  1  0.12549513  0.24979780  0.98195942  1
  O  O229  1  0.12645249  0.74213020  0.49156041  1
  O  O230  1  0.12166528  0.74851686  0.99980968  1
  O  O231  1  0.63407418  0.25280601  0.50893753  1
  O  O232  1  0.63657509  0.24262644  0.99502531  1
  O  O233  1  0.63720587  0.73693653  0.50396136  1
  O  O234  1  0.62905946  0.74058395  0.99376451  1
  O  O235  1  0.49664996  0.24501520  0.13524001  1
  O  O236  1  0.49576753  0.24049689  0.63071106  1
  O  O237  1  0.47971677  0.74423100  0.11878710  1
  O  O238  1  0.50827389  0.74748516  0.63447169  1
  O  O239  1  1.00697413  0.23555611  0.12429898  1
  O  O240  1  0.99415838  0.23605466  0.61785790  1
  O  O241  1  0.99415095  0.74504982  0.13205883  1
  O  O242  1  0.99370361  0.75768760  0.64375608  1
  O  O243  1  0.01057274  0.26032404  0.37458365  1
  O  O244  1  0.00597521  0.25790674  0.88088913  1
  O  O245  1  0.00302553  0.75965745  0.36553374  1
  O  O246  1  -0.00418457  0.74730949  0.85268762  1
  O  O247  1  0.49524428  0.26568841  0.35998721  1
  O  O248  1  0.50609539  0.25204891  0.86781839  1
  O  O249  1  0.50748669  0.75662717  0.40318438  1
  O  O250  1  0.50337147  0.75950392  0.86764525  1
  O  O251  1  0.23945713  0.13001391  0.50096387  1
  O  O252  1  0.24215803  0.09453024  0.99092579  1
  O  O253  1  0.25031512  0.63400538  0.48571398  1
  O  O254  1  0.23533237  0.61868195  0.99846972  1
  O  O255  1  0.74522466  0.13966628  0.50082771  1
  O  O256  1  0.74727533  0.13158066  0.99604709  1
  O  O257  1  0.74137730  0.63257201  0.50354924  1
  O  O258  1  0.74442094  0.62687819  0.99446081  1
  O  O259  1  0.25910356  0.38456714  0.01052036  1
  O  O260  1  0.26055205  0.37361243  0.49340073  1
  O  O261  1  0.25216351  0.87365111  0.00502665  1
  O  O262  1  0.25360347  0.85858141  0.49956287  1
  O  O263  1  0.75677720  0.36882992  0.00622246  1
  O  O264  1  0.74464153  0.36637010  0.51329186  1
  O  O265  1  0.75672784  0.86699628  0.00394211  1
  O  O266  1  0.75691505  0.86820777  0.50257538  1
  O  O267  1  0.13105137  0.48864937  0.25634855  1
  O  O268  1  0.09617861  0.49428644  0.73506029  1
  O  O269  1  0.12426961  1.00573018  0.24254397  1
  O  O270  1  0.12705003  0.99491001  0.73700126  1
  O  O271  1  0.63499735  0.48911238  0.24706733  1
  O  O272  1  0.62998901  0.50041740  0.74356045  1
  O  O273  1  0.62438919  0.97846920  0.24787535  1
  O  O274  1  0.63408466  0.99631170  0.73643664  1
  O  O275  1  0.37312613  0.00753677  0.26018400  1
  O  O276  1  0.38843642  0.00902093  0.75865856  1
  O  O277  1  0.36451354  0.50783824  0.25182674  1
  O  O278  1  0.38901458  0.51505160  0.77093994  1
  O  O279  1  0.87487431  0.02353024  0.24823046  1
  O  O280  1  0.87213025  0.00929993  0.74704636  1
  O  O281  1  0.86098146  0.49784699  0.25357817  1
  O  O282  1  0.87816200  0.51067652  0.75767114  1
  O  O283  1  0.11290877  0.37159052  0.36925493  1
  O  O284  1  0.11223946  0.36736855  0.87617342  1
  O  O285  1  0.11488310  0.86462412  0.38052298  1
  O  O286  1  0.14585751  0.87010035  0.88442652  1
  O  O287  1  0.61589202  0.38026068  0.36525940  1
  O  O288  1  0.61880052  0.36716712  0.87305825  1
  O  O289  1  0.61913588  0.86595789  0.36240093  1
  O  O290  1  0.62102929  0.86843162  0.87306855  1
  O  O291  1  0.38329742  0.12692116  0.13262552  1
  O  O292  1  0.38605068  0.12848232  0.63161121  1
  O  O293  1  0.37069385  0.63154319  0.13360704  1
  O  O294  1  0.37724648  0.61621529  0.64158281  1
  O  O295  1  0.88809488  0.13036354  0.11964447  1
  O  O296  1  0.88392163  0.12894481  0.62800299  1
  O  O297  1  0.88733078  0.63892448  0.11632035  1
  O  O298  1  0.87191384  0.62402122  0.64077138  1
  O  O299  1  0.25182807  0.26384342  0.12959409  1
  O  O300  1  0.26378268  0.24272673  0.61984732  1
  O  O301  1  0.25789482  0.76049590  0.12747422  1
  O  O302  1  0.24315000  0.73487016  0.61611168  1
  O  O303  1  0.74701975  0.26092608  0.11648813  1
  O  O304  1  0.75607432  0.25659943  0.61930710  1
  O  O305  1  0.76030341  0.74582916  0.11577085  1
  O  O306  1  0.75451052  0.75892351  0.61841798  1
  O  O307  1  0.23554453  0.25799986  0.37996794  1
  O  O308  1  0.24233351  0.24945549  0.87696797  1
  O  O309  1  0.23972571  0.74512977  0.37913226  1
  O  O310  1  0.24966910  0.74359675  0.89197072  1
  O  O311  1  0.74713085  0.25468160  0.39403120  1
  O  O312  1  0.74612827  0.24462831  0.87984850  1
  O  O313  1  0.74986169  0.74990480  0.38540109  1
  O  O314  1  0.74453349  0.74328962  0.88052158  1
  O  O315  1  0.00319565  0.11816817  0.01113166  1
  O  O316  1  0.01138872  0.11781469  0.50666608  1
  O  O317  1  0.00929462  0.61821566  0.00317224  1
  O  O318  1  0.00094846  0.63104685  0.48540889  1
  O  O319  1  0.51080374  0.12421162  0.00868642  1
  O  O320  1  0.49217379  0.10639324  0.51339393  1
  O  O321  1  0.50790789  0.61706193  -0.00211050  1
  O  O322  1  0.50295322  0.60952194  0.50395014  1
  O  O323  1  0.49526087  0.38232587  0.49213376  1
  O  O324  1  0.49478810  0.38085742  0.99739374  1
  O  O325  1  0.48720891  0.88552409  0.51047832  1
  O  O326  1  0.49498779  0.87424753  0.99386801  1
  O  O327  1  0.99293995  0.37054071  0.49344376  1
  O  O328  1  0.99375539  0.38011043  0.99775397  1
  O  O329  1  0.99350119  0.88152940  0.49320539  1
  O  O330  1  0.99106188  0.88611718  1.00483245  1
  O  O331  1  0.49532052  0.48914683  0.38346249  1
  O  O332  1  0.49522440  0.49525697  0.88673974  1
  O  O333  1  0.48779497  0.98920122  0.38553655  1
  O  O334  1  0.49929645  0.98595360  0.87557944  1
  O  O335  1  0.98843131  0.49202845  0.36831873  1
  O  O336  1  0.99603250  0.48782117  0.88481492  1
  O  O337  1  1.00828694  0.99184161  0.38443554  1
  O  O338  1  1.00292469  1.00785670  0.88941925  1
  O  O339  1  0.00319855  0.01102387  0.12158761  1
  O  O340  1  0.00998473  0.00895663  0.61697192  1
  O  O341  1  -0.00698962  0.51081309  0.11696387  1
  O  O342  1  -0.02056688  0.49048963  0.60364163  1
  O  O343  1  0.49595452  0.01216800  0.12305064  1
  O  O344  1  0.51016702  0.00479326  0.62189083  1
  O  O345  1  0.49993882  0.50281841  0.11245591  1
  O  O346  1  0.50870170  0.49761040  0.61864067  1
  O  O347  1  0.24344183  0.38280968  0.24501242  1
  O  O348  1  0.29045843  0.39048013  0.74078341  1
  O  O349  1  0.25366344  0.87804507  0.24412726  1
  O  O350  1  0.25594203  0.85360051  0.74125318  1
  O  O351  1  0.74507164  0.37402255  0.24318163  1
  O  O352  1  0.75263917  0.38016846  0.73813833  1
  O  O353  1  0.73862805  0.87442050  0.24459986  1
  O  O354  1  0.75390975  0.88087480  0.73912116  1
  O  O355  1  0.26366871  0.12567695  0.24820889  1
  O  O356  1  0.26712145  0.12893864  0.75278087  1
  O  O357  1  0.25093993  0.61949775  0.25783416  1
  O  O358  1  0.26065654  0.63911037  0.76822955  1
  O  O359  1  0.75902784  0.13290926  0.26474455  1
  O  O360  1  0.75696897  0.11753766  0.75165071  1
  O  O361  1  0.74360128  0.60805149  0.24275228  1
  O  O362  1  0.75751802  0.61739167  0.75550340  1
  O  O363  1  0.38998933  0.11513999  0.36646057  1
  O  O364  1  0.37940325  0.11514242  0.86870436  1
  O  O365  1  0.36437127  0.62377983  0.36857548  1
  O  O366  1  0.36494044  0.62084211  0.87558606  1
  O  O367  1  0.88396135  0.12627119  0.37240159  1
  O  O368  1  0.87117444  0.12419350  0.86514817  1
  O  O369  1  0.87324249  0.60948494  0.37526545  1
  O  O370  1  0.87018880  0.61944703  0.86864036  1
  O  O371  1  0.13081333  0.37332349  0.13433754  1
  O  O372  1  0.12932491  0.38931675  0.61708086  1
  O  O373  1  0.13337751  0.88345901  0.12731518  1
  O  O374  1  0.12563995  0.88966625  0.62198304  1
  O  O375  1  0.63455246  0.37812950  0.13066815  1
  O  O376  1  0.63086370  0.38510947  0.62967751  1
  O  O377  1  0.62656426  0.86518039  0.13431213  1
  O  O378  1  0.63819191  0.87994976  0.62307350  1
  O  O379  1  0.12257062  0.26184599  0.25820698  1
  O  O380  1  0.12843707  0.25298958  0.76661394  1
  O  O381  1  0.11113315  0.75023326  0.25692091  1
  O  O382  1  0.11679928  0.75209144  0.74665772  1
  O  O383  1  0.61774588  0.26244066  0.24396138  1
  O  O384  1  0.61476046  0.25072361  0.75225610  1
  O  O385  1  0.62507936  0.75891735  0.25111576  1
  O  O386  1  0.61932498  0.74876146  0.75580968  1
  O  O387  1  0.38305361  0.24322242  0.24926951  1
  O  O388  1  0.38684775  0.24043045  0.74342305  1
  O  O389  1  0.36953180  0.73761275  0.24331902  1
  O  O390  1  0.37915895  0.74840061  0.73953963  1
  O  O391  1  0.87774898  0.23392728  0.25396401  1
  O  O392  1  0.86727819  0.23473372  0.73657508  1
  O  O393  1  0.88553329  0.75308490  0.24182360  1
  O  O394  1  0.87360303  0.73577904  0.74828292  1
  O  O395  1  0.37992337  0.49237377  0.50204997  1
  O  O396  1  0.38183328  0.49564048  0.99316725  1
  O  O397  1  0.37865655  0.99048208  0.49680679  1
  O  O398  1  0.37966794  0.98539955  0.99335109  1
  O  O399  1  0.86460913  0.49051847  0.49145301  1
  O  O400  1  0.88313230  0.49216599  0.99575675  1
  O  O401  1  0.88999761  0.99436872  0.50391774  1
  O  O402  1  0.88437962  0.99255553  0.99777990  1
  O  O403  1  0.11180656  -0.00055686  0.01847489  1
  O  O404  1  0.11896184  0.00609022  0.50671897  1
  O  O405  1  0.11294311  0.50644516  -0.00184668  1
  O  O406  1  0.12171505  0.52317420  0.48677067  1
  O  O407  1  0.62669505  0.01301186  -0.00536246  1
  O  O408  1  0.61576150  -0.01007831  0.51021833  1
  O  O409  1  0.61850254  0.50603340  0.00001008  1
  O  O410  1  0.61945275  0.50281262  0.50691378  1
  O  O411  1  0.36684675  0.37379524  0.11728160  1
  O  O412  1  0.39098618  0.35898318  0.60843259  1
  O  O413  1  0.36618782  0.87079791  0.12044449  1
  O  O414  1  0.37056367  0.87520533  0.61925960  1
  O  O415  1  0.86942849  0.37590284  0.11320219  1
  O  O416  1  0.87086966  0.36879384  0.61658656  1
  O  O417  1  0.87449071  0.86343456  0.11549816  1
  O  O418  1  0.86718672  0.87772411  0.61232002  1
  O  O419  1  0.11864206  0.13615254  0.38410892  1
  O  O420  1  0.13041749  0.13685217  0.87446452  1
  O  O421  1  0.12829465  0.63806217  0.37777568  1
  O  O422  1  0.13607101  0.62328264  0.88501131  1
  O  O423  1  0.59720712  0.12980820  0.37417358  1
  O  O424  1  0.63204380  0.12952349  0.88088952  1
  O  O425  1  0.62126482  0.62096728  0.38769541  1
  O  O426  1  0.63060221  0.62713174  0.88342380  1
