# generated using pymatgen
data_V85Zn86O256
_symmetry_space_group_name_H-M   'P 1'
_cell_length_a   16.91907523
_cell_length_b   16.91649600
_cell_length_c   16.91792449
_cell_angle_alpha   90.04640985
_cell_angle_beta   89.99255074
_cell_angle_gamma   89.99792950
_symmetry_Int_Tables_number   1
_chemical_formula_structural   V85Zn86O256
_chemical_formula_sum   'V85 Zn86 O256'
_cell_volume   4842.10238041
_cell_formula_units_Z   1
loop_
 _symmetry_equiv_pos_site_id
 _symmetry_equiv_pos_as_xyz
  1  'x, y, z'
loop_
 _atom_site_type_symbol
 _atom_site_label
 _atom_site_symmetry_multiplicity
 _atom_site_fract_x
 _atom_site_fract_y
 _atom_site_fract_z
 _atom_site_occupancy
  V  V0  1  0.50414709  0.00367621  0.49311699  1
  V  V1  1  0.05577960  0.31078194  0.70493340  1
  V  V2  1  0.74869719  0.50379357  0.25775551  1
  V  V3  1  0.87272700  0.25296442  0.62922614  1
  V  V4  1  0.36181535  0.37400634  0.50301367  1
  V  V5  1  0.74339272  0.13143396  0.87484419  1
  V  V6  1  0.37510804  0.86792680  0.50538318  1
  V  V7  1  -0.00239372  0.87481875  0.39067480  1
  V  V8  1  0.12390006  -0.00321120  0.61756056  1
  V  V9  1  0.50085974  0.87327415  0.87478700  1
  V  V10  1  0.37999486  0.63238026  0.25469548  1
  V  V11  1  0.12671564  -0.00311576  0.11962974  1
  V  V12  1  -0.00024440  0.24686396  0.25073111  1
  V  V13  1  0.00038172  0.37247095  0.37155622  1
  V  V14  1  0.50199988  0.00204270  0.00817216  1
  V  V15  1  0.88018923  0.12868606  0.75096856  1
  V  V16  1  0.50279098  0.50025761  0.52024505  1
  V  V17  1  0.36732315  0.00455655  0.37691888  1
  V  V18  1  0.62731106  0.00695327  0.61819761  1
  V  V19  1  0.86757107  0.62336785  0.74824498  1
  V  V20  1  0.74920372  0.87087262  0.11731573  1
  V  V21  1  0.25187095  -0.00353213  0.74766332  1
  V  V22  1  0.87348735  0.50314135  0.37405667  1
  V  V23  1  0.75144850  0.00177426  0.74913053  1
  V  V24  1  0.87894136  -0.00245477  0.38832532  1
  V  V25  1  0.25041167  0.62476854  0.37687656  1
  V  V26  1  0.37041615  0.12358623  0.24782483  1
  V  V27  1  0.36624417  0.25366353  0.62325359  1
  V  V28  1  0.87423221  0.63209986  0.25493826  1
  V  V29  1  0.36917718  0.75578285  0.12606744  1
  V  V30  1  0.00128148  0.36815113  0.87617787  1
  V  V31  1  0.24789642  0.50180755  0.24447459  1
  V  V32  1  0.74990520  0.63249575  0.87779846  1
  V  V33  1  0.24916917  0.37751715  0.11962233  1
  V  V34  1  0.11529563  0.75293715  0.87593033  1
  V  V35  1  0.74263061  0.23955401  0.49721135  1
  V  V36  1  0.62245386  0.13111221  0.00990335  1
  V  V37  1  0.62925746  0.39355214  0.74976207  1
  V  V38  1  0.00192224  0.50056791  0.49927264  1
  V  V39  1  0.87012107  0.37423955  0.49814717  1
  V  V40  1  0.87491924  0.11981000  0.25607471  1
  V  V41  1  0.75511675  0.87641765  0.61496504  1
  V  V42  1  0.88004330  0.87089848  -0.00663335  1
  V  V43  1  0.24794928  0.12580228  0.87658444  1
  V  V44  1  0.00342181  0.62417669  0.62842597  1
  V  V45  1  0.50078197  0.50198398  0.00026750  1
  V  V46  1  0.62438585  0.50322234  0.12682362  1
  V  V47  1  0.12108858  0.74905569  0.37372621  1
  V  V48  1  0.24942402  0.62774207  0.87459847  1
  V  V49  1  0.14254397  0.24495637  0.37153816  1
  V  V50  1  0.12441911  0.37639787  0.24280496  1
  V  V51  1  0.86978720  0.24475991  0.12601852  1
  V  V52  1  0.11565850  0.87579837  0.75293416  1
  V  V53  1  0.37645004  0.00010793  0.87523124  1
  V  V54  1  0.00092131  0.49958231  0.00584905  1
  V  V55  1  0.00304849  0.12372026  0.61967327  1
  V  V56  1  0.75289214  -0.00439331  0.25464483  1
  V  V57  1  0.12576917  0.62237671  0.00529773  1
  V  V58  1  0.11714732  0.87157509  0.24578634  1
  V  V59  1  0.62581059  0.87462872  0.74775454  1
  V  V60  1  0.87289080  0.37498151  0.00176808  1
  V  V61  1  0.50023698  0.63222154  0.12931485  1
  V  V62  1  0.24701590  -0.00612360  0.24894404  1
  V  V63  1  0.74546838  0.38973014  0.62585406  1
  V  V64  1  0.75224618  0.74540917  0.48844348  1
  V  V65  1  0.87697388  0.75442666  0.61909821  1
  V  V66  1  0.61181843  0.73997855  0.37312038  1
  V  V67  1  0.88195536  -0.00201162  0.87379862  1
  V  V68  1  0.24209918  0.48948433  0.74735561  1
  V  V69  1  0.14068841  0.12362306  0.49232851  1
  V  V70  1  0.62888805  0.63553183  0.00113381  1
  V  V71  1  0.49927299  0.24676258  0.24741519  1
  V  V72  1  0.37621270  0.63486266  0.73947257  1
  V  V73  1  0.86794211  0.49988406  0.87338696  1
  V  V74  1  0.62197637  0.86983206  0.25249200  1
  V  V75  1  0.00191038  0.62747806  0.13068362  1
  V  V76  1  0.87337848  0.74881991  0.12075181  1
  V  V77  1  0.74770078  0.37440970  0.12849456  1
  V  V78  1  0.50406183  0.12986999  0.61702133  1
  V  V79  1  0.50651961  0.36909051  0.87716290  1
  V  V80  1  0.38203078  0.50108196  0.37583677  1
  V  V81  1  0.62431125  0.62100143  0.51293811  1
  V  V82  1  0.37436757  0.24383963  0.11958882  1
  V  V83  1  0.51252408  0.24916960  0.74958411  1
  V  V84  1  0.37616433  0.50128222  0.87412461  1
  Zn  Zn85  1  0.38000346  0.12593378  0.74869474  1
  Zn  Zn86  1  0.12407248  0.48540746  0.62872909  1
  Zn  Zn87  1  0.62854811  0.75509262  0.87731389  1
  Zn  Zn88  1  0.62441980  -0.00090014  0.12865142  1
  Zn  Zn89  1  0.12614409  0.25313471  0.87349697  1
  Zn  Zn90  1  0.24723351  0.25037608  -0.00328211  1
  Zn  Zn91  1  0.37175407  0.87784472  0.00583389  1
  Zn  Zn92  1  0.61778147  0.37642510  0.25345051  1
  Zn  Zn93  1  0.24367100  0.75712859  0.00684250  1
  Zn  Zn94  1  0.49961670  0.74987009  0.73693739  1
  Zn  Zn95  1  0.12694893  0.62335902  0.50321141  1
  Zn  Zn96  1  0.61897521  0.24060214  0.38498175  1
  Zn  Zn97  1  0.11912245  0.12707368  -0.00251122  1
  Zn  Zn98  1  0.50043736  0.37049778  0.37706902  1
  Zn  Zn99  1  -0.00025773  0.12028248  0.12148725  1
  Zn  Zn100  1  0.49652669  0.87151859  0.37041374  1
  Zn  Zn101  1  0.25346412  0.74502732  0.50421944  1
  Zn  Zn102  1  0.25431688  0.86209041  0.62951927  1
  Zn  Zn103  1  -0.00406450  0.75300889  0.75253031  1
  Zn  Zn104  1  0.74445007  0.25304373  -0.00315925  1
  Zn  Zn105  1  0.00193970  -0.00179145  -0.00417955  1
  Zn  Zn106  1  0.37579578  0.37382760  -0.00134430  1
  Zn  Zn107  1  0.18999435  0.18312645  0.18498292  1
  Zn  Zn108  1  0.19193943  0.17830398  0.68688094  1
  Zn  Zn109  1  0.18678073  0.68852589  0.19086064  1
  Zn  Zn110  1  0.18889781  0.68717273  0.68866741  1
  Zn  Zn111  1  0.67374384  0.17093951  0.21726950  1
  Zn  Zn112  1  0.68986911  0.19139569  0.68538968  1
  Zn  Zn113  1  0.69160526  0.68871921  0.19060830  1
  Zn  Zn114  1  0.68935821  0.69096258  0.68696074  1
  Zn  Zn115  1  0.31796266  0.31676757  0.30827460  1
  Zn  Zn116  1  0.31992118  0.31014080  0.81114229  1
  Zn  Zn117  1  0.31049917  0.81422071  0.31622582  1
  Zn  Zn118  1  0.30741780  0.81408005  0.81874288  1
  Zn  Zn119  1  0.80985888  0.31185530  0.31312054  1
  Zn  Zn120  1  0.80912635  0.31410057  0.81174726  1
  Zn  Zn121  1  0.81567137  0.81494225  0.31065958  1
  Zn  Zn122  1  0.81193539  0.81222369  0.80827960  1
  Zn  Zn123  1  0.18650909  0.43766112  0.43176883  1
  Zn  Zn124  1  0.18318927  0.43917014  0.93343425  1
  Zn  Zn125  1  0.18892117  0.93658573  0.43582114  1
  Zn  Zn126  1  0.18973405  0.93462200  0.93891080  1
  Zn  Zn127  1  0.68037931  0.43130268  0.43601219  1
  Zn  Zn128  1  0.68616756  0.44198853  0.93851834  1
  Zn  Zn129  1  0.68788790  0.93555298  0.43415519  1
  Zn  Zn130  1  0.69015060  0.94328787  0.93731121  1
  Zn  Zn131  1  0.30806552  0.05844690  0.06282168  1
  Zn  Zn132  1  0.31613412  0.06103464  0.56484875  1
  Zn  Zn133  1  0.31336838  0.56554220  0.06257579  1
  Zn  Zn134  1  0.30800768  0.55370952  0.56454798  1
  Zn  Zn135  1  0.80977574  0.05958469  0.06269801  1
  Zn  Zn136  1  0.81499417  0.06552962  0.56247836  1
  Zn  Zn137  1  0.81086149  0.56283297  0.06385619  1
  Zn  Zn138  1  0.81312670  0.56777901  0.55818582  1
  Zn  Zn139  1  0.43480344  0.43756253  0.18712667  1
  Zn  Zn140  1  0.43248325  0.43388087  0.69389101  1
  Zn  Zn141  1  0.43927246  0.93807834  0.19134470  1
  Zn  Zn142  1  0.44149192  0.93788285  0.68501538  1
  Zn  Zn143  1  0.93585762  0.43918043  0.18708488  1
  Zn  Zn144  1  0.92747314  0.44492349  0.68473213  1
  Zn  Zn145  1  0.94123908  0.93397036  0.18835278  1
  Zn  Zn146  1  0.93889062  0.94079365  0.68246602  1
  Zn  Zn147  1  0.06016064  0.05828362  0.31313106  1
  Zn  Zn148  1  0.06273250  0.06600329  0.80755300  1
  Zn  Zn149  1  0.06270981  0.56163917  0.31083555  1
  Zn  Zn150  1  0.05884678  0.56092993  0.81594915  1
  Zn  Zn151  1  0.55971830  0.06592092  0.31077011  1
  Zn  Zn152  1  0.56429527  0.06288821  0.81326149  1
  Zn  Zn153  1  0.56251744  0.56560535  0.31613737  1
  Zn  Zn154  1  0.55932846  0.56678660  0.81281820  1
  Zn  Zn155  1  0.43116952  0.18710857  0.43621640  1
  Zn  Zn156  1  0.43800869  0.18684298  0.93800817  1
  Zn  Zn157  1  0.44036252  0.68755774  0.56218928  1
  Zn  Zn158  1  0.43841043  0.68973515  0.93816346  1
  Zn  Zn159  1  0.93807963  0.18581784  0.43843629  1
  Zn  Zn160  1  0.93487737  0.18524272  0.94071980  1
  Zn  Zn161  1  0.94083877  0.68910120  0.43761312  1
  Zn  Zn162  1  0.93621850  0.68726176  0.94074916  1
  Zn  Zn163  1  0.06167786  0.30733380  0.06142589  1
  Zn  Zn164  1  0.06322140  0.30613637  0.54180103  1
  Zn  Zn165  1  0.05874065  0.81166724  0.06422461  1
  Zn  Zn166  1  0.06963046  0.80829608  0.56302663  1
  Zn  Zn167  1  0.56158854  0.31167167  0.06815655  1
  Zn  Zn168  1  0.56252807  0.31908515  0.56321861  1
  Zn  Zn169  1  0.55791181  0.81374197  0.06466380  1
  Zn  Zn170  1  0.56664970  0.81785620  0.55797468  1
  O  O171  1  0.12322425  0.11315768  0.12244548  1
  O  O172  1  0.12234657  0.11947400  0.61441065  1
  O  O173  1  0.11545024  0.63145532  0.11858997  1
  O  O174  1  0.11122926  0.62117714  0.62701834  1
  O  O175  1  0.63290757  0.11910636  0.11277592  1
  O  O176  1  0.62090829  0.11406673  0.62889755  1
  O  O177  1  0.61935145  0.62428300  0.12126663  1
  O  O178  1  0.62775793  0.62955138  0.61291580  1
  O  O179  1  0.37471642  0.38401088  0.38390611  1
  O  O180  1  0.38557372  0.38444727  0.87605385  1
  O  O181  1  0.37792353  0.88555447  0.38220298  1
  O  O182  1  0.38379545  0.88630405  0.87149460  1
  O  O183  1  0.88053488  0.38179876  0.37773080  1
  O  O184  1  0.87567529  0.38294793  0.88117466  1
  O  O185  1  0.89084624  0.87882027  0.37164593  1
  O  O186  1  0.86482288  0.88323214  0.88191830  1
  O  O187  1  0.25751683  -0.00104391  0.36613673  1
  O  O188  1  0.25862574  0.00411435  0.86737536  1
  O  O189  1  0.25740836  0.50418195  0.36411305  1
  O  O190  1  0.25545599  0.50983192  0.87018779  1
  O  O191  1  0.76245579  -0.01271834  0.36256369  1
  O  O192  1  0.75839091  0.00958502  0.86732141  1
  O  O193  1  0.75364785  0.49211596  0.36382142  1
  O  O194  1  0.76185369  0.51061468  0.88101912  1
  O  O195  1  0.25555278  0.49579145  0.13658471  1
  O  O196  1  0.24341161  0.49901640  0.64152384  1
  O  O197  1  0.23767686  0.99771054  0.13260120  1
  O  O198  1  0.24110320  1.00028165  0.63267130  1
  O  O199  1  0.74662861  0.49368158  0.13532047  1
  O  O200  1  0.76043184  0.48872860  0.62303407  1
  O  O201  1  0.75233274  0.98753077  0.13659729  1
  O  O202  1  0.74598667  0.99602169  0.62669221  1
  O  O203  1  0.00747289  0.37113081  0.25171468  1
  O  O204  1  -0.00698275  0.37790517  0.75735236  1
  O  O205  1  0.01365490  0.87588740  0.26017969  1
  O  O206  1  0.01177539  0.87496004  0.74525785  1
  O  O207  1  0.49305157  0.36505542  0.25337683  1
  O  O208  1  0.51127227  0.37137021  0.75605969  1
  O  O209  1  0.51711926  0.87788902  0.25088707  1
  O  O210  1  0.50930294  0.87708537  0.75623550  1
  O  O211  1  0.48094735  0.13050663  0.24562920  1
  O  O212  1  0.50259436  0.13188857  0.74031805  1
  O  O213  1  0.49006064  0.62063298  0.24294130  1
  O  O214  1  0.48098336  0.62918068  0.75660109  1
  O  O215  1  0.99075615  0.12833984  0.24680490  1
  O  O216  1  0.99287547  0.12433796  0.73532290  1
  O  O217  1  0.99195627  0.61563526  0.23695712  1
  O  O218  1  0.98827769  0.62503966  0.74428121  1
  O  O219  1  0.36875362  0.25205722  0.00461352  1
  O  O220  1  0.37982925  0.25870690  0.51301037  1
  O  O221  1  0.37544626  0.74722254  0.01681888  1
  O  O222  1  0.37803618  0.76530272  0.49580744  1
  O  O223  1  0.86951479  0.25669415  0.00998319  1
  O  O224  1  0.86952939  0.25474716  0.51062019  1
  O  O225  1  0.87375363  0.75685563  0.00702842  1
  O  O226  1  0.86794069  0.74162923  0.51147874  1
  O  O227  1  0.13001663  0.23670428  0.48599971  1
  O  O228  1  0.12951818  0.24652838  0.99449588  1
  O  O229  1  0.12865715  0.74460662  0.48683980  1
  O  O230  1  0.12268920  0.74022375  0.99463246  1
  O  O231  1  0.63732197  0.25193297  0.50319875  1
  O  O232  1  0.62522794  0.23607354  1.00585750  1
  O  O233  1  0.63187931  0.74405789  0.48936745  1
  O  O234  1  0.61971142  0.73938854  0.99877222  1
  O  O235  1  0.47944164  0.25574301  0.12667469  1
  O  O236  1  0.49903225  0.24361702  0.62899103  1
  O  O237  1  0.49085501  0.73816776  0.12505712  1
  O  O238  1  0.50163738  0.75691621  0.62398037  1
  O  O239  1  0.98554295  0.25154578  0.13294308  1
  O  O240  1  0.99603362  0.25135010  0.63076202  1
  O  O241  1  0.98657978  0.73978097  0.12323319  1
  O  O242  1  0.99403018  0.74216430  0.62509829  1
  O  O243  1  0.00522464  0.25572537  0.36832994  1
  O  O244  1  -0.00686767  0.26484216  0.87708301  1
  O  O245  1  0.00733609  0.76110342  0.37667622  1
  O  O246  1  0.01099628  0.74305546  0.87260775  1
  O  O247  1  0.49667912  0.24823247  0.36283218  1
  O  O248  1  0.49470156  0.26185573  0.86649448  1
  O  O249  1  0.51404010  0.75024108  0.37677205  1
  O  O250  1  0.50120847  0.76466494  0.87268623  1
  O  O251  1  0.23935738  0.12301615  0.50227484  1
  O  O252  1  0.24933999  0.12184279  0.98471834  1
  O  O253  1  0.24784085  0.61665942  0.48726652  1
  O  O254  1  0.24099112  0.62660074  0.99395632  1
  O  O255  1  0.75004794  0.14064610  0.50641357  1
  O  O256  1  0.73888930  0.12431280  0.99327784  1
  O  O257  1  0.74060757  0.63357274  0.50034388  1
  O  O258  1  0.74047530  0.62153432  0.99298173  1
  O  O259  1  0.24782429  0.38090752  0.01118216  1
  O  O260  1  0.26216056  0.38599108  0.50102991  1
  O  O261  1  0.26046476  0.86753475  -0.00860690  1
  O  O262  1  0.26620935  0.87658872  0.49875359  1
  O  O263  1  0.75214687  0.37564031  0.01162278  1
  O  O264  1  0.75389958  0.37201841  0.50887134  1
  O  O265  1  0.75665003  0.88045818  0.01210205  1
  O  O266  1  0.74493708  0.86719970  0.51055135  1
  O  O267  1  0.13489329  0.48849181  0.25515192  1
  O  O268  1  0.13765652  0.50277747  0.75319797  1
  O  O269  1  0.13058373  0.99308154  0.24480751  1
  O  O270  1  0.13218965  0.99398859  0.74300464  1
  O  O271  1  0.63187038  0.50104152  0.24577831  1
  O  O272  1  0.62274542  0.49238131  0.75071607  1
  O  O273  1  0.63575822  0.98911321  0.24944862  1
  O  O274  1  0.63051971  0.99225502  0.74187474  1
  O  O275  1  0.36798326  0.00258888  0.25480977  1
  O  O276  1  0.36915545  0.00056304  0.75456798  1
  O  O277  1  0.36828830  0.50769478  0.25718338  1
  O  O278  1  0.36768481  0.50869883  0.75912205  1
  O  O279  1  0.87286785  0.00228788  0.25667874  1
  O  O280  1  0.86915110  0.00597113  0.75284808  1
  O  O281  1  0.86825687  0.50765398  0.25444190  1
  O  O282  1  0.87565907  0.51042857  0.76135034  1
  O  O283  1  0.12203571  0.36502490  0.36405547  1
  O  O284  1  0.11014432  0.37432644  0.87446968  1
  O  O285  1  0.11600365  0.86907601  0.37198045  1
  O  O286  1  0.12811595  0.86512581  0.86582019  1
  O  O287  1  0.61968423  0.36157058  0.36952417  1
  O  O288  1  0.61938580  0.38081002  0.86407042  1
  O  O289  1  0.62424157  0.86271670  0.36886208  1
  O  O290  1  0.62074600  0.87815002  0.86678890  1
  O  O291  1  0.36540979  0.13356006  0.13082764  1
  O  O292  1  0.38582244  0.13499689  0.62556496  1
  O  O293  1  0.38190485  0.63098267  0.13392856  1
  O  O294  1  0.37206742  0.62222260  0.63565595  1
  O  O295  1  0.87548149  0.13146833  0.13026128  1
  O  O296  1  0.88377635  0.13347441  0.62814912  1
  O  O297  1  0.88028869  0.63056166  0.12960674  1
  O  O298  1  0.88280668  0.63002151  0.63147785  1
  O  O299  1  0.25725598  0.26020164  0.12430079  1
  O  O300  1  0.26792999  0.24526001  0.63262746  1
  O  O301  1  0.26528931  0.74193947  0.12526557  1
  O  O302  1  0.24678953  0.74923306  0.61750832  1
  O  O303  1  0.75979310  0.25827631  0.12888290  1
  O  O304  1  0.75691767  0.25935612  0.61684265  1
  O  O305  1  0.76232637  0.75633643  0.12779617  1
  O  O306  1  0.75743924  0.75852543  0.61655627  1
  O  O307  1  0.24137559  0.25121972  0.36415140  1
  O  O308  1  0.25268772  0.23997690  0.87208473  1
  O  O309  1  0.24480011  0.73971075  0.37929117  1
  O  O310  1  0.23927168  0.73714249  0.87469099  1
  O  O311  1  0.75478031  0.25470552  0.39530331  1
  O  O312  1  0.75572522  0.23632437  0.87778757  1
  O  O313  1  0.74959596  0.75643945  0.38655754  1
  O  O314  1  0.74958040  0.73736682  0.87271545  1
  O  O315  1  0.00008769  0.11765374  0.00278557  1
  O  O316  1  0.00982522  0.13493239  0.51466640  1
  O  O317  1  0.00416881  0.61849333  0.00929499  1
  O  O318  1  0.00119532  0.61602569  0.50823990  1
  O  O319  1  0.51495975  0.11820052  -0.00688868  1
  O  O320  1  0.49807536  0.11912122  0.50848542  1
  O  O321  1  0.50660642  0.62068564  0.00685090  1
  O  O322  1  0.50480958  0.60836069  0.50400567  1
  O  O323  1  0.49348879  0.38768522  0.49871336  1
  O  O324  1  0.50261442  0.38182842  0.99225155  1
  O  O325  1  0.49093775  0.88726769  0.49553985  1
  O  O326  1  0.49668935  0.88329037  0.99215263  1
  O  O327  1  0.99088198  0.38075476  0.49218286  1
  O  O328  1  0.99436068  0.38223151  0.99600732  1
  O  O329  1  1.00426347  0.87291250  0.48976516  1
  O  O330  1  0.98428814  0.87689196  1.00086678  1
  O  O331  1  0.48787833  0.49944756  0.37652866  1
  O  O332  1  0.49311684  0.49360306  0.87845006  1
  O  O333  1  0.49474798  1.00052761  0.38112221  1
  O  O334  1  0.49495408  0.99251145  0.88063365  1
  O  O335  1  0.99669472  0.49312273  0.38113219  1
  O  O336  1  0.98822609  0.49529830  0.88613330  1
  O  O337  1  0.99389562  0.98524391  0.37467522  1
  O  O338  1  0.98533915  1.00336138  0.86994067  1
  O  O339  1  0.01324958  -0.00190415  0.12510414  1
  O  O340  1  0.01448191  0.00845997  0.62553471  1
  O  O341  1  -0.00593012  0.50664073  0.11235344  1
  O  O342  1  0.00029339  0.50586659  0.61739320  1
  O  O343  1  0.50086030  -0.00429599  0.11189052  1
  O  O344  1  0.50827048  0.00863645  0.61587385  1
  O  O345  1  0.50266532  0.51071914  0.12090018  1
  O  O346  1  0.49656389  0.49566967  0.61853617  1
  O  O347  1  0.24513573  0.38203330  0.23959583  1
  O  O348  1  0.25491999  0.39162489  0.75959272  1
  O  O349  1  0.23794764  0.88583406  0.25754447  1
  O  O350  1  0.24281668  0.88445971  0.74981229  1
  O  O351  1  0.74888329  0.38126204  0.24042760  1
  O  O352  1  0.73606597  0.37420694  0.74478163  1
  O  O353  1  0.74365515  0.87659734  0.24074707  1
  O  O354  1  0.74396076  0.88047302  0.73853064  1
  O  O355  1  0.25964574  0.11139816  0.24720058  1
  O  O356  1  0.25439660  0.11210993  0.75851601  1
  O  O357  1  0.25483903  0.61793307  0.25746260  1
  O  O358  1  0.25921075  0.61733651  0.75758348  1
  O  O359  1  0.76803205  0.10991206  0.24255423  1
  O  O360  1  0.75561064  0.12162383  0.75491616  1
  O  O361  1  0.76078191  0.61450419  0.24661241  1
  O  O362  1  0.76074145  0.62907874  0.75612987  1
  O  O363  1  0.37547129  0.11245440  0.36716474  1
  O  O364  1  0.37258196  0.11386779  0.87074928  1
  O  O365  1  0.36543575  0.61699528  0.36685272  1
  O  O366  1  0.36691276  0.62060215  0.87159856  1
  O  O367  1  0.88338515  0.11229235  0.36797636  1
  O  O368  1  0.86780674  0.11845441  0.86915206  1
  O  O369  1  0.88349873  0.61769397  0.36541473  1
  O  O370  1  0.86951988  0.62078424  0.86975599  1
  O  O371  1  0.13057977  0.36945480  0.13603948  1
  O  O372  1  0.10839748  0.36588458  0.63266206  1
  O  O373  1  0.12109897  0.87861681  0.13438019  1
  O  O374  1  0.12859813  0.88276252  0.63050254  1
  O  O375  1  0.63246651  0.38605005  0.12493421  1
  O  O376  1  0.63170484  0.37605898  0.63905573  1
  O  O377  1  0.63311699  0.87168526  0.13163442  1
  O  O378  1  0.63286732  0.88782595  0.62935143  1
  O  O379  1  0.11954098  0.25300941  0.25342187  1
  O  O380  1  0.12248124  0.24670566  0.75112679  1
  O  O381  1  0.13116275  0.75790918  0.26306016  1
  O  O382  1  0.12218799  0.75765264  0.75783082  1
  O  O383  1  0.60030573  0.25942947  0.21986826  1
  O  O384  1  0.61565829  0.25739010  0.74696948  1
  O  O385  1  0.63290743  0.75269938  0.26574614  1
  O  O386  1  0.62562186  0.76454144  0.75174504  1
  O  O387  1  0.37716764  0.24220168  0.24180754  1
  O  O388  1  0.39015793  0.25090750  0.73792767  1
  O  O389  1  0.36974950  0.74001252  0.24372358  1
  O  O390  1  0.37108621  0.73692468  0.75512127  1
  O  O391  1  0.87739148  0.24040244  0.24713450  1
  O  O392  1  0.86860902  0.24693941  0.73683357  1
  O  O393  1  0.87148705  0.73744584  0.24353334  1
  O  O394  1  0.87632200  0.74420731  0.73740575  1
  O  O395  1  0.38466187  0.49551468  0.49603839  1
  O  O396  1  0.38011439  0.50180897  0.98835931  1
  O  O397  1  0.38305879  0.99743427  0.49261349  1
  O  O398  1  0.38401049  1.00145587  0.99206866  1
  O  O399  1  0.88446603  0.49657577  0.49413567  1
  O  O400  1  0.88049310  0.49478993  0.99559494  1
  O  O401  1  0.87081973  1.00095676  0.48810031  1
  O  O402  1  0.87369472  0.99179692  0.98984749  1
  O  O403  1  0.12291872  -0.00092919  0.00664978  1
  O  O404  1  0.12905152  0.01081208  0.50499345  1
  O  O405  1  0.11548061  0.51349032  -0.00466402  1
  O  O406  1  0.11279650  0.49673583  0.50244270  1
  O  O407  1  0.61829473  0.00766100  0.00311752  1
  O  O408  1  0.61665538  -0.00330961  0.50468785  1
  O  O409  1  0.61967448  0.51162717  0.00732698  1
  O  O410  1  0.61087487  0.50525624  0.49666498  1
  O  O411  1  0.36404222  0.37030962  0.12090426  1
  O  O412  1  0.37907905  0.36195528  0.62012676  1
  O  O413  1  0.38188673  0.85830909  0.12968398  1
  O  O414  1  0.37305975  0.88575964  0.60885734  1
  O  O415  1  0.86681287  0.36994311  0.12167664  1
  O  O416  1  0.86834042  0.36893805  0.62005744  1
  O  O417  1  0.87051354  0.86665627  0.11963260  1
  O  O418  1  0.86787206  0.86738709  0.62751659  1
  O  O419  1  0.12107954  0.12842352  0.38535509  1
  O  O420  1  0.13419452  0.12724812  0.87327697  1
  O  O421  1  0.13109848  0.63097785  0.37352739  1
  O  O422  1  0.13014309  0.63003703  0.88207206  1
  O  O423  1  0.63551587  0.14540149  0.32656231  1
  O  O424  1  0.63501191  0.11863824  0.88590760  1
  O  O425  1  0.62304087  0.63543858  0.38471828  1
  O  O426  1  0.63206840  0.62678021  0.88212736  1
