# generated using pymatgen
data_V85Zn86O256
_symmetry_space_group_name_H-M   'P 1'
_cell_length_a   16.94718242
_cell_length_b   16.94120196
_cell_length_c   16.93592642
_cell_angle_alpha   90.00603237
_cell_angle_beta   89.96180572
_cell_angle_gamma   90.01222469
_symmetry_Int_Tables_number   1
_chemical_formula_structural   V85Zn86O256
_chemical_formula_sum   'V85 Zn86 O256'
_cell_volume   4862.39877733
_cell_formula_units_Z   1
loop_
 _symmetry_equiv_pos_site_id
 _symmetry_equiv_pos_as_xyz
  1  'x, y, z'
loop_
 _atom_site_type_symbol
 _atom_site_label
 _atom_site_symmetry_multiplicity
 _atom_site_fract_x
 _atom_site_fract_y
 _atom_site_fract_z
 _atom_site_occupancy
  V  V0  1  0.12390379  0.25092212  0.37134359  1
  V  V1  1  0.24544348  0.49189273  0.24637430  1
  V  V2  1  0.85739500  0.50296917  0.37917754  1
  V  V3  1  0.38295453  0.62333402  0.24671742  1
  V  V4  1  0.37596446  0.12758273  0.24791977  1
  V  V5  1  0.62185450  0.87556355  0.74310020  1
  V  V6  1  0.62665581  0.12357709  0.50316736  1
  V  V7  1  0.12499913  0.48627313  0.62740723  1
  V  V8  1  0.00057124  0.11247275  0.12439352  1
  V  V9  1  0.25159814  0.12331394  0.87439636  1
  V  V10  1  0.12006804  0.11711530  -0.00279901  1
  V  V11  1  0.37095308  0.88071584  0.00755764  1
  V  V12  1  0.87619434  0.37461979  0.00022545  1
  V  V13  1  0.37682692  0.49658398  0.37718220  1
  V  V14  1  0.37372658  0.62798057  0.75089651  1
  V  V15  1  0.12498473  0.11760101  0.49905279  1
  V  V16  1  0.50470041  0.86797356  0.37527578  1
  V  V17  1  0.12613673  0.75094416  0.87750737  1
  V  V18  1  0.62966792  0.86863078  0.25365010  1
  V  V19  1  0.25230750  0.74662767  0.50155181  1
  V  V20  1  0.24905927  0.25165421  0.50357719  1
  V  V21  1  0.74741474  -0.00548781  0.25175871  1
  V  V22  1  0.37467684  0.74812839  0.12481785  1
  V  V23  1  0.87422799  0.75158515  0.61113266  1
  V  V24  1  0.49743317  0.86839450  0.87544872  1
  V  V25  1  0.25308313  0.62232694  0.37566800  1
  V  V26  1  0.74374206  0.12860907  0.37467939  1
  V  V27  1  0.87845535  0.00765789  0.87203733  1
  V  V28  1  0.12213828  0.61695310  0.50343530  1
  V  V29  1  0.49696380  0.50662657  0.01177820  1
  V  V30  1  0.50222907  0.62517730  0.62594792  1
  V  V31  1  0.00104479  0.24953863  0.74854482  1
  V  V32  1  0.37090937  0.25341722  0.62692077  1
  V  V33  1  0.68567802  0.69093471  0.44655713  1
  V  V34  1  -0.00137005  0.61727559  0.62441574  1
  V  V35  1  0.12450457  0.74797199  0.37400628  1
  V  V36  1  0.25125603  0.12181653  0.37090130  1
  V  V37  1  0.74821650  0.25727364  0.49721670  1
  V  V38  1  0.86874406  0.62774575  0.75638985  1
  V  V39  1  0.69235382  0.93480005  0.07556312  1
  V  V40  1  0.24521354  0.48665519  0.74784257  1
  V  V41  1  0.51328894  0.37022493  0.37368495  1
  V  V42  1  0.62085981  0.62572700  0.00809650  1
  V  V43  1  0.00421138  0.25633168  0.24727762  1
  V  V44  1  0.75233774  0.00518278  0.74197841  1
  V  V45  1  0.00017826  0.50054076  0.00164918  1
  V  V46  1  0.12552473  -0.00097398  0.62198567  1
  V  V47  1  0.12591737  0.62492170  0.00484229  1
  V  V48  1  0.49975273  0.25113972  0.74963660  1
  V  V49  1  0.74866296  0.37809606  0.62705653  1
  V  V50  1  0.37355028  0.49931186  0.87544644  1
  V  V51  1  0.14378980  -0.00327355  0.13070638  1
  V  V52  1  -0.00478417  0.12251210  0.62742892  1
  V  V53  1  0.74821641  0.24774768  -0.00011281  1
  V  V54  1  0.87433020  -0.00489443  0.38285268  1
  V  V55  1  0.00546571  0.38625202  0.37892526  1
  V  V56  1  0.50885926  0.11295642  0.12044891  1
  V  V57  1  0.24935663  0.87503375  0.62061765  1
  V  V58  1  0.50974474  0.49991779  0.50379424  1
  V  V59  1  0.62418947  0.24651245  0.87562357  1
  V  V60  1  0.38002696  0.00054371  0.37106630  1
  V  V61  1  0.12663216  0.25468325  0.87287582  1
  V  V62  1  0.87662326  0.12321460  0.25209045  1
  V  V63  1  0.37204477  0.37437110  0.50144801  1
  V  V64  1  0.38379841  0.00051813  0.87736667  1
  V  V65  1  0.62624133  0.74372844  0.86830844  1
  V  V66  1  0.75254039  0.87290484  0.61480369  1
  V  V67  1  0.85921899  0.61869158  0.24832511  1
  V  V68  1  0.51622201  0.25175680  0.25034862  1
  V  V69  1  0.74737167  0.50290293  0.76313574  1
  V  V70  1  0.50351112  0.12110859  0.62537119  1
  V  V71  1  0.00167624  0.37706270  0.86832551  1
  V  V72  1  0.74923798  0.74396823  -0.00033417  1
  V  V73  1  0.87325325  0.24711920  0.62791138  1
  V  V74  1  0.37986762  0.75157886  0.62958126  1
  V  V75  1  0.50455206  0.37817599  0.87851058  1
  V  V76  1  -0.00183484  0.74719634  0.24818814  1
  V  V77  1  -0.00096671  0.88147230  0.87787717  1
  V  V78  1  -0.00607712  0.86905645  0.38450155  1
  V  V79  1  0.12393370  0.87385019  0.74826300  1
  V  V80  1  0.87739959  0.25079094  0.12423228  1
  V  V81  1  0.37745791  0.87700913  0.49931539  1
  V  V82  1  0.87957051  0.88018760  0.00757080  1
  V  V83  1  0.25136715  -0.00070946  0.74862314  1
  V  V84  1  -0.00210703  0.74978271  0.74793068  1
  Zn  Zn85  1  0.62409214  0.37931873  0.74903040  1
  Zn  Zn86  1  0.62649968  0.49958332  0.14671933  1
  Zn  Zn87  1  0.87171841  0.50641911  0.87789298  1
  Zn  Zn88  1  0.63459507  0.51268304  0.62345329  1
  Zn  Zn89  1  0.88105430  0.38446637  0.50482605  1
  Zn  Zn90  1  0.12104367  0.48918837  0.12948709  1
  Zn  Zn91  1  0.74044217  0.37782229  0.14507125  1
  Zn  Zn92  1  0.37601642  0.12487009  0.74865743  1
  Zn  Zn93  1  0.50682475  -0.00062306  0.50297919  1
  Zn  Zn94  1  0.24571350  0.75465213  0.01035574  1
  Zn  Zn95  1  0.13572911  0.87007183  0.24004612  1
  Zn  Zn96  1  0.50693066  0.74530746  0.24778161  1
  Zn  Zn97  1  0.24503237  0.36461716  0.12438876  1
  Zn  Zn98  1  -0.00409577  -0.00652317  0.50227921  1
  Zn  Zn99  1  0.24817102  0.62511267  0.87568555  1
  Zn  Zn100  1  0.62478115  0.11393746  -0.00009331  1
  Zn  Zn101  1  -0.00264078  0.62560311  0.12548421  1
  Zn  Zn102  1  0.25267497  0.25037478  0.00197957  1
  Zn  Zn103  1  0.37158059  0.37363682  0.00613675  1
  Zn  Zn104  1  0.75290689  0.12684302  0.86870566  1
  Zn  Zn105  1  0.37559637  0.25075336  0.12247718  1
  Zn  Zn106  1  0.87042876  0.75332515  0.12745151  1
  Zn  Zn107  1  0.18837438  0.18430854  0.18754384  1
  Zn  Zn108  1  0.18616423  0.18972363  0.68862164  1
  Zn  Zn109  1  0.19155183  0.68526239  0.18767629  1
  Zn  Zn110  1  0.18924323  0.68356755  0.68905556  1
  Zn  Zn111  1  0.68996361  0.18637335  0.18423950  1
  Zn  Zn112  1  0.68514509  0.18894344  0.68729346  1
  Zn  Zn113  1  0.68887970  0.69044126  0.18129081  1
  Zn  Zn114  1  0.69006492  0.69134579  0.68278633  1
  Zn  Zn115  1  0.31762760  0.30927579  0.31409566  1
  Zn  Zn116  1  0.31472382  0.31284944  0.81619495  1
  Zn  Zn117  1  0.31416323  0.81067153  0.30660413  1
  Zn  Zn118  1  0.31074098  0.81352530  0.81300524  1
  Zn  Zn119  1  0.82397303  0.31011289  0.31784251  1
  Zn  Zn120  1  0.81330926  0.31448983  0.81277308  1
  Zn  Zn121  1  0.80915040  0.80661154  0.31827508  1
  Zn  Zn122  1  0.81126022  0.81543249  0.81054871  1
  Zn  Zn123  1  0.18738920  0.43623745  0.43777272  1
  Zn  Zn124  1  0.18785172  0.43695009  0.93962878  1
  Zn  Zn125  1  0.20473492  0.92017578  0.40236133  1
  Zn  Zn126  1  0.18970480  0.93917399  0.94029538  1
  Zn  Zn127  1  0.68485099  0.42978491  0.31364164  1
  Zn  Zn128  1  0.68389777  0.43657746  1.00103837  1
  Zn  Zn129  1  0.68457193  0.93811417  0.43695302  1
  Zn  Zn130  1  0.69289010  0.93165557  0.91295478  1
  Zn  Zn131  1  0.31722320  0.06816946  0.06002609  1
  Zn  Zn132  1  0.31574164  0.06433517  0.55880306  1
  Zn  Zn133  1  0.31109358  0.56547437  0.06312376  1
  Zn  Zn134  1  0.31283350  0.55870529  0.56631623  1
  Zn  Zn135  1  0.82036689  0.06768009  0.05623902  1
  Zn  Zn136  1  0.81146738  0.06385848  0.56253548  1
  Zn  Zn137  1  0.80965378  0.56574928  0.06234315  1
  Zn  Zn138  1  0.81121754  0.56459801  0.56007320  1
  Zn  Zn139  1  0.43575563  0.43266309  0.18951204  1
  Zn  Zn140  1  0.43590425  0.43729871  0.68891695  1
  Zn  Zn141  1  0.43850713  0.93583454  0.18949317  1
  Zn  Zn142  1  0.43886393  0.93857340  0.68975675  1
  Zn  Zn143  1  0.93483888  0.43769638  0.18855938  1
  Zn  Zn144  1  0.93371126  0.43877218  0.69018548  1
  Zn  Zn145  1  0.93867062  0.93346090  0.19625874  1
  Zn  Zn146  1  0.93374782  0.93628727  0.68675414  1
  Zn  Zn147  1  0.06163870  0.05893488  0.31036247  1
  Zn  Zn148  1  0.06295118  0.06325016  0.80805657  1
  Zn  Zn149  1  0.06368505  0.56701270  0.30990034  1
  Zn  Zn150  1  0.06246093  0.56350901  0.81270339  1
  Zn  Zn151  1  0.56451277  0.05971736  0.30949302  1
  Zn  Zn152  1  0.56541305  0.06154382  0.80982771  1
  Zn  Zn153  1  0.56557079  0.56799996  0.32459828  1
  Zn  Zn154  1  0.56095881  0.56273157  0.81113061  1
  Zn  Zn155  1  0.44160284  0.19017495  0.43651339  1
  Zn  Zn156  1  0.43929899  0.18575702  0.94114465  1
  Zn  Zn157  1  0.44279629  0.68569047  0.43921781  1
  Zn  Zn158  1  0.43742891  0.68918217  0.93778146  1
  Zn  Zn159  1  0.93597348  0.18717810  0.43946258  1
  Zn  Zn160  1  0.94116395  0.18671582  0.93844469  1
  Zn  Zn161  1  0.93606245  0.67820029  0.43514555  1
  Zn  Zn162  1  0.93877423  0.69238506  0.93831504  1
  Zn  Zn163  1  0.06946543  0.31114476  0.06099403  1
  Zn  Zn164  1  0.06095801  0.30853379  0.55709233  1
  Zn  Zn165  1  0.05980500  0.81599958  0.06439542  1
  Zn  Zn166  1  0.06150487  0.80753953  0.55884288  1
  Zn  Zn167  1  0.55620691  0.31106110  0.06417295  1
  Zn  Zn168  1  0.56535950  0.31144372  0.55997005  1
  Zn  Zn169  1  0.55161102  0.80761029  0.05770773  1
  Zn  Zn170  1  0.56246634  0.81288068  0.56536988  1
  O  O171  1  0.11977856  0.11450144  0.11773674  1
  O  O172  1  0.11979002  0.11897109  0.61747756  1
  O  O173  1  0.12272395  0.62317981  0.11363267  1
  O  O174  1  0.11825820  0.61839088  0.62060040  1
  O  O175  1  0.61442740  0.12545746  0.12155625  1
  O  O176  1  0.61559968  0.13023948  0.61713375  1
  O  O177  1  0.62502092  0.62194873  0.11156917  1
  O  O178  1  0.60564993  0.62983700  0.63475711  1
  O  O179  1  0.38296924  0.37775162  0.38384354  1
  O  O180  1  0.38372505  0.38721352  0.87325393  1
  O  O181  1  0.38336573  0.88461836  0.37907915  1
  O  O182  1  0.38151986  0.88045739  0.87675231  1
  O  O183  1  0.88803280  0.39030955  0.37693860  1
  O  O184  1  0.88609820  0.37476242  0.88351414  1
  O  O185  1  0.88159394  0.88310240  0.36858345  1
  O  O186  1  0.88245183  0.88275635  0.88050354  1
  O  O187  1  0.26315710  0.01757406  0.38693750  1
  O  O188  1  0.25763890  0.00558932  0.86862015  1
  O  O189  1  0.25431173  0.50769619  0.37006238  1
  O  O190  1  0.25506799  0.50182192  0.86517198  1
  O  O191  1  0.75698648  0.00634148  0.36897197  1
  O  O192  1  0.76115177  0.00414656  0.86138539  1
  O  O193  1  0.76006990  0.49654076  0.37886566  1
  O  O194  1  0.75213002  0.49631999  0.86294038  1
  O  O195  1  0.25093433  0.50231394  0.14072958  1
  O  O196  1  0.24191540  0.50180518  0.63938912  1
  O  O197  1  0.24205223  1.00536022  0.12482910  1
  O  O198  1  0.24632288  0.99514679  0.62702407  1
  O  O199  1  0.73792135  0.48857583  0.09841067  1
  O  O200  1  0.75190318  0.49140440  0.63162772  1
  O  O201  1  0.75377800  0.99872494  0.12988714  1
  O  O202  1  0.75886765  0.99054182  0.63560128  1
  O  O203  1  -0.00476915  0.36236391  0.26041208  1
  O  O204  1  -0.00318611  0.36916166  0.76156319  1
  O  O205  1  0.00355393  0.86095326  0.26043398  1
  O  O206  1  0.00517856  0.86905921  0.75480937  1
  O  O207  1  0.49694417  0.35979928  0.25797674  1
  O  O208  1  0.50096118  0.36774597  0.75658937  1
  O  O209  1  0.51067860  0.87590944  0.25834368  1
  O  O210  1  0.51362117  0.88050319  0.75441678  1
  O  O211  1  0.49817226  0.13352964  0.24561698  1
  O  O212  1  0.49998998  0.13279691  0.74316246  1
  O  O213  1  0.48537551  0.62705824  0.26015329  1
  O  O214  1  0.48157424  0.61686958  0.74198372  1
  O  O215  1  0.99613065  0.13279331  0.24469701  1
  O  O216  1  1.00427598  0.13243040  0.73584361  1
  O  O217  1  0.99574267  0.63550704  0.24857702  1
  O  O218  1  0.99494265  0.63123265  0.74299029  1
  O  O219  1  0.37255423  0.25218432  0.00099967  1
  O  O220  1  0.37093427  0.25539291  0.50632158  1
  O  O221  1  0.37245964  0.75477974  0.01088486  1
  O  O222  1  0.36980625  0.75555763  0.50795126  1
  O  O223  1  0.87173592  0.25463485  0.00368529  1
  O  O224  1  0.87033908  0.25002997  0.51394749  1
  O  O225  1  0.86556890  0.76167906  -0.00360351  1
  O  O226  1  0.88059871  0.74201842  0.51235438  1
  O  O227  1  0.12722056  0.23827060  0.48982230  1
  O  O228  1  0.12461366  0.23537333  0.98753682  1
  O  O229  1  0.13328895  0.73632736  0.49733429  1
  O  O230  1  0.12397921  0.74539591  0.99435501  1
  O  O231  1  0.63836517  0.23972825  0.50284711  1
  O  O232  1  0.63219324  0.24912935  0.98854714  1
  O  O233  1  0.63445395  0.76296092  0.49708938  1
  O  O234  1  0.62787068  0.74393528  0.99338667  1
  O  O235  1  0.49875913  0.24196024  0.13766709  1
  O  O236  1  0.49468042  0.24373855  0.63149112  1
  O  O237  1  0.48243646  0.75262819  0.13042223  1
  O  O238  1  0.48616479  0.74401317  0.62115954  1
  O  O239  1  0.99847280  0.24184785  0.13271180  1
  O  O240  1  0.99572482  0.24424333  0.63022908  1
  O  O241  1  0.99458814  0.74920310  0.13396757  1
  O  O242  1  0.99474483  0.74171062  0.63043917  1
  O  O243  1  0.00611972  0.25433405  0.36847294  1
  O  O244  1  0.00530150  0.25420682  0.86659995  1
  O  O245  1  0.00175248  0.75183980  0.37017530  1
  O  O246  1  0.00929319  0.76033423  0.86939813  1
  O  O247  1  0.49889063  0.25558503  0.36150483  1
  O  O248  1  0.50507304  0.25501316  0.86999464  1
  O  O249  1  0.49030916  0.76500359  0.37155529  1
  O  O250  1  0.50509573  0.76163855  0.87352277  1
  O  O251  1  0.24216246  0.13220997  0.49514808  1
  O  O252  1  0.24305229  0.12404697  0.98579325  1
  O  O253  1  0.24663785  0.62632813  0.49483978  1
  O  O254  1  0.23989052  0.62952143  0.99590767  1
  O  O255  1  0.74579463  0.13232726  0.49499411  1
  O  O256  1  0.74936044  0.13675155  0.99570365  1
  O  O257  1  0.73301377  0.63088714  0.51614890  1
  O  O258  1  0.73982131  0.63496987  0.99356526  1
  O  O259  1  0.25347250  0.37010583  -0.00046295  1
  O  O260  1  0.26309866  0.36762578  0.49387611  1
  O  O261  1  0.26616238  0.87065545  -0.00897680  1
  O  O262  1  0.25729248  0.86839018  0.50128327  1
  O  O263  1  0.76538550  0.35830737  -0.01425620  1
  O  O264  1  0.75842235  0.36200015  0.50976101  1
  O  O265  1  0.75055536  0.87688452  0.00783164  1
  O  O266  1  0.74899014  0.88726192  0.51678659  1
  O  O267  1  0.14225934  0.50762318  0.24998475  1
  O  O268  1  0.13758791  0.50460578  0.74479898  1
  O  O269  1  0.12410842  1.00082184  0.23333453  1
  O  O270  1  0.13137540  0.99310948  0.74242534  1
  O  O271  1  0.61629658  0.49776865  0.25756022  1
  O  O272  1  0.63305026  0.49984928  0.74551891  1
  O  O273  1  0.64042591  0.99194399  0.25109405  1
  O  O274  1  0.64064935  0.98924134  0.75673733  1
  O  O275  1  0.38232207  0.01119001  0.26331093  1
  O  O276  1  0.36719089  0.00197641  0.75702774  1
  O  O277  1  0.36858697  0.50647199  0.25710014  1
  O  O278  1  0.36306158  0.50468253  0.75472734  1
  O  O279  1  0.86568732  0.00363900  0.25760186  1
  O  O280  1  0.86235450  -0.00549660  0.75683466  1
  O  O281  1  0.87908438  0.51157679  0.25876323  1
  O  O282  1  0.86763644  0.51060721  0.75312502  1
  O  O283  1  0.11607412  0.36459151  0.37922598  1
  O  O284  1  0.11707851  0.36172567  0.87991583  1
  O  O285  1  0.10911890  0.85863216  0.38548622  1
  O  O286  1  0.11792489  0.87179585  0.87164521  1
  O  O287  1  0.61131428  0.37333166  0.38586888  1
  O  O288  1  0.61075676  0.36715780  0.87529319  1
  O  O289  1  0.61750321  0.88010651  0.36532332  1
  O  O290  1  0.61388889  0.86682614  0.86698576  1
  O  O291  1  0.38722917  0.12391034  0.13374389  1
  O  O292  1  0.38187872  0.13746597  0.62413801  1
  O  O293  1  0.37204069  0.63550368  0.13383866  1
  O  O294  1  0.37743480  0.63337254  0.63187615  1
  O  O295  1  0.88330892  0.13083241  0.12969089  1
  O  O296  1  0.88458728  0.13199869  0.62203298  1
  O  O297  1  0.87627592  0.62518101  0.13708310  1
  O  O298  1  0.88343816  0.62990729  0.63285283  1
  O  O299  1  0.25487303  0.24404210  0.12192838  1
  O  O300  1  0.25845234  0.24534223  0.61863962  1
  O  O301  1  0.26494823  0.75197976  0.12831091  1
  O  O302  1  0.25738588  0.75498994  0.62074963  1
  O  O303  1  0.75803680  0.25169255  0.11512652  1
  O  O304  1  0.75838572  0.25453511  0.62375997  1
  O  O305  1  0.75301451  0.75197294  0.10702116  1
  O  O306  1  0.75985400  0.76492255  0.62797305  1
  O  O307  1  0.24306314  0.24155859  0.38056136  1
  O  O308  1  0.24116193  0.24075661  0.87035035  1
  O  O309  1  0.24784319  0.73471389  0.38115860  1
  O  O310  1  0.23422311  0.75028410  0.87356803  1
  O  O311  1  0.76338794  0.23950478  0.38767680  1
  O  O312  1  0.74223245  0.24594037  0.87618698  1
  O  O313  1  0.75324816  0.73639510  0.38413791  1
  O  O314  1  0.73756354  0.76615831  0.88773921  1
  O  O315  1  0.00871008  0.12660619  0.01056487  1
  O  O316  1  0.00813463  0.12420106  0.51002854  1
  O  O317  1  0.00412694  0.61705310  0.00036232  1
  O  O318  1  0.01123825  0.62664552  0.51055971  1
  O  O319  1  0.50380904  0.12364394  0.01527524  1
  O  O320  1  0.50975302  0.12883560  0.50692497  1
  O  O321  1  0.50586804  0.61877254  -0.00353313  1
  O  O322  1  0.48720885  0.61185702  0.51364700  1
  O  O323  1  0.49019221  0.37682906  0.49614304  1
  O  O324  1  0.49366989  0.38566946  0.99142426  1
  O  O325  1  0.49482157  0.87849187  0.49491648  1
  O  O326  1  0.48638113  0.87396659  0.98716950  1
  O  O327  1  0.99692640  0.36923962  0.48304803  1
  O  O328  1  0.99508365  0.37937009  0.99030469  1
  O  O329  1  0.99631748  0.87352321  0.49024363  1
  O  O330  1  0.99190473  0.87205336  0.98794360  1
  O  O331  1  0.49210783  0.49125358  0.38626442  1
  O  O332  1  0.48972974  0.49342216  0.87505818  1
  O  O333  1  0.49513143  0.99341296  0.37800279  1
  O  O334  1  0.48852219  0.99257226  0.86765599  1
  O  O335  1  1.00757467  0.48667802  0.37045937  1
  O  O336  1  1.00022905  0.49220632  0.88257043  1
  O  O337  1  0.99213379  0.98895288  0.37421275  1
  O  O338  1  0.99444422  0.98935589  0.86480710  1
  O  O339  1  -0.00039778  0.01108865  0.13218502  1
  O  O340  1  0.00428950  0.00585468  0.62382640  1
  O  O341  1  0.00053669  0.50032574  0.11308618  1
  O  O342  1  0.00761320  0.51015305  0.63388007  1
  O  O343  1  0.50196941  0.01467045  0.13332678  1
  O  O344  1  0.49253050  0.01681234  0.62374340  1
  O  O345  1  0.49937651  0.49751858  0.11341408  1
  O  O346  1  0.49655225  0.50777854  0.62041842  1
  O  O347  1  0.25512176  0.39085346  0.25883198  1
  O  O348  1  0.25164292  0.38785654  0.75274889  1
  O  O349  1  0.23439577  0.88374247  0.29385555  1
  O  O350  1  0.24307240  0.87919917  0.74103703  1
  O  O351  1  0.75626912  0.36847503  0.25414928  1
  O  O352  1  0.75009912  0.38404718  0.74418244  1
  O  O353  1  0.74465205  0.88139938  0.25347201  1
  O  O354  1  0.74318024  0.88485937  0.74346345  1
  O  O355  1  0.26096377  0.12711817  0.26086342  1
  O  O356  1  0.24918835  0.11917208  0.76001080  1
  O  O357  1  0.25951227  0.61737828  0.25972058  1
  O  O358  1  0.25973603  0.61728689  0.75330542  1
  O  O359  1  0.75544153  0.11927368  0.25662369  1
  O  O360  1  0.74525569  0.10933852  0.74669974  1
  O  O361  1  0.76062980  0.62515071  0.24521385  1
  O  O362  1  0.75890364  0.61756859  0.74214648  1
  O  O363  1  0.37109477  0.12102956  0.37116834  1
  O  O364  1  0.36864677  0.11697293  0.87348743  1
  O  O365  1  0.36789520  0.61842203  0.37235713  1
  O  O366  1  0.37372251  0.61624356  0.86828949  1
  O  O367  1  0.86939417  0.11709564  0.36981939  1
  O  O368  1  0.87897282  0.11156506  0.87692382  1
  O  O369  1  0.87883959  0.61016496  0.36324109  1
  O  O370  1  0.88190424  0.62792294  0.86048133  1
  O  O371  1  0.13018531  0.37613331  0.12613238  1
  O  O372  1  0.11711908  0.38706142  0.61841539  1
  O  O373  1  0.12425210  0.89173580  0.12291498  1
  O  O374  1  0.12866187  0.87982154  0.62605117  1
  O  O375  1  0.63182921  0.38494560  0.09895425  1
  O  O376  1  0.64000741  0.37193392  0.62717325  1
  O  O377  1  0.62372055  0.87788544  0.12641388  1
  O  O378  1  0.63694984  0.87233975  0.63418320  1
  O  O379  1  0.11820359  0.24011857  0.26386484  1
  O  O380  1  0.11189092  0.24613717  0.75788767  1
  O  O381  1  0.11805409  0.74783595  0.25607381  1
  O  O382  1  0.11935688  0.75426228  0.75589358  1
  O  O383  1  0.61501591  0.24712548  0.24907544  1
  O  O384  1  0.61978309  0.25268397  0.76118302  1
  O  O385  1  0.62525812  0.76371874  0.24194267  1
  O  O386  1  0.63367855  0.76294815  0.75684790  1
  O  O387  1  0.38340016  0.23624038  0.25211062  1
  O  O388  1  0.38023194  0.24825889  0.74343537  1
  O  O389  1  0.37598894  0.74229373  0.24213710  1
  O  O390  1  0.36803530  0.74216795  0.74139134  1
  O  O391  1  0.88650137  0.24160836  0.24498816  1
  O  O392  1  0.88665004  0.25330493  0.73934165  1
  O  O393  1  0.87948056  0.73679950  0.25051286  1
  O  O394  1  0.87916023  0.74507747  0.74365389  1
  O  O395  1  0.37694185  0.48932139  0.49800513  1
  O  O396  1  0.38033885  0.50424906  0.99059324  1
  O  O397  1  0.38020175  0.99561045  0.49025036  1
  O  O398  1  0.37143602  0.99333132  0.98973474  1
  O  O399  1  0.87560990  0.50397626  0.48419069  1
  O  O400  1  0.88330898  0.49297170  0.99625274  1
  O  O401  1  0.87675845  1.00565466  0.48633149  1
  O  O402  1  0.86936566  0.99037695  0.98700415  1
  O  O403  1  0.12835472  0.00995327  0.00932881  1
  O  O404  1  0.12299613  0.01064800  0.50131678  1
  O  O405  1  0.11678646  0.50931573  -0.00116235  1
  O  O406  1  0.13456703  0.51004072  0.51077888  1
  O  O407  1  0.64285111  -0.00890017  0.00638388  1
  O  O408  1  0.62561585  0.01735910  0.49755516  1
  O  O409  1  0.60758566  0.51676989  -0.01945283  1
  O  O410  1  0.60826835  0.49453800  0.50892940  1
  O  O411  1  0.36641792  0.37046565  0.12588946  1
  O  O412  1  0.38033283  0.36156964  0.61787359  1
  O  O413  1  0.37799615  0.86865006  0.11762086  1
  O  O414  1  0.37148213  0.86910009  0.62129472  1
  O  O415  1  0.87808986  0.36876215  0.11241724  1
  O  O416  1  0.86742666  0.36870631  0.62431954  1
  O  O417  1  0.88283697  0.87674141  0.11156638  1
  O  O418  1  0.86402877  0.86589019  0.62720196  1
  O  O419  1  0.13160434  0.12665299  0.38036065  1
  O  O420  1  0.13001388  0.12742174  0.87968959  1
  O  O421  1  0.13187816  0.62733723  0.38452725  1
  O  O422  1  0.12169049  0.63505693  0.88526340  1
  O  O423  1  0.63933654  0.12268276  0.37833398  1
  O  O424  1  0.62552488  0.13168211  0.88016144  1
  O  O425  1  0.61427806  0.64003149  0.39344730  1
  O  O426  1  0.61704664  0.64144085  0.87474113  1
