# generated using pymatgen
data_V85Zn86O256
_symmetry_space_group_name_H-M   'P 1'
_cell_length_a   16.92667186
_cell_length_b   16.94909411
_cell_length_c   16.93390066
_cell_angle_alpha   90.01369863
_cell_angle_beta   90.04098745
_cell_angle_gamma   89.97382876
_symmetry_Int_Tables_number   1
_chemical_formula_structural   V85Zn86O256
_chemical_formula_sum   'V85 Zn86 O256'
_cell_volume   4858.19458015
_cell_formula_units_Z   1
loop_
 _symmetry_equiv_pos_site_id
 _symmetry_equiv_pos_as_xyz
  1  'x, y, z'
loop_
 _atom_site_type_symbol
 _atom_site_label
 _atom_site_symmetry_multiplicity
 _atom_site_fract_x
 _atom_site_fract_y
 _atom_site_fract_z
 _atom_site_occupancy
  V  V0  1  0.12587256  0.87815570  0.24675897  1
  V  V1  1  0.24693253  0.14054006  0.87891584  1
  V  V2  1  0.12363638  0.49939880  0.63043254  1
  V  V3  1  0.12758992  0.75604309  0.38272878  1
  V  V4  1  0.12062346  0.12627925  0.50707508  1
  V  V5  1  0.49322830  0.13214372  0.62451736  1
  V  V6  1  0.62323681  -0.00086952  0.63659067  1
  V  V7  1  0.37468018  0.87341570  -0.00379587  1
  V  V8  1  0.75588613  0.51844544  0.75296300  1
  V  V9  1  0.75909913  0.12185183  0.37795764  1
  V  V10  1  0.36833960  0.00084469  0.87313616  1
  V  V11  1  0.05789736  0.41497649  0.32197371  1
  V  V12  1  0.37504750  0.62179074  0.24279319  1
  V  V13  1  0.49437383  0.88010336  0.37265213  1
  V  V14  1  0.00096144  0.37348499  0.87493052  1
  V  V15  1  0.62158407  0.75004743  0.37368715  1
  V  V16  1  0.62855896  0.37696252  0.24719506  1
  V  V17  1  0.74739481  0.62153631  0.37150899  1
  V  V18  1  0.86959129  0.49150964  0.37185685  1
  V  V19  1  0.12579681  0.87307699  0.75627465  1
  V  V20  1  0.51092016  0.75637789  0.75162794  1
  V  V21  1  0.36674800  0.74938257  0.62106902  1
  V  V22  1  0.24132755  0.38031648  0.13273882  1
  V  V23  1  0.49921935  0.24887989  0.24878292  1
  V  V24  1  0.12617052  0.37334233  0.75725436  1
  V  V25  1  -0.00807314  0.00583526  0.50165820  1
  V  V26  1  -0.00970756  0.12791498  0.12056709  1
  V  V27  1  0.86974387  0.87877795  0.49584904  1
  V  V28  1  0.12911768  0.61722201  0.00778119  1
  V  V29  1  0.74929456  0.25604425  0.50803132  1
  V  V30  1  0.49846898  0.00093407  -0.00145923  1
  V  V31  1  0.24671224  0.87535486  0.12218753  1
  V  V32  1  0.37420456  0.49771215  0.37278530  1
  V  V33  1  0.37177919  0.62916331  0.76183100  1
  V  V34  1  0.62757943  0.12784023  -0.00336197  1
  V  V35  1  0.63656271  0.37350972  0.74952382  1
  V  V36  1  0.12062703  -0.00115827  0.62697602  1
  V  V37  1  0.36767052  0.87386078  0.49783691  1
  V  V38  1  0.50199091  0.50964802  0.00623051  1
  V  V39  1  0.00473106  0.24295003  0.74949249  1
  V  V40  1  0.87593969  0.36649039  0.00260282  1
  V  V41  1  0.37052650  0.50244150  0.87742961  1
  V  V42  1  0.74388291  0.88028822  0.63238800  1
  V  V43  1  0.36613241  0.24777812  0.12416740  1
  V  V44  1  0.25334397  0.11767707  0.37606909  1
  V  V45  1  0.37567197  0.74818718  0.12167052  1
  V  V46  1  0.63010000  0.49685978  0.62452931  1
  V  V47  1  0.87209281  0.62325640  0.25218962  1
  V  V48  1  0.00696689  0.49600567  0.01086924  1
  V  V49  1  0.87919019  0.24850959  0.62770228  1
  V  V50  1  0.62745697  0.50846795  0.12537894  1
  V  V51  1  -0.00695647  0.24770042  0.25134082  1
  V  V52  1  0.49936419  0.50054555  0.50102495  1
  V  V53  1  0.50230962  0.37370531  0.87592633  1
  V  V54  1  0.87980319  0.37449189  0.50328535  1
  V  V55  1  0.62364828  0.12409365  0.50030934  1
  V  V56  1  0.49855342  0.74747533  0.24390950  1
  V  V57  1  0.12997752  0.62878007  0.50487823  1
  V  V58  1  0.49894235  0.62695225  0.62595714  1
  V  V59  1  -0.00272784  0.75425344  0.24525355  1
  V  V60  1  0.75824809  -0.00029331  0.25449952  1
  V  V61  1  0.62641228  0.24999205  0.37434858  1
  V  V62  1  0.12475068  0.74268670  0.87443163  1
  V  V63  1  0.87680261  -0.00819867  0.86764443  1
  V  V64  1  0.37528046  0.11686769  0.25276965  1
  V  V65  1  0.75859044  0.87291823  0.12062454  1
  V  V66  1  0.62713011  0.00151756  0.12621574  1
  V  V67  1  0.12709209  0.13781280  -0.00183042  1
  V  V68  1  0.74747314  0.75272804  0.49712828  1
  V  V69  1  0.37083601  0.37026253  0.00263339  1
  V  V70  1  0.25273550  0.63193602  0.37692282  1
  V  V71  1  0.74934238  0.36688540  0.12361041  1
  V  V72  1  0.25109669  0.74485243  -0.00688219  1
  V  V73  1  0.25178009  0.24973035  0.50175240  1
  V  V74  1  0.49364042  0.00095559  0.49748524  1
  V  V75  1  -0.00501615  0.88237577  0.37531950  1
  V  V76  1  0.37134675  0.13368858  0.74739687  1
  V  V77  1  0.51291435  0.87717197  0.86910769  1
  V  V78  1  0.25461838  0.37277714  0.62870105  1
  V  V79  1  0.37756943  0.37014056  0.50498581  1
  V  V80  1  -0.00815151  0.62743104  0.62520248  1
  V  V81  1  0.12335094  0.24798318  0.37128684  1
  V  V82  1  -0.00000275  -0.01044052  -0.00543513  1
  V  V83  1  -0.00795353  0.75109365  0.75543296  1
  V  V84  1  0.75439223  0.12471214  0.86301965  1
  Zn  Zn85  1  0.24748317  0.87320267  0.62233589  1
  Zn  Zn86  1  0.50087465  0.37595788  0.37435460  1
  Zn  Zn87  1  0.86672062  0.73729152  0.11705065  1
  Zn  Zn88  1  0.69616979  0.68139286  0.94310027  1
  Zn  Zn89  1  0.00557678  0.61216578  0.13446404  1
  Zn  Zn90  1  0.24751142  0.50492564  0.75624577  1
  Zn  Zn91  1  0.24779590  0.00126177  0.74877793  1
  Zn  Zn92  1  0.49794216  0.25638734  0.74519458  1
  Zn  Zn93  1  0.62837122  0.25045399  0.87367236  1
  Zn  Zn94  1  0.62462763  0.87701457  0.25008967  1
  Zn  Zn95  1  0.25299878  -0.00229672  0.25182680  1
  Zn  Zn96  1  0.86423043  0.50531162  0.88452207  1
  Zn  Zn97  1  0.49796378  0.12428731  0.12262733  1
  Zn  Zn98  1  0.75862844  0.24416140  0.00055210  1
  Zn  Zn99  1  0.12417147  0.00215575  0.12179472  1
  Zn  Zn100  1  0.00088076  0.49708120  0.49913396  1
  Zn  Zn101  1  0.84010704  0.83024382  -0.03523990  1
  Zn  Zn102  1  0.23291708  0.49852813  0.25054014  1
  Zn  Zn103  1  0.87171039  0.74857468  0.62325172  1
  Zn  Zn104  1  0.87867930  0.12040326  0.74335254  1
  Zn  Zn105  1  0.87427986  0.12495907  0.24809774  1
  Zn  Zn106  1  0.62407155  0.62440985  0.49870518  1
  Zn  Zn107  1  0.18418283  0.18738605  0.18712394  1
  Zn  Zn108  1  0.18840157  0.18962315  0.68746210  1
  Zn  Zn109  1  0.18737837  0.69028771  0.18814764  1
  Zn  Zn110  1  0.18844407  0.68643191  0.68980608  1
  Zn  Zn111  1  0.68854714  0.18608099  0.18691328  1
  Zn  Zn112  1  0.68386560  0.18846240  0.68680878  1
  Zn  Zn113  1  0.68682330  0.69128092  0.18591473  1
  Zn  Zn114  1  0.68612143  0.68849697  0.68426020  1
  Zn  Zn115  1  0.31080104  0.30977705  0.31227653  1
  Zn  Zn116  1  0.31408173  0.31451381  0.81329004  1
  Zn  Zn117  1  0.31328032  0.81229023  0.31205734  1
  Zn  Zn118  1  0.31227540  0.81274961  0.81175069  1
  Zn  Zn119  1  0.80975251  0.31055316  0.31318945  1
  Zn  Zn120  1  0.81604725  0.31212189  0.81590497  1
  Zn  Zn121  1  0.81145964  0.81351985  0.31052103  1
  Zn  Zn122  1  0.80277388  0.80502388  0.80320483  1
  Zn  Zn123  1  0.19479960  0.44431181  0.44567891  1
  Zn  Zn124  1  0.18960274  0.43367927  0.94092010  1
  Zn  Zn125  1  0.18474846  0.94113311  0.43940864  1
  Zn  Zn126  1  0.18247230  0.93797446  0.93690058  1
  Zn  Zn127  1  0.68878970  0.43590736  0.43766396  1
  Zn  Zn128  1  0.68782654  0.44347659  0.93796181  1
  Zn  Zn129  1  0.68029000  0.93971491  0.43807688  1
  Zn  Zn130  1  0.69068518  0.94514225  0.93554027  1
  Zn  Zn131  1  0.30904490  0.06240046  0.06219841  1
  Zn  Zn132  1  0.31019762  0.05986185  0.56391615  1
  Zn  Zn133  1  0.31036382  0.55877219  0.06242469  1
  Zn  Zn134  1  0.31179067  0.56067653  0.56451114  1
  Zn  Zn135  1  0.81417729  0.05775344  0.05618865  1
  Zn  Zn136  1  0.81106416  0.06444893  0.56571154  1
  Zn  Zn137  1  0.81299863  0.55165705  0.06860202  1
  Zn  Zn138  1  0.80976801  0.56051374  0.55845724  1
  Zn  Zn139  1  0.43884191  0.43558657  0.18673272  1
  Zn  Zn140  1  0.43968710  0.44037726  0.69032303  1
  Zn  Zn141  1  0.43794657  0.93625140  0.18420746  1
  Zn  Zn142  1  0.43528479  0.94078006  0.68672304  1
  Zn  Zn143  1  0.92884335  0.43662144  0.18534320  1
  Zn  Zn144  1  0.93601667  0.43367334  0.68489737  1
  Zn  Zn145  1  0.93829717  0.94222817  0.18360322  1
  Zn  Zn146  1  0.93810014  0.93282409  0.68551569  1
  Zn  Zn147  1  0.06237253  0.06356487  0.31344666  1
  Zn  Zn148  1  0.06388832  0.06246671  0.81694387  1
  Zn  Zn149  1  0.05816120  0.57734829  0.32079344  1
  Zn  Zn150  1  0.02290074  0.58569061  0.83836110  1
  Zn  Zn151  1  0.56510641  0.06281389  0.31276335  1
  Zn  Zn152  1  0.55808525  0.06542037  0.81318035  1
  Zn  Zn153  1  0.56025115  0.56251485  0.30815992  1
  Zn  Zn154  1  0.56597286  0.56032133  0.81254229  1
  Zn  Zn155  1  0.43696457  0.18881260  0.43489003  1
  Zn  Zn156  1  0.43692604  0.18873491  0.93695838  1
  Zn  Zn157  1  0.43699105  0.68960844  0.43663882  1
  Zn  Zn158  1  0.53378845  0.69023666  0.93800931  1
  Zn  Zn159  1  0.93857088  0.19088966  0.43719174  1
  Zn  Zn160  1  0.94099278  0.18637252  0.93186796  1
  Zn  Zn161  1  0.93817261  0.69018546  0.43817408  1
  Zn  Zn162  1  0.86696166  0.67229554  0.93323960  1
  Zn  Zn163  1  0.06127652  0.30959119  0.06725129  1
  Zn  Zn164  1  0.06220215  0.31253914  0.56437649  1
  Zn  Zn165  1  0.02138857  0.78028143  0.02859930  1
  Zn  Zn166  1  0.06030479  0.81540390  0.56450103  1
  Zn  Zn167  1  0.55876389  0.31200350  0.06271053  1
  Zn  Zn168  1  0.56386256  0.31439193  0.56384604  1
  Zn  Zn169  1  0.56851447  0.81682183  0.06133159  1
  Zn  Zn170  1  0.55966752  0.81290803  0.56209123  1
  O  O171  1  0.11992123  0.12277608  0.11355999  1
  O  O172  1  0.12875392  0.11968344  0.61307573  1
  O  O173  1  0.12339420  0.62980052  0.11385136  1
  O  O174  1  0.12279540  0.61931666  0.61937081  1
  O  O175  1  0.62524539  0.11502542  0.11769587  1
  O  O176  1  0.61719178  0.11811572  0.61850420  1
  O  O177  1  0.63101554  0.60714989  0.13307365  1
  O  O178  1  0.61387024  0.61919223  0.62183397  1
  O  O179  1  0.37473343  0.38327524  0.38152700  1
  O  O180  1  0.38117494  0.38162850  0.88234924  1
  O  O181  1  0.38572106  0.86989967  0.38131016  1
  O  O182  1  0.37613903  0.88480570  0.87942413  1
  O  O183  1  0.86790696  0.38574641  0.37981530  1
  O  O184  1  0.88384936  0.38188314  0.88260068  1
  O  O185  1  0.88171890  0.87331794  0.38457982  1
  O  O186  1  0.87146361  0.88948632  0.86824326  1
  O  O187  1  0.24618387  0.01380720  0.37416437  1
  O  O188  1  0.25920205  0.00654753  0.87527288  1
  O  O189  1  0.26037276  0.50991702  0.37361270  1
  O  O190  1  0.26643418  0.49551501  0.87670444  1
  O  O191  1  0.73972377  0.00955073  0.36688910  1
  O  O192  1  0.76810535  0.00863774  0.87822315  1
  O  O193  1  0.75641130  0.51042555  0.37849735  1
  O  O194  1  0.74922218  0.49949449  0.85773056  1
  O  O195  1  0.25255148  0.48580365  0.13181401  1
  O  O196  1  0.24312494  0.48919476  0.62625996  1
  O  O197  1  0.24709307  0.98694331  0.12599433  1
  O  O198  1  0.23429293  0.99843805  0.62599153  1
  O  O199  1  0.73353843  0.48531077  0.12247346  1
  O  O200  1  0.73586133  0.50754380  0.63055798  1
  O  O201  1  0.74615429  0.99512909  0.13233272  1
  O  O202  1  0.73928996  0.98908825  0.61745246  1
  O  O203  1  -0.00192137  0.36610484  0.24962159  1
  O  O204  1  0.00786107  0.37243320  0.75679770  1
  O  O205  1  0.00440486  0.87403683  0.25648477  1
  O  O206  1  0.01321135  0.85982795  0.73877114  1
  O  O207  1  0.50801512  0.36558318  0.25134996  1
  O  O208  1  0.50731539  0.37741315  0.75975428  1
  O  O209  1  0.49876819  0.86982005  0.25763151  1
  O  O210  1  0.49235457  0.86852815  0.75653034  1
  O  O211  1  0.49342046  0.13127912  0.24902215  1
  O  O212  1  0.49034886  0.12856229  0.74174618  1
  O  O213  1  0.48776984  0.63581879  0.25465228  1
  O  O214  1  0.49046893  0.63127371  0.74050267  1
  O  O215  1  0.99830652  0.12877187  0.24185079  1
  O  O216  1  1.00404685  0.14007323  0.75512967  1
  O  O217  1  0.99156620  0.63658816  0.25250538  1
  O  O218  1  1.01375835  0.64384049  0.73550832  1
  O  O219  1  0.38115549  0.25700077  0.01226871  1
  O  O220  1  0.37133999  0.26398945  0.49493517  1
  O  O221  1  0.36316031  0.75638635  0.00657372  1
  O  O222  1  0.38141691  0.76041394  0.50894146  1
  O  O223  1  0.87969437  0.26202105  -0.00336143  1
  O  O224  1  0.86916906  0.25590768  0.50450053  1
  O  O225  1  0.90971626  0.75199873  0.01057882  1
  O  O226  1  0.86729926  0.76024190  0.49987296  1
  O  O227  1  0.12790275  0.24236843  0.49413716  1
  O  O228  1  0.12216348  0.23657925  0.99995080  1
  O  O229  1  0.12199477  0.74685110  0.49018566  1
  O  O230  1  0.12563349  0.74228697  0.99211704  1
  O  O231  1  0.63187428  0.24740529  0.49583607  1
  O  O232  1  0.62136885  0.23567151  0.99904081  1
  O  O233  1  0.62754735  0.74779555  0.49150600  1
  O  O234  1  0.61438847  0.73752000  1.00325834  1
  O  O235  1  0.49170294  0.24725730  0.13623885  1
  O  O236  1  0.50239782  0.23567791  0.62196067  1
  O  O237  1  0.49170934  0.76072549  0.13787878  1
  O  O238  1  0.49069303  0.74418878  0.62980714  1
  O  O239  1  1.00621618  0.23945802  0.13819636  1
  O  O240  1  0.99160215  0.25516450  0.63534014  1
  O  O241  1  1.00335914  0.74996788  0.14185694  1
  O  O242  1  0.99865927  0.74310644  0.62879502  1
  O  O243  1  0.01036988  0.24883372  0.36805706  1
  O  O244  1  -0.00211772  0.26372532  0.86517044  1
  O  O245  1  0.00654866  0.76157026  0.36767666  1
  O  O246  1  0.00882293  0.75169904  0.85725430  1
  O  O247  1  0.50607202  0.25154055  0.36405946  1
  O  O248  1  0.50092267  0.26432169  0.87496380  1
  O  O249  1  0.50269259  0.75631758  0.36533480  1
  O  O250  1  0.49114666  0.76673142  0.86254924  1
  O  O251  1  0.24499246  0.13032098  0.49488631  1
  O  O252  1  0.23616568  0.12197662  0.99472951  1
  O  O253  1  0.23921787  0.62145103  0.49327772  1
  O  O254  1  0.24367926  0.63368231  1.00479961  1
  O  O255  1  0.74294177  0.13051870  0.49437103  1
  O  O256  1  0.74324195  0.12455080  0.99192656  1
  O  O257  1  0.74873105  0.63354419  0.48806632  1
  O  O258  1  0.77941337  0.61895114  0.98857320  1
  O  O259  1  0.26387345  0.37827726  0.01226721  1
  O  O260  1  0.25873706  0.37127206  0.50822181  1
  O  O261  1  0.25108981  0.86862479  0.00611223  1
  O  O262  1  0.26370376  0.88107765  0.49774539  1
  O  O263  1  0.75821602  0.37381556  0.00447977  1
  O  O264  1  0.76070333  0.36485577  0.49450871  1
  O  O265  1  0.75223376  0.88689320  0.01621433  1
  O  O266  1  0.75472477  0.87241851  0.49953296  1
  O  O267  1  0.11582393  0.48935599  0.27193168  1
  O  O268  1  0.12850265  0.49233562  0.73842826  1
  O  O269  1  0.12620261  0.98882078  0.24958950  1
  O  O270  1  0.12154389  0.99209644  0.74436088  1
  O  O271  1  0.61470734  0.48911834  0.23645697  1
  O  O272  1  0.63445316  0.49514669  0.74285383  1
  O  O273  1  0.63344610  1.00120640  0.24070662  1
  O  O274  1  0.61699544  1.00389391  0.73586884  1
  O  O275  1  0.37484345  0.01310711  0.24473487  1
  O  O276  1  0.37132507  0.01132368  0.75724765  1
  O  O277  1  0.37833399  0.50673106  0.25806135  1
  O  O278  1  0.37653413  0.51129766  0.75901637  1
  O  O279  1  0.86259727  0.00320501  0.24903560  1
  O  O280  1  0.88903104  0.00341891  0.76240640  1
  O  O281  1  0.87899360  0.50864612  0.26097365  1
  O  O282  1  0.85355243  0.49220433  0.73973077  1
  O  O283  1  0.12735638  0.36630231  0.38605712  1
  O  O284  1  0.12510544  0.37584400  0.86259532  1
  O  O285  1  0.11948121  0.87082195  0.37159659  1
  O  O286  1  0.12854507  0.86300161  0.86560793  1
  O  O287  1  0.62418718  0.36959293  0.36572845  1
  O  O288  1  0.61821856  0.37596727  0.86919060  1
  O  O289  1  0.61092245  0.86893782  0.37376915  1
  O  O290  1  0.61236989  0.88781603  0.87578219  1
  O  O291  1  0.37399597  0.13176885  0.13152781  1
  O  O292  1  0.38071161  0.11954580  0.63410658  1
  O  O293  1  0.36726620  0.62831437  0.13742903  1
  O  O294  1  0.38164618  0.62988669  0.62967060  1
  O  O295  1  0.88660939  0.12271163  0.12264417  1
  O  O296  1  0.87075917  0.14055029  0.62624527  1
  O  O297  1  0.87826293  0.61998096  0.14184902  1
  O  O298  1  0.88874352  0.62594847  0.61411810  1
  O  O299  1  0.26151768  0.25790486  0.13341112  1
  O  O300  1  0.24614228  0.26444903  0.61765373  1
  O  O301  1  0.25326534  0.76008992  0.11851032  1
  O  O302  1  0.26293453  0.75010159  0.62602294  1
  O  O303  1  0.74264552  0.26100650  0.11883005  1
  O  O304  1  0.75309684  0.24665544  0.61236578  1
  O  O305  1  0.75119665  0.76733130  0.12928779  1
  O  O306  1  0.74790995  0.76134439  0.61507967  1
  O  O307  1  0.24275769  0.24187416  0.38157094  1
  O  O308  1  0.25576436  0.23986544  0.87763758  1
  O  O309  1  0.24301419  0.74048854  0.37190312  1
  O  O310  1  0.24346492  0.75221893  0.88685249  1
  O  O311  1  0.74424121  0.24166342  0.38381733  1
  O  O312  1  0.74927096  0.24043949  0.87994196  1
  O  O313  1  0.74167328  0.74630833  0.37888687  1
  O  O314  1  0.78115651  0.75255168  0.89710577  1
  O  O315  1  0.00933555  0.12216219  0.00394395  1
  O  O316  1  0.00780428  0.11652484  0.49366452  1
  O  O317  1  0.00905995  0.60327139  0.00923272  1
  O  O318  1  0.01314816  0.62485504  0.50465240  1
  O  O319  1  0.50659148  0.11757662  -0.00071145  1
  O  O320  1  0.50032984  0.11917024  0.50443957  1
  O  O321  1  0.48490970  0.60664065  0.00360835  1
  O  O322  1  0.49792955  0.61946445  0.50939829  1
  O  O323  1  0.49327673  0.38105214  0.49822279  1
  O  O324  1  0.49010990  0.38098119  0.99554265  1
  O  O325  1  0.49150374  0.88252121  0.49350048  1
  O  O326  1  0.49342798  0.88306960  0.99129313  1
  O  O327  1  0.98612955  0.37520666  0.50224962  1
  O  O328  1  0.99855798  0.37588703  0.99695430  1
  O  O329  1  0.99069322  0.88188693  0.49385748  1
  O  O330  1  1.00801959  0.89150404  1.00102674  1
  O  O331  1  0.48857123  0.50103336  0.38083708  1
  O  O332  1  0.49289897  0.49055622  0.88589796  1
  O  O333  1  0.50365390  0.99184328  0.38288449  1
  O  O334  1  0.48661637  0.99708720  0.87782738  1
  O  O335  1  0.99533267  0.49109322  0.37599266  1
  O  O336  1  1.01137973  0.48148026  0.89236091  1
  O  O337  1  1.00543781  0.98876004  0.38391009  1
  O  O338  1  0.99111932  1.00436256  0.88531048  1
  O  O339  1  0.00157184  0.00827356  0.11288993  1
  O  O340  1  0.01009742  -0.00427326  0.61527500  1
  O  O341  1  0.00493723  0.49047335  0.11600143  1
  O  O342  1  0.00738176  0.50797746  0.62508613  1
  O  O343  1  0.50930890  0.00081581  0.11814286  1
  O  O344  1  0.50425590  0.00867782  0.61762633  1
  O  O345  1  0.50931383  0.49363541  0.11373003  1
  O  O346  1  0.50721158  0.50937842  0.62230662  1
  O  O347  1  0.25499387  0.37830499  0.23864219  1
  O  O348  1  0.24543747  0.37756112  0.74435506  1
  O  O349  1  0.24354277  0.87549840  0.24410484  1
  O  O350  1  0.23982903  0.87793337  0.74667452  1
  O  O351  1  0.73636733  0.36740542  0.24245971  1
  O  O352  1  0.73810931  0.37498483  0.75344280  1
  O  O353  1  0.74641154  0.88372704  0.24322779  1
  O  O354  1  0.74921737  0.87439918  0.73114382  1
  O  O355  1  0.25642724  0.12419154  0.25763645  1
  O  O356  1  0.25388771  0.12469941  0.75829919  1
  O  O357  1  0.25341143  0.62070246  0.25904280  1
  O  O358  1  0.26711894  0.62260239  0.74623320  1
  O  O359  1  0.75113910  0.11959870  0.25886456  1
  O  O360  1  0.75075693  0.12785216  0.75972010  1
  O  O361  1  0.75725049  0.63329074  0.26282423  1
  O  O362  1  0.75225142  0.61812513  0.74620421  1
  O  O363  1  0.36537177  0.13093413  0.36580703  1
  O  O364  1  0.36811708  0.11966622  0.87007738  1
  O  O365  1  0.36771507  0.62110916  0.36880493  1
  O  O366  1  0.38236106  0.61932270  0.86208519  1
  O  O367  1  0.86177131  0.12627253  0.37723082  1
  O  O368  1  0.86962743  0.11845019  0.86935221  1
  O  O369  1  0.87042250  0.61705648  0.37031221  1
  O  O370  1  0.91303604  0.60374723  0.85977174  1
  O  O371  1  0.14371845  0.36705302  0.12251030  1
  O  O372  1  0.13182599  0.38306720  0.62956831  1
  O  O373  1  0.13267798  0.87551152  0.13656493  1
  O  O374  1  0.12821768  0.88233287  0.62996368  1
  O  O375  1  0.62758898  0.37907987  0.13031068  1
  O  O376  1  0.61792410  0.38609277  0.63555489  1
  O  O377  1  0.63463087  0.88876988  0.12632751  1
  O  O378  1  0.63538665  0.88377008  0.61540446  1
  O  O379  1  0.11751709  0.24525950  0.26454949  1
  O  O380  1  0.11743364  0.26258381  0.74080462  1
  O  O381  1  0.11980363  0.76018964  0.26172281  1
  O  O382  1  0.12530706  0.75501104  0.75699395  1
  O  O383  1  0.61691711  0.25413520  0.25245946  1
  O  O384  1  0.61931056  0.25924598  0.75145373  1
  O  O385  1  0.61475521  0.75296057  0.25434610  1
  O  O386  1  0.61001651  0.75197319  0.74097086  1
  O  O387  1  0.38192807  0.24139348  0.24570220  1
  O  O388  1  0.37757438  0.23843030  0.75256332  1
  O  O389  1  0.37864184  0.74224088  0.24372081  1
  O  O390  1  0.37952862  0.74075735  0.74406661  1
  O  O391  1  0.88825214  0.24578475  0.25849192  1
  O  O392  1  0.88433027  0.25159854  0.74244141  1
  O  O393  1  0.88206000  0.74275400  0.25047324  1
  O  O394  1  0.88903100  0.75581700  0.74199881  1
  O  O395  1  0.37812469  0.49154623  0.49333698  1
  O  O396  1  0.38311587  0.49210367  0.99678023  1
  O  O397  1  0.38634410  0.99273027  0.50536616  1
  O  O398  1  0.37839880  0.99631027  0.99302362  1
  O  O399  1  0.87686605  0.49204344  0.49251663  1
  O  O400  1  0.89161368  0.48475599  1.00334888  1
  O  O401  1  0.88441038  0.99608795  0.50421972  1
  O  O402  1  0.89002791  1.00295200  0.98744657  1
  O  O403  1  0.11314529  0.00888121  -0.00171980  1
  O  O404  1  0.11515011  0.00681710  0.50641058  1
  O  O405  1  0.12111817  0.50429127  0.00099668  1
  O  O406  1  0.12295968  0.50886727  0.51076752  1
  O  O407  1  0.62073498  0.01073209  0.00554902  1
  O  O408  1  0.61095365  0.00606346  0.50636668  1
  O  O409  1  0.61217432  0.49634313  0.01076012  1
  O  O410  1  0.61851190  0.49971492  0.50689671  1
  O  O411  1  0.37088433  0.36703792  0.12006116  1
  O  O412  1  0.36824604  0.38217188  0.61775514  1
  O  O413  1  0.36658626  0.87071129  0.11743262  1
  O  O414  1  0.37323733  0.86755719  0.61685719  1
  O  O415  1  0.86075455  0.37607362  0.11831006  1
  O  O416  1  0.87308603  0.36284932  0.61557634  1
  O  O417  1  0.86133002  0.87503231  0.12983025  1
  O  O418  1  0.86182162  0.87674030  0.61292238  1
  O  O419  1  0.13146935  0.13085337  0.38510500  1
  O  O420  1  0.13346565  0.12313974  0.88735613  1
  O  O421  1  0.13264157  0.63575390  0.38434997  1
  O  O422  1  0.11878519  0.63546074  0.88726514  1
  O  O423  1  0.63052627  0.13228200  0.38208517  1
  O  O424  1  0.63308891  0.12340583  0.88058662  1
  O  O425  1  0.63126164  0.62894461  0.37409100  1
  O  O426  1  0.61314975  0.63434814  0.87681028  1
