# generated using pymatgen
data_V85Zn86O256
_symmetry_space_group_name_H-M   'P 1'
_cell_length_a   16.91654249
_cell_length_b   16.92299329
_cell_length_c   16.91134150
_cell_angle_alpha   90.04727174
_cell_angle_beta   89.93646240
_cell_angle_gamma   89.95838539
_symmetry_Int_Tables_number   1
_chemical_formula_structural   V85Zn86O256
_chemical_formula_sum   'V85 Zn86 O256'
_cell_volume   4841.34816521
_cell_formula_units_Z   1
loop_
 _symmetry_equiv_pos_site_id
 _symmetry_equiv_pos_as_xyz
  1  'x, y, z'
loop_
 _atom_site_type_symbol
 _atom_site_label
 _atom_site_symmetry_multiplicity
 _atom_site_fract_x
 _atom_site_fract_y
 _atom_site_fract_z
 _atom_site_occupancy
  V  V0  1  0.36811429  0.12654222  0.25442079  1
  V  V1  1  0.49999781  0.74298472  0.23807219  1
  V  V2  1  0.37340291  0.50043182  0.37497957  1
  V  V3  1  0.74765241  0.75617726  0.00285644  1
  V  V4  1  -0.00219458  0.25369410  0.26043646  1
  V  V5  1  0.62652005  0.37336482  0.24079324  1
  V  V6  1  0.86996246  0.00371575  0.87525601  1
  V  V7  1  0.13179187  0.24628808  0.37646100  1
  V  V8  1  0.74445373  0.25645582  -0.00594209  1
  V  V9  1  0.36890071  0.37106604  -0.00218015  1
  V  V10  1  0.87249605  0.61883038  0.25219509  1
  V  V11  1  0.49859008  0.87659872  0.37883253  1
  V  V12  1  0.62860956  0.87034693  0.24514322  1
  V  V13  1  0.74938775  0.24780324  0.50089310  1
  V  V14  1  0.75169980  0.49739131  0.24746427  1
  V  V15  1  0.11879572  0.62475647  0.50333286  1
  V  V16  1  0.25106382  0.75423339  0.50007061  1
  V  V17  1  0.86995351  0.75103256  0.12635529  1
  V  V18  1  0.62813874  -0.00035760  0.12432918  1
  V  V19  1  0.74359733  -0.00204182  0.74905816  1
  V  V20  1  0.62635946  0.74435456  0.38686057  1
  V  V21  1  0.00075017  0.12526640  0.62389068  1
  V  V22  1  0.37586464  0.88011702  0.50081403  1
  V  V23  1  0.74939100  0.62227511  0.38717962  1
  V  V24  1  0.12253257  0.37875668  0.25606959  1
  V  V25  1  0.37714039  0.50122200  0.87542883  1
  V  V26  1  0.50143657  0.12650517  0.12364891  1
  V  V27  1  0.25170696  -0.00793156  0.24944578  1
  V  V28  1  0.49779643  0.24933035  0.24926080  1
  V  V29  1  -0.00132393  0.75110799  0.25109600  1
  V  V30  1  0.37210358  0.75580403  0.62523987  1
  V  V31  1  0.50386259  0.62716979  0.61518932  1
  V  V32  1  0.37259625  0.00255165  0.87338814  1
  V  V33  1  0.50052434  0.87587205  0.86931919  1
  V  V34  1  0.12934956  -0.00616060  0.12538891  1
  V  V35  1  0.00025049  0.37495412  0.87822198  1
  V  V36  1  0.12981888  0.87564529  0.74827556  1
  V  V37  1  0.36561066  0.24866906  0.12006002  1
  V  V38  1  0.75089525  0.37476036  0.62435437  1
  V  V39  1  -0.00105587  0.74787663  0.73898692  1
  V  V40  1  0.62585505  0.75509691  0.86690993  1
  V  V41  1  0.75183885  0.62728449  0.87737305  1
  V  V42  1  0.25343713  0.63015478  0.37481151  1
  V  V43  1  0.25174095  0.13189732  0.87556938  1
  V  V44  1  0.63060455  0.12767302  -0.01529313  1
  V  V45  1  0.12905790  -0.00518281  0.62116518  1
  V  V46  1  0.62311523  0.24927804  0.37399609  1
  V  V47  1  -0.00095629  0.00232116  -0.00036239  1
  V  V48  1  0.87231128  0.87684791  0.00427117  1
  V  V49  1  0.88207707  0.50253334  0.87906003  1
  V  V50  1  0.50167350  0.24031228  0.75674362  1
  V  V51  1  0.12918204  0.37293745  0.74656637  1
  V  V52  1  0.50880629  0.37429166  0.87574046  1
  V  V53  1  0.37832619  0.62824208  0.74942062  1
  V  V54  1  0.25057038  0.24576930  0.50581660  1
  V  V55  1  0.36687930  0.87115217  0.01119155  1
  V  V56  1  0.36934471  0.37661777  0.51037381  1
  V  V57  1  0.75077037  -0.00595385  0.24536103  1
  V  V58  1  -0.00545770  -0.00231442  0.49927554  1
  V  V59  1  0.74823769  0.86223970  0.62706882  1
  V  V60  1  0.25418575  0.49658375  0.74034533  1
  V  V61  1  0.62486181  -0.00167740  0.61616634  1
  V  V62  1  0.49968484  0.37501273  0.37745615  1
  V  V63  1  0.61599493  0.62833173  0.00382331  1
  V  V64  1  0.37725144  0.62458143  0.23452863  1
  V  V65  1  0.74898900  0.50017343  0.75232149  1
  V  V66  1  0.62787050  0.50318723  0.61471769  1
  V  V67  1  0.37332501  0.00200843  0.37851608  1
  V  V68  1  0.87439041  0.12256016  0.25025020  1
  V  V69  1  0.87106127  0.85760794  0.50373228  1
  V  V70  1  0.74768840  0.12118442  0.37412185  1
  V  V71  1  0.25234442  0.00438885  0.74642492  1
  V  V72  1  0.50050908  0.00024223  -0.00024593  1
  V  V73  1  -0.00077037  0.12796379  0.12644254  1
  V  V74  1  0.49264631  0.12206295  0.61978613  1
  V  V75  1  0.87857878  0.62936405  0.73970767  1
  V  V76  1  0.11451171  0.50365412  0.62732496  1
  V  V77  1  0.11415004  0.49455295  0.11739759  1
  V  V78  1  0.12905490  0.13458302  0.00082428  1
  V  V79  1  0.11987250  0.62188466  -0.00143175  1
  V  V80  1  0.12798198  0.75183060  0.87761270  1
  V  V81  1  0.87386245  0.37953195  0.01082433  1
  V  V82  1  0.86895039  0.12556720  0.75294623  1
  V  V83  1  0.61917163  0.50500506  0.12640576  1
  V  V84  1  0.87512450  0.25048998  0.62569693  1
  Zn  Zn85  1  0.13146648  0.86681921  0.24809405  1
  Zn  Zn86  1  0.50376643  0.75604577  0.74600060  1
  Zn  Zn87  1  0.12427831  0.75131743  0.37451825  1
  Zn  Zn88  1  0.00223853  0.24926215  0.75168981  1
  Zn  Zn89  1  0.86808666  0.25495188  0.12671116  1
  Zn  Zn90  1  0.62042932  0.11967322  0.49746958  1
  Zn  Zn91  1  -0.00062060  0.87573926  0.87394538  1
  Zn  Zn92  1  0.12885677  0.25369329  0.87706756  1
  Zn  Zn93  1  0.13110016  0.11875750  0.49390429  1
  Zn  Zn94  1  -0.00695292  0.61900081  0.11884757  1
  Zn  Zn95  1  0.88114857  0.38222002  0.48309646  1
  Zn  Zn96  1  0.24544595  0.37255800  0.12050060  1
  Zn  Zn97  1  0.37086531  0.25019005  0.63338598  1
  Zn  Zn98  1  0.24929391  0.74943645  0.01706644  1
  Zn  Zn99  1  0.50261600  0.50106620  0.49860633  1
  Zn  Zn100  1  0.25242974  0.62886785  0.87654736  1
  Zn  Zn101  1  0.62824534  0.36846835  0.75454406  1
  Zn  Zn102  1  -0.00483903  0.49624062  0.48632176  1
  Zn  Zn103  1  0.00078518  0.87280119  0.37544861  1
  Zn  Zn104  1  0.49514019  0.50394713  0.00665590  1
  Zn  Zn105  1  0.25054630  0.49863915  0.24458042  1
  Zn  Zn106  1  0.87305099  -0.00468978  0.37738437  1
  Zn  Zn107  1  0.18644191  0.18493444  0.19059721  1
  Zn  Zn108  1  0.18675132  0.18579811  0.68621232  1
  Zn  Zn109  1  0.18486902  0.67961737  0.18662109  1
  Zn  Zn110  1  0.19100994  0.68706872  0.68691564  1
  Zn  Zn111  1  0.68966002  0.18833678  0.18025857  1
  Zn  Zn112  1  0.68248228  0.18395787  0.68976011  1
  Zn  Zn113  1  0.68856501  0.68612242  0.18833551  1
  Zn  Zn114  1  0.68813073  0.68268737  0.68775144  1
  Zn  Zn115  1  0.30751139  0.31399728  0.31554556  1
  Zn  Zn116  1  0.31742531  0.31346471  0.81069417  1
  Zn  Zn117  1  0.31850604  0.81006806  0.19056104  1
  Zn  Zn118  1  0.31140479  0.81712658  0.81374621  1
  Zn  Zn119  1  0.80594472  0.30695541  0.30699617  1
  Zn  Zn120  1  0.81265687  0.31267625  0.81619944  1
  Zn  Zn121  1  0.81145821  0.80943291  0.31745835  1
  Zn  Zn122  1  0.81468538  0.81553165  0.81243175  1
  Zn  Zn123  1  0.18524718  0.43650715  0.43826402  1
  Zn  Zn124  1  0.19082931  0.44061297  0.93327190  1
  Zn  Zn125  1  0.18907979  0.93356535  0.43137111  1
  Zn  Zn126  1  0.18691087  0.94079840  0.93722458  1
  Zn  Zn127  1  0.69413279  0.43505394  0.43411604  1
  Zn  Zn128  1  0.69077970  0.44042468  0.94173960  1
  Zn  Zn129  1  0.68991606  0.93107713  0.43723372  1
  Zn  Zn130  1  0.68780387  0.93832922  0.93586978  1
  Zn  Zn131  1  0.31163315  0.06175330  0.06172951  1
  Zn  Zn132  1  0.31192587  0.06373322  0.56186543  1
  Zn  Zn133  1  0.30215859  0.55911430  0.05972677  1
  Zn  Zn134  1  0.31229219  0.56522735  0.56219966  1
  Zn  Zn135  1  0.80893601  0.06877082  0.06227074  1
  Zn  Zn136  1  0.81144766  0.06022117  0.56370635  1
  Zn  Zn137  1  0.80700094  0.56248491  0.06502262  1
  Zn  Zn138  1  0.81932603  0.56108450  0.56172575  1
  Zn  Zn139  1  0.43690217  0.43619256  0.18705619  1
  Zn  Zn140  1  0.44449776  0.43692000  0.68991507  1
  Zn  Zn141  1  0.44516390  0.94021348  0.19236522  1
  Zn  Zn142  1  0.43658969  0.94088966  0.68722479  1
  Zn  Zn143  1  0.93940106  0.43844108  0.31798235  1
  Zn  Zn144  1  0.93832623  0.43621360  0.68597017  1
  Zn  Zn145  1  0.93766382  0.93683529  0.18521836  1
  Zn  Zn146  1  0.93619191  0.93376073  0.68556662  1
  Zn  Zn147  1  0.06468922  0.06163839  0.31442444  1
  Zn  Zn148  1  0.06104580  0.06323514  0.81294079  1
  Zn  Zn149  1  0.06838181  0.57088579  0.30701623  1
  Zn  Zn150  1  0.06335263  0.56442516  0.81165582  1
  Zn  Zn151  1  0.55991487  0.06075114  0.31216694  1
  Zn  Zn152  1  0.56116737  0.05910703  0.80722068  1
  Zn  Zn153  1  0.56256977  0.56314690  0.31434980  1
  Zn  Zn154  1  0.56328139  0.56488520  0.81112990  1
  Zn  Zn155  1  0.43439719  0.18803708  0.43990408  1
  Zn  Zn156  1  0.43839649  0.18680772  0.93621761  1
  Zn  Zn157  1  0.43791761  0.69059761  0.43334188  1
  Zn  Zn158  1  0.43705480  0.69189885  0.93836075  1
  Zn  Zn159  1  0.93481504  0.18804066  0.43759060  1
  Zn  Zn160  1  0.93477708  0.19233468  0.93708768  1
  Zn  Zn161  1  0.93706600  0.68083898  0.43516131  1
  Zn  Zn162  1  0.94125049  0.69060472  0.93258277  1
  Zn  Zn163  1  0.05513047  0.31446519  0.06438302  1
  Zn  Zn164  1  0.06467699  0.31530937  0.56271497  1
  Zn  Zn165  1  0.05891694  0.81074494  0.06296676  1
  Zn  Zn166  1  0.06375966  0.81388602  0.56086513  1
  Zn  Zn167  1  0.55964865  0.31233597  0.05967198  1
  Zn  Zn168  1  0.56244726  0.31064499  0.56597133  1
  Zn  Zn169  1  0.56081321  0.81642821  0.05966194  1
  Zn  Zn170  1  0.56229392  0.81596591  0.56425282  1
  O  O171  1  0.11870346  0.11861090  0.11963534  1
  O  O172  1  0.11598890  0.11332778  0.62301146  1
  O  O173  1  0.12090877  0.61090706  0.11757427  1
  O  O174  1  0.13481283  0.61654560  0.61579252  1
  O  O175  1  0.61712239  0.11783540  0.11980126  1
  O  O176  1  0.61645187  0.11549375  0.62182713  1
  O  O177  1  0.62872909  0.61858539  0.11620693  1
  O  O178  1  0.61679584  0.61657690  0.62867189  1
  O  O179  1  0.37976285  0.38399092  0.37958498  1
  O  O180  1  0.38445237  0.38238602  0.87974801  1
  O  O181  1  0.38511797  0.88275780  0.38510434  1
  O  O182  1  0.37919497  0.88502885  0.88399139  1
  O  O183  1  0.87373472  0.36590026  0.37034828  1
  O  O184  1  0.88232192  0.38427903  0.87922762  1
  O  O185  1  0.87372674  0.87496350  0.39059253  1
  O  O186  1  0.87679645  0.88229956  0.88694962  1
  O  O187  1  0.26436114  -0.00146709  0.36693645  1
  O  O188  1  0.25536148  0.00682809  0.86791520  1
  O  O189  1  0.25904476  0.50847886  0.37460005  1
  O  O190  1  0.26439607  0.50381905  0.86494245  1
  O  O191  1  0.74719472  0.00557358  0.36470349  1
  O  O192  1  0.76120241  -0.00624917  0.86554114  1
  O  O193  1  0.73810754  0.51486734  0.36296033  1
  O  O194  1  0.75763577  0.50509024  0.86838305  1
  O  O195  1  0.23748161  0.49261933  0.12636872  1
  O  O196  1  0.24813367  0.50302658  0.63721324  1
  O  O197  1  0.24006048  1.00701369  0.13384871  1
  O  O198  1  0.24107990  1.00567130  0.63279748  1
  O  O199  1  0.73772425  0.50328623  0.13950885  1
  O  O200  1  0.74607181  0.49400468  0.63188363  1
  O  O201  1  0.74485721  1.00476922  0.13768301  1
  O  O202  1  0.74262551  0.99322433  0.63084261  1
  O  O203  1  0.01231110  0.36421638  0.24845434  1
  O  O204  1  0.00790925  0.37529378  0.76049427  1
  O  O205  1  -0.00555102  0.86126502  0.25043017  1
  O  O206  1  0.00858258  0.86666031  0.75065864  1
  O  O207  1  0.50522723  0.36822837  0.25724297  1
  O  O208  1  0.50579623  0.36711254  0.75873468  1
  O  O209  1  0.50673433  0.86401707  0.25901209  1
  O  O210  1  0.49503264  0.87553181  0.76438759  1
  O  O211  1  0.49122204  0.12930527  0.24279279  1
  O  O212  1  0.50152063  0.13432762  0.74297122  1
  O  O213  1  0.49462272  0.63595885  0.25314356  1
  O  O214  1  0.49021304  0.62767925  0.74160758  1
  O  O215  1  0.99436423  0.12804832  0.24445344  1
  O  O216  1  0.99022158  0.12181948  0.73882678  1
  O  O217  1  0.98865619  0.63505647  0.24570295  1
  O  O218  1  0.99439693  0.63916833  0.75455832  1
  O  O219  1  0.38127848  0.25693694  0.00899653  1
  O  O220  1  0.36482648  0.25719649  0.50221327  1
  O  O221  1  0.37173392  0.76712138  -0.00355450  1
  O  O222  1  0.37094863  0.75719267  0.50555407  1
  O  O223  1  0.86673912  0.26036613  0.00160446  1
  O  O224  1  0.86168529  0.24769828  0.50722187  1
  O  O225  1  0.86886107  0.75679652  0.00374729  1
  O  O226  1  0.87960891  0.75919147  0.50206232  1
  O  O227  1  0.13609197  0.25057961  0.49626068  1
  O  O228  1  0.12120204  0.23796631  1.00093142  1
  O  O229  1  0.13480784  0.74404654  0.50200190  1
  O  O230  1  0.12657083  0.74647983  0.99320723  1
  O  O231  1  0.63580415  0.24920297  0.49539586  1
  O  O232  1  0.63411517  0.24322699  1.00218477  1
  O  O233  1  0.62189202  0.75357919  0.48528554  1
  O  O234  1  0.63114543  0.74678087  0.99555645  1
  O  O235  1  0.49113053  0.24521930  0.13091606  1
  O  O236  1  0.49954824  0.23741422  0.63347992  1
  O  O237  1  0.50585671  0.75284233  0.13910910  1
  O  O238  1  0.49325519  0.74501184  0.62667006  1
  O  O239  1  0.99976803  0.23879844  0.13604722  1
  O  O240  1  0.99621328  0.23944610  0.62850679  1
  O  O241  1  0.98507899  0.74711810  0.12929316  1
  O  O242  1  1.00591417  0.75176957  0.64014772  1
  O  O243  1  0.00571011  0.24424614  0.36480364  1
  O  O244  1  0.00330787  0.25963884  0.87122508  1
  O  O245  1  -0.00023706  0.74907809  0.36508552  1
  O  O246  1  0.01369098  0.75461761  0.86646132  1
  O  O247  1  0.50407717  0.25388982  0.36949380  1
  O  O248  1  0.49778473  0.25646208  0.86512446  1
  O  O249  1  0.51119477  0.75416740  0.36669093  1
  O  O250  1  0.50785322  0.75881706  0.87396347  1
  O  O251  1  0.25015906  0.13982155  0.50014559  1
  O  O252  1  0.23994980  0.11835001  0.98994575  1
  O  O253  1  0.24751625  0.63444936  0.49490790  1
  O  O254  1  0.23719609  0.63004088  0.99563908  1
  O  O255  1  0.74720420  0.12978750  0.49274119  1
  O  O256  1  0.73959490  0.13409511  0.99878917  1
  O  O257  1  0.75020060  0.62104896  0.48593714  1
  O  O258  1  0.74294069  0.63771816  0.99559395  1
  O  O259  1  0.26440271  0.37511311  -0.00398186  1
  O  O260  1  0.25978754  0.36410937  0.49609288  1
  O  O261  1  0.26443291  0.87840293  -0.00118150  1
  O  O262  1  0.25935979  0.86180913  0.49425790  1
  O  O263  1  0.75726533  0.36607526  -0.00183177  1
  O  O264  1  0.75267649  0.36587740  0.50812621  1
  O  O265  1  0.75469602  0.86385655  -0.00214522  1
  O  O266  1  0.76161849  0.87500132  0.51086182  1
  O  O267  1  0.12615095  0.49296789  0.23762187  1
  O  O268  1  0.13549732  0.49762465  0.74649587  1
  O  O269  1  0.13520954  1.00221072  0.24361003  1
  O  O270  1  0.12788695  0.99312087  0.74357097  1
  O  O271  1  0.62797207  0.49366424  0.24499898  1
  O  O272  1  0.63899315  0.50196854  0.74476399  1
  O  O273  1  0.63036608  0.99083982  0.24572153  1
  O  O274  1  0.63869882  1.00266182  0.74250887  1
  O  O275  1  0.37063997  0.00682374  0.25478254  1
  O  O276  1  0.36340523  -0.00548859  0.75920891  1
  O  O277  1  0.37539601  0.50559563  0.25845982  1
  O  O278  1  0.37281088  0.50665396  0.75366261  1
  O  O279  1  0.86691360  0.00252698  0.25227327  1
  O  O280  1  0.86881347  0.00444013  0.75606698  1
  O  O281  1  0.86648011  0.51082314  0.24982938  1
  O  O282  1  0.86659321  0.50759311  0.75598933  1
  O  O283  1  0.12869137  0.36282763  0.36725986  1
  O  O284  1  0.11838173  0.37678419  0.86823188  1
  O  O285  1  0.12037348  0.86970894  0.36736470  1
  O  O286  1  0.12279963  0.87139485  0.86753063  1
  O  O287  1  0.61937475  0.36882279  0.36633929  1
  O  O288  1  0.61215786  0.38394471  0.87741910  1
  O  O289  1  0.62117715  0.86472981  0.36673051  1
  O  O290  1  0.61440133  0.86692350  0.88259106  1
  O  O291  1  0.38133088  0.13074358  0.12950572  1
  O  O292  1  0.38909438  0.12429445  0.62469574  1
  O  O293  1  0.37229155  0.61490205  0.13534239  1
  O  O294  1  0.38255797  0.63315596  0.63109576  1
  O  O295  1  0.88375294  0.12466355  0.13213368  1
  O  O296  1  0.88075689  0.12947664  0.63105979  1
  O  O297  1  0.87327331  0.63145640  0.13234595  1
  O  O298  1  0.86723826  0.62785507  0.64087800  1
  O  O299  1  0.26199243  0.24912763  0.12813308  1
  O  O300  1  0.25220773  0.24799683  0.61300653  1
  O  O301  1  0.24610004  0.75276912  0.12993271  1
  O  O302  1  0.26466679  0.74736616  0.61769985  1
  O  O303  1  0.75392748  0.24576080  0.10735338  1
  O  O304  1  0.75032325  0.25499919  0.61911041  1
  O  O305  1  0.76062781  0.74784517  0.11795029  1
  O  O306  1  0.74529223  0.76320073  0.63044814  1
  O  O307  1  0.24331641  0.25007438  0.38766384  1
  O  O308  1  0.25283766  0.23548155  0.86932476  1
  O  O309  1  0.25302569  0.73676828  0.38484807  1
  O  O310  1  0.23742428  0.75118641  0.87378430  1
  O  O311  1  0.74216723  0.23977912  0.38085692  1
  O  O312  1  0.75397848  0.25031382  0.89243287  1
  O  O313  1  0.73496239  0.73799735  0.37005298  1
  O  O314  1  0.74416662  0.74915612  0.88155703  1
  O  O315  1  0.00373532  0.12215797  0.00790324  1
  O  O316  1  -0.00106706  0.11768335  0.51036790  1
  O  O317  1  0.01380272  0.63108525  0.00003301  1
  O  O318  1  0.01597733  0.62495867  0.49737978  1
  O  O319  1  0.50706824  0.11946728  0.00494914  1
  O  O320  1  0.50188880  0.12950628  0.51520016  1
  O  O321  1  0.51214281  0.62541953  -0.00404401  1
  O  O322  1  0.49410794  0.62359595  0.51153011  1
  O  O323  1  0.49244124  0.37340338  0.49258603  1
  O  O324  1  0.49037377  0.37836945  0.99216992  1
  O  O325  1  0.49292741  0.87004238  0.48772210  1
  O  O326  1  0.49063973  0.88160227  0.99169505  1
  O  O327  1  0.99109082  0.38378789  0.51911256  1
  O  O328  1  0.99056792  0.37188668  0.98671782  1
  O  O329  1  0.98770267  0.87999036  0.50224173  1
  O  O330  1  0.99056413  0.88400404  0.99916486  1
  O  O331  1  0.49229844  0.49469408  0.37794724  1
  O  O332  1  0.49047475  0.49454870  0.87318822  1
  O  O333  1  0.48908262  0.98800473  0.36689659  1
  O  O334  1  0.49214693  0.99560120  0.87868422  1
  O  O335  1  1.01200713  0.50188939  0.37220995  1
  O  O336  1  0.98792708  0.49590114  0.86992199  1
  O  O337  1  0.99884063  0.99885197  0.38835189  1
  O  O338  1  0.98820890  0.99922269  0.88070270  1
  O  O339  1  0.00503367  0.01173449  0.12171234  1
  O  O340  1  0.00489959  0.00383460  0.61588764  1
  O  O341  1  0.01513843  0.49990870  0.12285731  1
  O  O342  1  0.01372889  0.50730319  0.63581583  1
  O  O343  1  0.50692644  0.00618196  0.11968816  1
  O  O344  1  0.50914645  0.01314181  0.63431722  1
  O  O345  1  0.51342475  0.49708398  0.12506722  1
  O  O346  1  0.51078540  0.50780619  0.62438892  1
  O  O347  1  0.23620825  0.37497450  0.24696162  1
  O  O348  1  0.24290510  0.38481074  0.75770858  1
  O  O349  1  0.25322338  0.88855223  0.24840861  1
  O  O350  1  0.23732464  0.88605824  0.75347403  1
  O  O351  1  0.73780166  0.38410081  0.25348834  1
  O  O352  1  0.74802431  0.38289612  0.74642690  1
  O  O353  1  0.74150026  0.88187407  0.25546595  1
  O  O354  1  0.75860328  0.88295921  0.73588766  1
  O  O355  1  0.26379997  0.11779749  0.24779245  1
  O  O356  1  0.24262373  0.11227309  0.75881363  1
  O  O357  1  0.26000756  0.62215797  0.25928879  1
  O  O358  1  0.26470003  0.61976401  0.75164895  1
  O  O359  1  0.75369373  0.11827037  0.25468418  1
  O  O360  1  0.76153394  0.11540475  0.74326800  1
  O  O361  1  0.75529733  0.61806708  0.25563552  1
  O  O362  1  0.75752695  0.62013330  0.75857088  1
  O  O363  1  0.38430846  0.11531660  0.36604635  1
  O  O364  1  0.36781894  0.11109798  0.88313137  1
  O  O365  1  0.37228981  0.61636879  0.37044298  1
  O  O366  1  0.37775848  0.61988673  0.86765602  1
  O  O367  1  0.86618063  0.12153180  0.36735890  1
  O  O368  1  0.87989312  0.11677719  0.86499142  1
  O  O369  1  0.85733870  0.63316630  0.36632019  1
  O  O370  1  0.87077173  0.61952627  0.87133923  1
  O  O371  1  0.12381593  0.38132371  0.12839480  1
  O  O372  1  0.12463990  0.38489567  0.64042276  1
  O  O373  1  0.11526855  0.89044930  0.12784721  1
  O  O374  1  0.12226164  0.88712782  0.63159100  1
  O  O375  1  0.61946263  0.37999607  0.13585849  1
  O  O376  1  0.63595540  0.38170044  0.62864884  1
  O  O377  1  0.62054689  0.88154725  0.13708751  1
  O  O378  1  0.63800647  0.88094666  0.62233989  1
  O  O379  1  0.11971009  0.25431337  0.25731487  1
  O  O380  1  0.12514653  0.25928474  0.75224542  1
  O  O381  1  0.11165673  0.74714780  0.24911514  1
  O  O382  1  0.12048107  0.75656071  0.75349855  1
  O  O383  1  0.62061980  0.25588494  0.25168986  1
  O  O384  1  0.60940524  0.25131748  0.74807198  1
  O  O385  1  0.61784964  0.75407352  0.25450255  1
  O  O386  1  0.62442599  0.74611633  0.76346359  1
  O  O387  1  0.37764114  0.24383021  0.24607578  1
  O  O388  1  0.39391438  0.25616726  0.74712089  1
  O  O389  1  0.39134452  0.74148982  0.25081438  1
  O  O390  1  0.37573987  0.74624686  0.74319467  1
  O  O391  1  0.88167617  0.24087643  0.24573229  1
  O  O392  1  0.87487262  0.24100094  0.74481747  1
  O  O393  1  0.87481640  0.74328678  0.24232778  1
  O  O394  1  0.89085923  0.74537264  0.75806512  1
  O  O395  1  0.37523591  0.49314697  0.49306965  1
  O  O396  1  0.37626506  0.49534321  0.99110390  1
  O  O397  1  0.36945523  0.99074119  0.49344226  1
  O  O398  1  0.38013671  0.99142305  0.99518428  1
  O  O399  1  0.87923888  0.49774877  0.49674077  1
  O  O400  1  0.86386530  0.49272807  0.99053037  1
  O  O401  1  0.88223211  0.99339453  0.49992963  1
  O  O402  1  0.87447863  0.99590187  0.99457432  1
  O  O403  1  0.11874568  0.00810540  0.00692015  1
  O  O404  1  0.11976986  -0.00161789  0.50553207  1
  O  O405  1  0.12852486  0.50518460  0.00791784  1
  O  O406  1  0.12893649  0.50739687  0.51180568  1
  O  O407  1  0.62254229  0.00660643  0.00514930  1
  O  O408  1  0.62867462  -0.00195397  0.51131659  1
  O  O409  1  0.62618313  0.51086295  0.00865012  1
  O  O410  1  0.62603952  0.49371735  0.51157030  1
  O  O411  1  0.37438955  0.36637441  0.11686507  1
  O  O412  1  0.38254592  0.37532075  0.61306450  1
  O  O413  1  0.38082763  0.87923739  0.11502936  1
  O  O414  1  0.38392981  0.86845779  0.61350279  1
  O  O415  1  0.88203165  0.37673261  0.10913681  1
  O  O416  1  0.86062026  0.36718600  0.63372122  1
  O  O417  1  0.87521275  0.86925847  0.11215357  1
  O  O418  1  0.86292884  0.87723811  0.61427164  1
  O  O419  1  0.12156510  0.13970854  0.37743026  1
  O  O420  1  0.13171188  0.12545410  0.88349109  1
  O  O421  1  0.13807573  0.62869344  0.38309153  1
  O  O422  1  0.12758704  0.63244493  0.88043296  1
  O  O423  1  0.62823065  0.13006677  0.37554725  1
  O  O424  1  0.62011761  0.11859692  0.88636091  1
  O  O425  1  0.63218384  0.63619294  0.37261095  1
  O  O426  1  0.63120500  0.63283634  0.88248909  1
