# generated using pymatgen
data_V85Zn86O256
_symmetry_space_group_name_H-M   'P 1'
_cell_length_a   16.92882586
_cell_length_b   16.93986903
_cell_length_c   16.92449637
_cell_angle_alpha   89.98305993
_cell_angle_beta   89.96086654
_cell_angle_gamma   89.95234201
_symmetry_Int_Tables_number   1
_chemical_formula_structural   V85Zn86O256
_chemical_formula_sum   'V85 Zn86 O256'
_cell_volume   4853.47022384
_cell_formula_units_Z   1
loop_
 _symmetry_equiv_pos_site_id
 _symmetry_equiv_pos_as_xyz
  1  'x, y, z'
loop_
 _atom_site_type_symbol
 _atom_site_label
 _atom_site_symmetry_multiplicity
 _atom_site_fract_x
 _atom_site_fract_y
 _atom_site_fract_z
 _atom_site_occupancy
  V  V0  1  0.63178643  0.62433717  0.49790241  1
  V  V1  1  0.50498881  0.62589374  0.11750245  1
  V  V2  1  0.62553183  0.87340194  0.76273839  1
  V  V3  1  0.75370224  0.74765836  0.49704974  1
  V  V4  1  0.24827726  0.62509016  0.87498157  1
  V  V5  1  0.75829065  0.50496031  0.74846436  1
  V  V6  1  0.88492516  0.36546997  0.50403190  1
  V  V7  1  0.00382638  0.00106919  0.49223295  1
  V  V8  1  0.37549191  -0.00347531  0.87426137  1
  V  V9  1  0.24657516  0.87480040  0.12603272  1
  V  V10  1  0.12941750  0.87526653  0.75000492  1
  V  V11  1  0.62808611  0.50016449  0.62543524  1
  V  V12  1  0.24875940  0.11894236  0.87148374  1
  V  V13  1  0.49682944  0.87219440  0.37747205  1
  V  V14  1  0.49977657  0.12448161  0.62478854  1
  V  V15  1  0.62723342  0.49539691  0.11797970  1
  V  V16  1  0.88484652  0.49853615  0.37743175  1
  V  V17  1  0.37754518  0.87398066  -0.00187899  1
  V  V18  1  0.61948428  0.12557673  0.49829311  1
  V  V19  1  0.62554089  0.24961324  0.87686867  1
  V  V20  1  0.75173213  0.12443045  0.37656204  1
  V  V21  1  0.12889485  0.49631122  0.62204552  1
  V  V22  1  0.12628699  -0.00039369  0.62703595  1
  V  V23  1  0.50341099  0.37559721  0.37096698  1
  V  V24  1  0.12361559  0.62667186  0.49765629  1
  V  V25  1  0.25022133  0.24763062  0.00498858  1
  V  V26  1  0.25607302  0.75791144  0.50080712  1
  V  V27  1  0.12510486  0.24716801  0.87372969  1
  V  V28  1  0.37390203  0.62614724  0.24712137  1
  V  V29  1  0.87960229  0.74619074  0.63530582  1
  V  V30  1  0.62824789  0.12111160  0.00589695  1
  V  V31  1  -0.00189979  0.61516183  0.12364734  1
  V  V32  1  0.86652995  0.62500238  0.25665555  1
  V  V33  1  0.74072231  0.49488078  0.26183953  1
  V  V34  1  0.11986725  0.75797662  0.37534650  1
  V  V35  1  0.74331607  0.62293698  0.87738196  1
  V  V36  1  -0.00277448  0.75416885  0.25474062  1
  V  V37  1  0.87537556  0.74869806  0.12202672  1
  V  V38  1  0.37228402  0.49986307  0.37612431  1
  V  V39  1  0.62739676  0.37551466  0.74855400  1
  V  V40  1  0.50005038  0.37585617  0.87412933  1
  V  V41  1  0.87962538  0.50615550  0.87639977  1
  V  V42  1  0.11850864  0.61960587  0.00151493  1
  V  V43  1  0.49877719  0.24815613  0.74447032  1
  V  V44  1  0.14368677  0.25305720  0.36910424  1
  V  V45  1  0.75325917  0.87414947  0.62518275  1
  V  V46  1  -0.00530861  0.89103718  0.87039215  1
  V  V47  1  0.88229231  0.87350960  0.49513991  1
  V  V48  1  0.62759617  0.74643181  0.37365998  1
  V  V49  1  0.75723003  0.12373062  0.87638476  1
  V  V50  1  -0.00082482  0.62689181  0.63756777  1
  V  V51  1  0.75488034  0.24977842  0.01016980  1
  V  V52  1  0.88013575  0.88752313  -0.00136753  1
  V  V53  1  0.87393329  0.37684814  0.00786684  1
  V  V54  1  -0.00074122  0.13143760  0.61572641  1
  V  V55  1  0.62591111  0.25521918  0.37234783  1
  V  V56  1  0.12661557  0.37285407  0.74526578  1
  V  V57  1  0.50524877  -0.00449396  -0.00226227  1
  V  V58  1  0.62671093  0.88241018  0.24529615  1
  V  V59  1  -0.00267193  0.37580595  0.88052316  1
  V  V60  1  0.24699507  0.48877981  0.24096301  1
  V  V61  1  0.10914161  0.74886309  0.87043323  1
  V  V62  1  0.37325114  0.12396420  0.25436400  1
  V  V63  1  0.00051780  0.26730129  0.25408951  1
  V  V64  1  -0.00812221  0.25229083  0.74547053  1
  V  V65  1  0.37424706  0.11977508  0.74952386  1
  V  V66  1  0.36881689  -0.00567337  0.37776947  1
  V  V67  1  0.49463300  -0.00773091  0.50355997  1
  V  V68  1  0.75740294  -0.00171265  0.75385679  1
  V  V69  1  0.87681008  -0.00026869  0.37062549  1
  V  V70  1  0.37517555  0.37513444  0.00296414  1
  V  V71  1  0.87328350  0.12609541  0.74290202  1
  V  V72  1  0.50272501  0.25194296  0.25203805  1
  V  V73  1  0.50131035  0.50181939  0.50010469  1
  V  V74  1  0.37303516  0.49855198  0.87536584  1
  V  V75  1  0.37160405  0.37236372  0.51528317  1
  V  V76  1  0.24648074  0.00240263  0.25064072  1
  V  V77  1  0.74764257  0.74547748  0.00046683  1
  V  V78  1  0.37466916  0.25146878  0.12567609  1
  V  V79  1  0.62657715  -0.00289560  0.62576604  1
  V  V80  1  0.11436776  0.00406072  0.11862274  1
  V  V81  1  0.49806789  0.75246974  0.75795742  1
  V  V82  1  0.24992288  0.49934020  0.74716421  1
  V  V83  1  0.24684747  0.75026835  -0.00059187  1
  V  V84  1  0.50230543  0.11919523  0.12598202  1
  Zn  Zn85  1  0.50450701  0.50453120  -0.00443717  1
  Zn  Zn86  1  0.37487282  0.62837789  0.74570513  1
  Zn  Zn87  1  0.11734849  0.47771050  0.13610017  1
  Zn  Zn88  1  0.75468927  0.24928239  0.50606991  1
  Zn  Zn89  1  0.75969913  0.36816625  0.62678806  1
  Zn  Zn90  1  0.24692459  0.62520150  0.37242823  1
  Zn  Zn91  1  0.87481025  0.14156271  0.24503478  1
  Zn  Zn92  1  0.25680484  0.87851866  0.62827711  1
  Zn  Zn93  1  0.24828116  0.26026862  0.54246233  1
  Zn  Zn94  1  0.38125541  0.75618085  0.61956963  1
  Zn  Zn95  1  0.62210532  0.74794486  0.88355078  1
  Zn  Zn96  1  0.16262000  0.12340907  0.48693316  1
  Zn  Zn97  1  0.11358580  0.11790867  -0.00496833  1
  Zn  Zn98  1  0.00584689  0.49661772  0.49618841  1
  Zn  Zn99  1  0.50012640  0.74985525  0.24855797  1
  Zn  Zn100  1  0.74819920  0.00541214  0.24069388  1
  Zn  Zn101  1  0.49926476  0.62952240  0.62589884  1
  Zn  Zn102  1  -0.01555331  0.13891670  0.12093139  1
  Zn  Zn103  1  0.74881320  0.37064195  0.13454583  1
  Zn  Zn104  1  0.37580173  0.75004055  0.12584221  1
  Zn  Zn105  1  0.74594310  0.87868174  0.12022931  1
  Zn  Zn106  1  0.11586260  0.88033833  0.25194900  1
  Zn  Zn107  1  0.18427744  0.18723891  0.18927453  1
  Zn  Zn108  1  0.18291330  0.17855204  0.68778351  1
  Zn  Zn109  1  0.18557277  0.68490481  0.18810600  1
  Zn  Zn110  1  0.18493359  0.68883827  0.68741526  1
  Zn  Zn111  1  0.68837802  0.18458852  0.19000614  1
  Zn  Zn112  1  0.68650423  0.18811588  0.68498215  1
  Zn  Zn113  1  0.68721153  0.68581506  0.18697127  1
  Zn  Zn114  1  0.68904004  0.68680893  0.68886437  1
  Zn  Zn115  1  0.31613540  0.31587463  0.31504028  1
  Zn  Zn116  1  0.29219504  0.29120070  0.75938080  1
  Zn  Zn117  1  0.30983216  0.81162657  0.31288487  1
  Zn  Zn118  1  0.30990905  0.81274565  0.81375143  1
  Zn  Zn119  1  0.81465113  0.31691437  0.32082342  1
  Zn  Zn120  1  0.81223036  0.31425346  0.81455673  1
  Zn  Zn121  1  0.81124636  0.81381508  0.31443738  1
  Zn  Zn122  1  0.81443294  0.81114341  0.81641611  1
  Zn  Zn123  1  0.19194833  0.43451012  0.43578848  1
  Zn  Zn124  1  0.17230553  0.41930887  0.96581506  1
  Zn  Zn125  1  0.18347053  0.93690599  0.43612591  1
  Zn  Zn126  1  0.18685360  0.93606330  0.93654630  1
  Zn  Zn127  1  0.69425083  0.43408026  0.43974646  1
  Zn  Zn128  1  0.69089942  0.43665213  0.93747987  1
  Zn  Zn129  1  0.68768515  0.93638546  0.43570739  1
  Zn  Zn130  1  0.69506335  0.93980735  0.94193936  1
  Zn  Zn131  1  0.31102189  0.06260648  0.06286183  1
  Zn  Zn132  1  0.31434027  0.05391989  0.56979355  1
  Zn  Zn133  1  0.31202999  0.56293933  0.06229353  1
  Zn  Zn134  1  0.31282393  0.56999109  0.56310308  1
  Zn  Zn135  1  0.81380339  0.06012587  0.07243096  1
  Zn  Zn136  1  0.81388244  0.06356388  0.56039644  1
  Zn  Zn137  1  0.81049838  0.56000670  0.06357877  1
  Zn  Zn138  1  0.81531094  0.56165051  0.56181245  1
  Zn  Zn139  1  0.43802803  0.43938327  0.18679782  1
  Zn  Zn140  1  0.44248277  0.44438612  0.69093823  1
  Zn  Zn141  1  0.43845168  0.93635223  0.18669906  1
  Zn  Zn142  1  0.43761701  0.93000991  0.69017949  1
  Zn  Zn143  1  0.93414758  0.43435812  0.19318756  1
  Zn  Zn144  1  0.94138648  0.44044667  0.68593290  1
  Zn  Zn145  1  0.93447914  0.93687902  0.18580876  1
  Zn  Zn146  1  0.94154847  0.93778465  0.68498076  1
  Zn  Zn147  1  0.06315999  0.07940571  0.30989366  1
  Zn  Zn148  1  0.06011518  0.06315792  0.80802750  1
  Zn  Zn149  1  0.06333009  0.56705174  0.30831367  1
  Zn  Zn150  1  0.06378533  0.55923931  0.81430762  1
  Zn  Zn151  1  0.55889883  0.06281081  0.31705964  1
  Zn  Zn152  1  0.56618999  0.06016479  0.81677385  1
  Zn  Zn153  1  0.56096868  0.56541038  0.31093161  1
  Zn  Zn154  1  0.56356157  0.56564907  0.81125121  1
  Zn  Zn155  1  0.38295362  0.16732861  0.45981736  1
  Zn  Zn156  1  0.43851505  0.18642094  0.93571052  1
  Zn  Zn157  1  0.43956698  0.68449601  0.43649680  1
  Zn  Zn158  1  0.43598782  0.68815642  0.93614498  1
  Zn  Zn159  1  0.94640960  0.18995235  0.42548112  1
  Zn  Zn160  1  0.93581256  0.18589381  0.93971090  1
  Zn  Zn161  1  0.93882780  0.68274967  0.43853961  1
  Zn  Zn162  1  0.93344056  0.68591919  0.93792945  1
  Zn  Zn163  1  0.06269799  0.31043605  0.06577711  1
  Zn  Zn164  1  0.06830709  0.30975018  0.55191198  1
  Zn  Zn165  1  0.05954894  0.81179065  0.06133136  1
  Zn  Zn166  1  0.06208824  0.81217002  0.56318025  1
  Zn  Zn167  1  0.56274817  0.31304570  0.06427509  1
  Zn  Zn168  1  0.56188395  0.31374154  0.55955333  1
  Zn  Zn169  1  0.56093239  0.81051684  0.06311617  1
  Zn  Zn170  1  0.56457591  0.81253065  0.56763560  1
  O  O171  1  0.13045884  0.10860301  0.12170186  1
  O  O172  1  0.11400176  0.11499472  0.62352911  1
  O  O173  1  0.11474238  0.62593340  0.11664283  1
  O  O174  1  0.11648293  0.61997441  0.61912917  1
  O  O175  1  0.61801593  0.12817813  0.11387303  1
  O  O176  1  0.61718028  0.11571959  0.61961858  1
  O  O177  1  0.61599983  0.61249467  0.13207184  1
  O  O178  1  0.62698186  0.61506073  0.61766848  1
  O  O179  1  0.38275871  0.38704927  0.38269863  1
  O  O180  1  0.38383368  0.39002290  0.87810149  1
  O  O181  1  0.38822173  0.88014863  0.36836583  1
  O  O182  1  0.36734299  0.88249632  0.88847002  1
  O  O183  1  0.87413877  0.39163843  0.38748536  1
  O  O184  1  0.88003963  0.38399746  0.88043258  1
  O  O185  1  0.87093343  0.88110774  0.38824074  1
  O  O186  1  0.88705728  0.87199487  0.88297944  1
  O  O187  1  0.26016125  -0.00857578  0.36697019  1
  O  O188  1  0.25878346  0.01027080  0.88216611  1
  O  O189  1  0.25825706  0.50300419  0.36628278  1
  O  O190  1  0.25534955  0.51279401  0.87159850  1
  O  O191  1  0.75822062  0.00764394  0.37565070  1
  O  O192  1  0.74744802  0.01099670  0.86531669  1
  O  O193  1  0.75629628  0.50147557  0.36515439  1
  O  O194  1  0.75648855  0.50522262  0.86867654  1
  O  O195  1  0.24969121  0.50454002  0.13873811  1
  O  O196  1  0.24083289  0.50945594  0.63508707  1
  O  O197  1  0.24504987  0.98995613  0.13044905  1
  O  O198  1  0.23154109  0.99529031  0.61949591  1
  O  O199  1  0.73898376  0.49932266  0.13568602  1
  O  O200  1  0.74627886  0.49908443  0.63286883  1
  O  O201  1  0.74579043  0.99139366  0.12782831  1
  O  O202  1  0.74588692  0.99590908  0.63166655  1
  O  O203  1  0.00682499  0.36828730  0.24912777  1
  O  O204  1  0.00478026  0.36790207  0.75594745  1
  O  O205  1  -0.00307363  0.85831703  0.24474515  1
  O  O206  1  0.00399228  0.87773460  0.76429833  1
  O  O207  1  0.49370760  0.37188520  0.26356970  1
  O  O208  1  0.50590931  0.36715565  0.75388487  1
  O  O209  1  0.50954316  0.87360585  0.25809116  1
  O  O210  1  0.51256711  0.86372853  0.75229081  1
  O  O211  1  0.49460312  0.12670638  0.24247306  1
  O  O212  1  0.49926816  0.12950534  0.74673554  1
  O  O213  1  0.48840350  0.62408533  0.24134248  1
  O  O214  1  0.50097350  0.63896063  0.74895146  1
  O  O215  1  0.99420217  0.13763603  0.24285616  1
  O  O216  1  0.99051011  0.13106785  0.74153116  1
  O  O217  1  0.98828350  0.63423580  0.24279460  1
  O  O218  1  1.00517108  0.62391984  0.73644479  1
  O  O219  1  0.37190505  0.25316309  0.00470873  1
  O  O220  1  0.38071934  0.27053358  0.50614977  1
  O  O221  1  0.36739951  0.75848202  0.00086193  1
  O  O222  1  0.35884336  0.74481252  0.49440382  1
  O  O223  1  0.86126819  0.26167349  -0.01053737  1
  O  O224  1  0.87947892  0.26339488  0.49066930  1
  O  O225  1  0.86783108  0.75416166  0.00749734  1
  O  O226  1  0.87030955  0.75525638  0.50345166  1
  O  O227  1  0.13925693  0.24116820  0.49783674  1
  O  O228  1  0.13485087  0.24542890  0.98557595  1
  O  O229  1  0.12870432  0.74516689  0.49278001  1
  O  O230  1  0.12877483  0.74493809  0.99085002  1
  O  O231  1  0.61988448  0.24170627  0.48783664  1
  O  O232  1  0.62994748  0.24240479  0.99480636  1
  O  O233  1  0.63301931  0.74396934  0.49664861  1
  O  O234  1  0.64202191  0.75833320  1.00097571  1
  O  O235  1  0.49685295  0.23949067  0.13088604  1
  O  O236  1  0.50784864  0.24168443  0.63533991  1
  O  O237  1  0.49804256  0.74041437  0.12834234  1
  O  O238  1  0.50311344  0.74975786  0.64034374  1
  O  O239  1  1.01459235  0.25163118  0.14560543  1
  O  O240  1  1.00786179  0.24117730  0.63244866  1
  O  O241  1  0.98845931  0.74288094  0.13012556  1
  O  O242  1  0.99434176  0.73648230  0.62053067  1
  O  O243  1  0.01673130  0.24948885  0.36121574  1
  O  O244  1  0.00411438  0.25572635  0.86581755  1
  O  O245  1  0.00602889  0.74398558  0.36684972  1
  O  O246  1  0.00691732  0.75412925  0.87710552  1
  O  O247  1  0.50675470  0.26038021  0.36803915  1
  O  O248  1  0.50773918  0.25387204  0.86891470  1
  O  O249  1  0.50737451  0.75742236  0.37551488  1
  O  O250  1  0.50560032  0.74666274  0.86480034  1
  O  O251  1  0.27658705  0.14265523  0.51042225  1
  O  O252  1  0.25141770  0.13347016  0.98943588  1
  O  O253  1  0.23759893  0.63432702  0.49728202  1
  O  O254  1  0.24284318  0.63174344  0.99454902  1
  O  O255  1  0.74304416  0.12532563  0.49033797  1
  O  O256  1  0.74541288  0.13039709  0.99317884  1
  O  O257  1  0.74027074  0.63203792  0.50350777  1
  O  O258  1  0.75635169  0.63346968  0.99229191  1
  O  O259  1  0.27026168  0.35765950  -0.01926667  1
  O  O260  1  0.26772151  0.37735398  0.50423728  1
  O  O261  1  0.25492810  0.87013189  0.00693402  1
  O  O262  1  0.24264459  0.86022094  0.50042013  1
  O  O263  1  0.75569503  0.36592737  0.00179728  1
  O  O264  1  0.76749158  0.37405101  0.50269835  1
  O  O265  1  0.76552012  0.86621539  -0.00346492  1
  O  O266  1  0.75652299  0.86806605  0.50662424  1
  O  O267  1  0.14085191  0.50480927  0.24944990  1
  O  O268  1  0.13149993  0.49612141  0.74253723  1
  O  O269  1  0.13200115  0.99987449  0.24316615  1
  O  O270  1  0.11567102  0.99064933  0.73871799  1
  O  O271  1  0.63779038  0.50472990  0.24773677  1
  O  O272  1  0.63169058  0.49648366  0.74209994  1
  O  O273  1  0.62399209  0.98489010  0.26033985  1
  O  O274  1  0.63426547  0.99294786  0.74710677  1
  O  O275  1  0.36969921  0.00403917  0.25563676  1
  O  O276  1  0.38703137  0.00343819  0.76786360  1
  O  O277  1  0.36789159  0.50613556  0.25575462  1
  O  O278  1  0.36767621  0.50399522  0.75741359  1
  O  O279  1  0.87346719  -0.00726203  0.26515565  1
  O  O280  1  0.86494506  0.00749090  0.74416824  1
  O  O281  1  0.86680759  0.50508496  0.26035365  1
  O  O282  1  0.86629306  0.49324998  0.75850552  1
  O  O283  1  0.13066198  0.35356544  0.38908063  1
  O  O284  1  0.11570447  0.36575984  0.87130598  1
  O  O285  1  0.12352393  0.86271364  0.37079779  1
  O  O286  1  0.11280048  0.87058000  0.87152445  1
  O  O287  1  0.61744357  0.36730549  0.38189307  1
  O  O288  1  0.62020566  0.37094899  0.86923932  1
  O  O289  1  0.61660729  0.86553763  0.37047890  1
  O  O290  1  0.63527204  0.87345580  0.86499439  1
  O  O291  1  0.38224339  0.12930192  0.13349061  1
  O  O292  1  0.38626594  0.11032432  0.64311573  1
  O  O293  1  0.38223880  0.62554683  0.13167465  1
  O  O294  1  0.37959596  0.63584728  0.62755020  1
  O  O295  1  0.86904966  0.13353818  0.13111186  1
  O  O296  1  0.88146275  0.12301843  0.63507125  1
  O  O297  1  0.87940906  0.62986397  0.13161184  1
  O  O298  1  0.89055927  0.63056797  0.61941753  1
  O  O299  1  0.25515073  0.24276718  0.11103866  1
  O  O300  1  0.24581230  0.26421399  0.65726984  1
  O  O301  1  0.24820529  0.76174252  0.12186913  1
  O  O302  1  0.24548397  0.75094524  0.60929629  1
  O  O303  1  0.74050478  0.25367010  0.11439302  1
  O  O304  1  0.74289374  0.25540416  0.61939497  1
  O  O305  1  0.76059945  0.75244104  0.12051693  1
  O  O306  1  0.75727328  0.75239676  0.61545980  1
  O  O307  1  0.24715534  0.24659771  0.36976875  1
  O  O308  1  0.24099574  0.23711085  0.86973927  1
  O  O309  1  0.24088930  0.74821641  0.38368972  1
  O  O310  1  0.24201635  0.73945634  0.87823270  1
  O  O311  1  0.74235454  0.24393974  0.37989015  1
  O  O312  1  0.74230531  0.24337370  0.88018710  1
  O  O313  1  0.74289763  0.75440199  0.38892456  1
  O  O314  1  0.75237335  0.73940635  0.88238389  1
  O  O315  1  0.00212893  0.13207489  0.00766135  1
  O  O316  1  -0.00982003  0.11932321  0.50969037  1
  O  O317  1  0.00492270  0.63259845  0.01203210  1
  O  O318  1  0.01302393  0.62220877  0.50608774  1
  O  O319  1  0.50816650  0.11965772  0.00639297  1
  O  O320  1  0.49495808  0.11275012  0.50836778  1
  O  O321  1  0.49433882  0.62311602  0.01285322  1
  O  O322  1  0.51396109  0.62038337  0.50093224  1
  O  O323  1  0.49424967  0.38416407  0.49100836  1
  O  O324  1  0.49121041  0.37515596  0.99217369  1
  O  O325  1  0.50776177  0.88425293  0.49317551  1
  O  O326  1  0.49149924  0.88379066  1.00625013  1
  O  O327  1  0.99004653  0.37955196  0.50088076  1
  O  O328  1  0.98830255  0.36456880  0.98663113  1
  O  O329  1  0.99307394  0.88621668  0.50349097  1
  O  O330  1  0.98799903  0.87039123  0.98871525  1
  O  O331  1  0.49501801  0.49556000  0.37934042  1
  O  O332  1  0.49251715  0.49812499  0.87524204  1
  O  O333  1  0.49206731  0.99140471  0.38332774  1
  O  O334  1  0.49241038  1.00556754  0.89007449  1
  O  O335  1  0.98799640  0.50545157  0.37274008  1
  O  O336  1  0.99137279  0.48899893  0.86877350  1
  O  O337  1  0.99440435  1.00885851  0.38534524  1
  O  O338  1  1.00067833  0.98936103  0.87599809  1
  O  O339  1  0.01367398  -0.00143992  0.12978652  1
  O  O340  1  0.00623538  0.00678418  0.61294803  1
  O  O341  1  0.00124950  0.51137023  0.13474926  1
  O  O342  1  0.00880245  0.51250527  0.62245245  1
  O  O343  1  0.49438646  0.01181734  0.11515365  1
  O  O344  1  0.50688913  0.00010919  0.61940765  1
  O  O345  1  0.51233392  0.50511758  0.12443632  1
  O  O346  1  0.51131030  0.50565560  0.61909595  1
  O  O347  1  0.25889540  0.39030640  0.24769614  1
  O  O348  1  0.24036553  0.39361480  0.76343701  1
  O  O349  1  0.24845943  0.88445962  0.24190346  1
  O  O350  1  0.23386550  0.87468600  0.75301292  1
  O  O351  1  0.75423676  0.39087105  0.25159249  1
  O  O352  1  0.74346410  0.38485516  0.74972956  1
  O  O353  1  0.73458017  0.87477494  0.25341043  1
  O  O354  1  0.74905061  0.88214218  0.74660800  1
  O  O355  1  0.26000041  0.11029321  0.24199523  1
  O  O356  1  0.26254259  0.12076184  0.75797103  1
  O  O357  1  0.26196815  0.62104408  0.25096747  1
  O  O358  1  0.24873230  0.61817924  0.75837060  1
  O  O359  1  0.75126767  0.12376043  0.26436241  1
  O  O360  1  0.75477887  0.11916906  0.75476870  1
  O  O361  1  0.76087574  0.61456020  0.24581233  1
  O  O362  1  0.74814509  0.61334699  0.75801676  1
  O  O363  1  0.38215226  0.11039221  0.36129360  1
  O  O364  1  0.36984034  0.11696333  0.86978208  1
  O  O365  1  0.37670793  0.61346606  0.36776631  1
  O  O366  1  0.36614087  0.61616696  0.87504322  1
  O  O367  1  0.86712572  0.11725127  0.37430456  1
  O  O368  1  0.86299391  0.13109612  0.86221687  1
  O  O369  1  0.87480660  0.61458654  0.36801822  1
  O  O370  1  0.86820245  0.61176755  0.87754104  1
  O  O371  1  0.13945839  0.38913353  0.07347847  1
  O  O372  1  0.11663507  0.38950405  0.62963487  1
  O  O373  1  0.13010979  0.88298980  0.12702537  1
  O  O374  1  0.12133569  0.88035184  0.63495624  1
  O  O375  1  0.62445132  0.39033312  0.12687410  1
  O  O376  1  0.62413847  0.38852676  0.62811622  1
  O  O377  1  0.62267228  0.86868320  0.14298392  1
  O  O378  1  0.63515335  0.87949756  0.63511021  1
  O  O379  1  0.12588729  0.25100849  0.26115992  1
  O  O380  1  0.11168869  0.24999158  0.76031294  1
  O  O381  1  0.11494180  0.74833012  0.25771271  1
  O  O382  1  0.12555820  0.75884047  0.75978756  1
  O  O383  1  0.61907818  0.24454576  0.26366256  1
  O  O384  1  0.61672757  0.25357454  0.75730400  1
  O  O385  1  0.62465089  0.75577065  0.25983381  1
  O  O386  1  0.62029907  0.75720200  0.75396309  1
  O  O387  1  0.38085461  0.24117232  0.24671534  1
  O  O388  1  0.39124671  0.23482123  0.75928777  1
  O  O389  1  0.37658133  0.74089980  0.24906759  1
  O  O390  1  0.38887641  0.75143368  0.75634753  1
  O  O391  1  0.89263456  0.25888451  0.26278995  1
  O  O392  1  0.88477537  0.24510248  0.75208603  1
  O  O393  1  0.87586529  0.74336048  0.24571344  1
  O  O394  1  0.86968257  0.75367738  0.73419899  1
  O  O395  1  0.37988565  0.49837051  0.49296874  1
  O  O396  1  0.37527452  0.49145860  0.99414601  1
  O  O397  1  0.38175886  0.99843199  0.48973047  1
  O  O398  1  0.38165566  0.99491149  0.99377898  1
  O  O399  1  0.87856187  0.49984180  0.48785428  1
  O  O400  1  0.86831686  0.48988718  0.98922617  1
  O  O401  1  0.88135509  0.99265766  0.49193023  1
  O  O402  1  0.87164402  0.98533748  0.99968960  1
  O  O403  1  0.12912299  -0.00167836  0.01470187  1
  O  O404  1  0.11910422  0.00742202  0.50194171  1
  O  O405  1  0.12263086  0.52099757  -0.01423076  1
  O  O406  1  0.12833711  0.50731474  0.50560484  1
  O  O407  1  0.61763629  0.00817251  -0.00513966  1
  O  O408  1  0.61612847  0.00524751  0.50285734  1
  O  O409  1  0.62641441  0.49870824  0.01366887  1
  O  O410  1  0.62522717  0.50689481  0.50455737  1
  O  O411  1  0.38302121  0.36653552  0.11391656  1
  O  O412  1  0.38368176  0.38555151  0.61344611  1
  O  O413  1  0.36657163  0.87538620  0.11518028  1
  O  O414  1  0.36964513  0.86976843  0.62806249  1
  O  O415  1  0.87087001  0.38257333  0.11179810  1
  O  O416  1  0.87809014  0.38283513  0.60831030  1
  O  O417  1  0.87675845  0.86678067  0.11219939  1
  O  O418  1  0.87319148  0.86826596  0.61506145  1
  O  O419  1  0.12777676  0.14017637  0.37977822  1
  O  O420  1  0.13160424  0.12765303  0.87296302  1
  O  O421  1  0.12523633  0.63468116  0.38172540  1
  O  O422  1  0.12841946  0.63391498  0.87718343  1
  O  O423  1  0.62982717  0.12977280  0.38105114  1
  O  O424  1  0.63462708  0.12974942  0.88430830  1
  O  O425  1  0.62121661  0.63811413  0.38136851  1
  O  O426  1  0.63903693  0.62424248  0.87669559  1
