# generated using pymatgen
data_V85Zn86O256
_symmetry_space_group_name_H-M   'P 1'
_cell_length_a   16.98073029
_cell_length_b   16.96755542
_cell_length_c   16.95071305
_cell_angle_alpha   89.90581483
_cell_angle_beta   90.07722872
_cell_angle_gamma   89.93546599
_symmetry_Int_Tables_number   1
_chemical_formula_structural   V85Zn86O256
_chemical_formula_sum   'V85 Zn86 O256'
_cell_volume   4883.85042228
_cell_formula_units_Z   1
loop_
 _symmetry_equiv_pos_site_id
 _symmetry_equiv_pos_as_xyz
  1  'x, y, z'
loop_
 _atom_site_type_symbol
 _atom_site_label
 _atom_site_symmetry_multiplicity
 _atom_site_fract_x
 _atom_site_fract_y
 _atom_site_fract_z
 _atom_site_occupancy
  V  V0  1  0.37220402  0.38262881  0.00321667  1
  V  V1  1  0.74925693  0.61006268  0.87351772  1
  V  V2  1  0.49686645  0.12689980  0.11155856  1
  V  V3  1  0.76041103  0.63007411  0.38038283  1
  V  V4  1  0.37189529  -0.00316327  0.87518515  1
  V  V5  1  -0.00813297  0.63159365  0.12307067  1
  V  V6  1  0.24979922  0.62902851  0.87198695  1
  V  V7  1  0.50076352  0.00050127  -0.00190336  1
  V  V8  1  0.24692236  0.00201881  0.75150907  1
  V  V9  1  0.62582506  0.25015737  0.37405785  1
  V  V10  1  0.50328070  0.86812772  0.87747648  1
  V  V11  1  0.00347413  0.74940372  0.75163803  1
  V  V12  1  0.15047441  0.12490821  -0.00369556  1
  V  V13  1  0.25220244  0.87708564  0.13667424  1
  V  V14  1  0.37162898  0.12258924  0.75169817  1
  V  V15  1  0.00040289  0.62476019  0.62004543  1
  V  V16  1  0.37204681  0.87981219  0.49364389  1
  V  V17  1  0.49922341  0.38118911  0.87449703  1
  V  V18  1  0.24597217  0.37974199  0.13739423  1
  V  V19  1  0.62606632  0.49533778  0.62348662  1
  V  V20  1  0.75411820  0.24698020  0.50374693  1
  V  V21  1  0.81160168  0.42106846  0.56494413  1
  V  V22  1  0.87471266  0.75386876  0.62693207  1
  V  V23  1  0.12868611  0.00036403  0.13198275  1
  V  V24  1  0.25543882  0.12102608  0.35701041  1
  V  V25  1  0.48440109  0.74835828  0.24685711  1
  V  V26  1  0.25128278  0.74991007  0.00894647  1
  V  V27  1  0.11514710  0.87324680  0.25936204  1
  V  V28  1  0.24798248  0.37125385  0.62366121  1
  V  V29  1  0.12977311  0.35968496  0.76595964  1
  V  V30  1  0.62529067  0.87279950  0.75237411  1
  V  V31  1  0.62666931  0.63586145  0.49907564  1
  V  V32  1  0.25028551  0.50262054  0.74892414  1
  V  V33  1  0.00155967  -0.00308614  0.48985924  1
  V  V34  1  0.24613018  0.87905081  0.62060640  1
  V  V35  1  0.12324165  0.88704024  0.74769454  1
  V  V36  1  0.75059255  0.00079395  0.24902898  1
  V  V37  1  0.76029054  0.50093566  0.25594272  1
  V  V38  1  0.12329092  0.61995709  0.00061857  1
  V  V39  1  0.50319610  0.74998772  0.75202976  1
  V  V40  1  0.62476479  0.12354037  0.49763272  1
  V  V41  1  0.11965156  0.49810553  0.62380431  1
  V  V42  1  0.87976885  0.86739695  0.00429521  1
  V  V43  1  0.75204806  0.37909444  0.11898923  1
  V  V44  1  0.87337980  0.25348086  0.12208236  1
  V  V45  1  0.62442246  0.51101653  0.12471321  1
  V  V46  1  0.74996270  0.87276411  0.61905223  1
  V  V47  1  0.62519450  0.37758250  0.24786503  1
  V  V48  1  0.75060335  0.00306258  0.74936490  1
  V  V49  1  0.62756431  0.37175758  0.74737017  1
  V  V50  1  0.87260022  0.00126302  0.87782354  1
  V  V51  1  0.12103531  0.73681829  0.39197489  1
  V  V52  1  0.00507096  0.11841041  0.62653266  1
  V  V53  1  0.87994889  0.24357235  0.62307638  1
  V  V54  1  0.49516521  0.37961339  0.37651892  1
  V  V55  1  -0.01324842  0.37913882  0.38241345  1
  V  V56  1  0.62421994  0.00037983  0.62390057  1
  V  V57  1  0.49953886  0.24166664  0.24859768  1
  V  V58  1  -0.01187701  0.48711539  -0.01457319  1
  V  V59  1  0.87727796  0.12628665  0.25039051  1
  V  V60  1  0.62694360  0.86977326  0.25120799  1
  V  V61  1  0.12285874  0.49517029  0.13604170  1
  V  V62  1  0.74302407  0.75257242  -0.01405393  1
  V  V63  1  0.12558480  0.75310464  0.87468009  1
  V  V64  1  0.37454517  0.24826363  0.61909486  1
  V  V65  1  0.61469704  0.24288053  0.88052258  1
  V  V66  1  0.75488568  0.86397599  0.12673837  1
  V  V67  1  0.49923181  0.12437205  0.62378138  1
  V  V68  1  0.37681374  0.62714708  0.74893610  1
  V  V69  1  0.34639964  0.59798058  0.25859560  1
  V  V70  1  0.00100932  0.26188321  0.24650657  1
  V  V71  1  0.00178194  0.87961879  0.87583181  1
  V  V72  1  0.37126935  0.25053721  0.12713846  1
  V  V73  1  0.25153407  0.24581717  0.49695073  1
  V  V74  1  0.73830241  0.11933062  0.88431848  1
  V  V75  1  0.62623824  0.00560098  0.11996185  1
  V  V76  1  0.50641068  0.62856052  0.62394108  1
  V  V77  1  0.49769597  0.25175991  0.74910957  1
  V  V78  1  0.12483194  0.25577739  0.36743413  1
  V  V79  1  -0.00094103  0.01109233  0.00298222  1
  V  V80  1  0.87661457  0.87357670  0.49354070  1
  V  V81  1  0.37241823  0.74976390  0.61116202  1
  V  V82  1  0.37295287  0.87208603  0.00536673  1
  V  V83  1  0.73748343  0.24609270  0.00428729  1
  V  V84  1  0.12504927  0.11999319  0.49711673  1
  Zn  Zn85  1  0.37659511  0.00281156  0.35932119  1
  Zn  Zn86  1  0.24078121  0.25931303  -0.01769369  1
  Zn  Zn87  1  0.87901504  -0.00525349  0.36983915  1
  Zn  Zn88  1  0.50008461  0.50628196  0.00356654  1
  Zn  Zn89  1  0.62643104  0.75147560  0.37656072  1
  Zn  Zn90  1  0.61686042  0.63271656  -0.00531198  1
  Zn  Zn91  1  -0.02279831  0.28539296  0.80476103  1
  Zn  Zn92  1  -0.00774878  0.49875319  0.49799286  1
  Zn  Zn93  1  -0.00909008  0.75641929  0.25275792  1
  Zn  Zn94  1  0.75167681  0.12446676  0.37389688  1
  Zn  Zn95  1  0.75846342  0.48528390  0.75466625  1
  Zn  Zn96  1  0.50149908  0.87703828  0.37441483  1
  Zn  Zn97  1  0.19299918  0.59547919  0.45985916  1
  Zn  Zn98  1  0.88141761  0.60904245  0.76183162  1
  Zn  Zn99  1  0.49970241  0.50577798  0.49039335  1
  Zn  Zn100  1  0.88343530  0.12873939  0.75741507  1
  Zn  Zn101  1  0.00429481  0.12994360  0.12564633  1
  Zn  Zn102  1  0.33792142  0.43175832  0.45469255  1
  Zn  Zn103  1  0.49642968  0.00134515  0.49366760  1
  Zn  Zn104  1  0.87568562  0.62960605  0.24804311  1
  Zn  Zn105  1  0.37848469  0.50406681  0.87358814  1
  Zn  Zn106  1  0.48592915  0.63077900  0.12585351  1
  Zn  Zn107  1  0.18294368  0.19619835  0.17878802  1
  Zn  Zn108  1  0.18617810  0.18148385  0.68550789  1
  Zn  Zn109  1  0.18280507  0.68757569  0.19085360  1
  Zn  Zn110  1  0.20291191  0.67456525  0.64681011  1
  Zn  Zn111  1  0.68410003  0.18571548  0.18695495  1
  Zn  Zn112  1  0.68862710  0.18817536  0.68729605  1
  Zn  Zn113  1  0.69476984  0.68749775  0.18883154  1
  Zn  Zn114  1  0.68991140  0.68714501  0.69283960  1
  Zn  Zn115  1  0.31385771  0.31139007  0.30847347  1
  Zn  Zn116  1  0.31357437  0.31377419  0.81224898  1
  Zn  Zn117  1  0.30305707  0.80503823  0.31836921  1
  Zn  Zn118  1  0.31293111  0.81264263  0.80981273  1
  Zn  Zn119  1  0.81072991  0.31241406  0.31163423  1
  Zn  Zn120  1  0.80716827  0.30732086  0.81778617  1
  Zn  Zn121  1  0.81432613  0.80506917  0.31119653  1
  Zn  Zn122  1  0.81645553  0.81644958  0.81090453  1
  Zn  Zn123  1  0.17302053  0.42999525  0.43895476  1
  Zn  Zn124  1  0.18956603  0.44219923  0.93903937  1
  Zn  Zn125  1  0.19004188  0.93959222  0.43559101  1
  Zn  Zn126  1  0.18742291  0.94391743  0.94051372  1
  Zn  Zn127  1  0.68023506  0.44452062  0.43160024  1
  Zn  Zn128  1  0.68226914  0.43428167  0.94259645  1
  Zn  Zn129  1  0.69032593  0.93851806  0.43503162  1
  Zn  Zn130  1  0.68445146  0.93285656  0.93883612  1
  Zn  Zn131  1  0.31414113  0.06335139  0.17985885  1
  Zn  Zn132  1  0.31041056  0.05917194  0.56149001  1
  Zn  Zn133  1  0.31110597  0.56429870  0.07126051  1
  Zn  Zn134  1  0.32018733  0.56202710  0.55820212  1
  Zn  Zn135  1  0.81335742  0.06358728  0.06386518  1
  Zn  Zn136  1  0.81586274  0.06092411  0.56037753  1
  Zn  Zn137  1  0.81256768  0.56148684  0.05509611  1
  Zn  Zn138  1  0.81397305  0.58418488  0.56622595  1
  Zn  Zn139  1  0.43619404  0.44187759  0.19290108  1
  Zn  Zn140  1  0.42655103  0.44801011  0.65922337  1
  Zn  Zn141  1  0.44097031  0.93334010  0.18719188  1
  Zn  Zn142  1  0.43632954  0.93584368  0.68386394  1
  Zn  Zn143  1  0.93881904  0.44040901  0.18025644  1
  Zn  Zn144  1  0.94440070  0.43642210  0.69965036  1
  Zn  Zn145  1  0.93805037  0.93949543  0.18475706  1
  Zn  Zn146  1  0.93836325  0.94425915  0.68427881  1
  Zn  Zn147  1  0.06407461  0.06678151  0.31003730  1
  Zn  Zn148  1  0.05463421  0.09022291  0.83075832  1
  Zn  Zn149  1  0.05815806  0.56150134  0.31163875  1
  Zn  Zn150  1  0.06558975  0.56132901  0.80982775  1
  Zn  Zn151  1  0.56098355  0.05982371  0.31049429  1
  Zn  Zn152  1  0.55811600  0.05893722  0.81106656  1
  Zn  Zn153  1  0.56591433  0.56606841  0.30985672  1
  Zn  Zn154  1  0.57155764  0.56239371  0.81130305  1
  Zn  Zn155  1  0.43734857  0.18820088  0.43482939  1
  Zn  Zn156  1  0.40353714  0.19889384  0.92792883  1
  Zn  Zn157  1  0.43935955  0.68790800  0.42756747  1
  Zn  Zn158  1  0.43551576  0.68793188  0.93906055  1
  Zn  Zn159  1  0.93826882  0.18901970  0.43526000  1
  Zn  Zn160  1  0.92408886  0.20567643  0.93306176  1
  Zn  Zn161  1  0.94179369  0.69409358  0.43746334  1
  Zn  Zn162  1  0.93519320  0.68523936  0.93875829  1
  Zn  Zn163  1  0.06476477  0.31155742  0.05506474  1
  Zn  Zn164  1  0.06240504  0.30751378  0.56157140  1
  Zn  Zn165  1  0.06647807  0.81340521  0.06361006  1
  Zn  Zn166  1  0.06063602  0.81749485  0.56500738  1
  Zn  Zn167  1  0.56031441  0.31854425  0.06297388  1
  Zn  Zn168  1  0.56443229  0.31166351  0.56079796  1
  Zn  Zn169  1  0.56432459  0.81299438  0.06829150  1
  Zn  Zn170  1  0.55834046  0.81595690  0.56198084  1
  O  O171  1  0.12339994  0.11568188  0.11883516  1
  O  O172  1  0.11371444  0.12828234  0.61263123  1
  O  O173  1  0.11788701  0.61516367  0.11759525  1
  O  O174  1  0.10984424  0.61086700  0.63915771  1
  O  O175  1  0.61703456  0.11181050  0.12753184  1
  O  O176  1  0.62005924  0.12126454  0.61726740  1
  O  O177  1  0.63124987  0.61619341  0.12312235  1
  O  O178  1  0.62814492  0.61801432  0.61912624  1
  O  O179  1  0.38989764  0.36694913  0.37603742  1
  O  O180  1  0.38414405  0.38350620  0.88224991  1
  O  O181  1  0.36764976  0.87266143  0.38687194  1
  O  O182  1  0.38298836  0.87961049  0.87835343  1
  O  O183  1  0.88826557  0.36706588  0.37641417  1
  O  O184  1  0.89588619  0.30923509  0.88055840  1
  O  O185  1  0.86537371  0.87259551  0.39064125  1
  O  O186  1  0.88180772  0.88328273  0.88300100  1
  O  O187  1  0.24974618  0.01986356  0.37397246  1
  O  O188  1  0.26285059  -0.01084856  0.86598801  1
  O  O189  1  0.25593481  0.50433064  0.42890993  1
  O  O190  1  0.25117760  0.50885335  0.86200169  1
  O  O191  1  0.75290078  0.00218907  0.35952551  1
  O  O192  1  0.74956581  0.00173312  0.86971774  1
  O  O193  1  0.74633382  0.51166932  0.36603822  1
  O  O194  1  0.74878004  0.50774996  0.88027370  1
  O  O195  1  0.23098980  0.49398233  0.11862056  1
  O  O196  1  0.24239340  0.48814253  0.63340115  1
  O  O197  1  0.23854887  0.99052192  0.12548300  1
  O  O198  1  0.25423802  0.98796812  0.63552725  1
  O  O199  1  0.74531349  0.49443728  0.12764032  1
  O  O200  1  0.75035588  0.48883666  0.61912897  1
  O  O201  1  0.74405405  0.99499817  0.13229693  1
  O  O202  1  0.74587673  0.99563173  0.63230732  1
  O  O203  1  -0.00826810  0.36590427  0.25688308  1
  O  O204  1  0.02379231  0.36814315  0.74626838  1
  O  O205  1  0.01148517  0.87651905  0.24573549  1
  O  O206  1  0.00718950  0.87643520  0.75303304  1
  O  O207  1  0.50597916  0.36673509  0.25826272  1
  O  O208  1  0.50852315  0.37003607  0.75680792  1
  O  O209  1  0.51141185  0.86504217  0.24870409  1
  O  O210  1  0.50307207  0.86850115  0.75589085  1
  O  O211  1  0.50771546  0.13808060  0.24096186  1
  O  O212  1  0.49366568  0.13033768  0.74190058  1
  O  O213  1  0.50613622  0.64295391  0.24796286  1
  O  O214  1  0.49989924  0.63343396  0.74712825  1
  O  O215  1  0.99235362  0.13704812  0.24721567  1
  O  O216  1  1.00145817  0.10352041  0.72754533  1
  O  O217  1  0.99792914  0.62119362  0.23240405  1
  O  O218  1  0.99801781  0.63604255  0.74777397  1
  O  O219  1  0.38668182  0.26984665  0.01884471  1
  O  O220  1  0.36806194  0.24339174  0.51081180  1
  O  O221  1  0.36347328  0.76152055  -0.00628680  1
  O  O222  1  0.38173231  0.75576453  0.50789130  1
  O  O223  1  0.85525118  0.23632880  0.01941982  1
  O  O224  1  0.86675550  0.24372510  0.50891111  1
  O  O225  1  0.86616278  0.76337666  -0.00344839  1
  O  O226  1  0.88270780  0.75929371  0.51759545  1
  O  O227  1  0.13173600  0.23944994  0.49001339  1
  O  O228  1  0.12825820  0.23087763  1.00316508  1
  O  O229  1  0.11814169  0.75278240  0.49127445  1
  O  O230  1  0.13100433  0.74089513  0.99407897  1
  O  O231  1  0.63200103  0.23953590  0.49744213  1
  O  O232  1  0.63031088  0.25039605  0.99936176  1
  O  O233  1  0.62234653  0.73927129  0.50326940  1
  O  O234  1  0.63988932  0.75356337  1.00227562  1
  O  O235  1  0.49837233  0.24421279  0.13032998  1
  O  O236  1  0.49142980  0.24655851  0.62663631  1
  O  O237  1  0.50336759  0.75053044  0.14112704  1
  O  O238  1  0.49212371  0.74764093  0.63203493  1
  O  O239  1  0.99019768  0.25393545  0.12855011  1
  O  O240  1  0.99314624  0.23277881  0.61698508  1
  O  O241  1  1.00627263  0.73326980  0.12062572  1
  O  O242  1  0.99753725  0.74392569  0.63365489  1
  O  O243  1  0.00615861  0.25639198  0.36691849  1
  O  O244  1  0.00303477  0.18929258  0.85504929  1
  O  O245  1  0.01458860  0.74922172  0.36999914  1
  O  O246  1  0.00343296  0.75825241  0.87044762  1
  O  O247  1  0.50578013  0.25474517  0.36643037  1
  O  O248  1  0.49813197  0.25877053  0.87055345  1
  O  O249  1  0.50700395  0.75654894  0.36045134  1
  O  O250  1  0.49520990  0.76043779  0.86753620  1
  O  O251  1  0.24278961  0.13225919  0.49614626  1
  O  O252  1  0.24661221  0.12696030  1.01161020  1
  O  O253  1  0.24864603  0.64384239  0.54399267  1
  O  O254  1  0.24460438  0.63274801  0.99669374  1
  O  O255  1  0.74339564  0.13031784  0.49674794  1
  O  O256  1  0.74399557  0.12789825  0.99475904  1
  O  O257  1  0.74218914  0.62145612  0.48837504  1
  O  O258  1  0.75040987  0.63908588  0.99050747  1
  O  O259  1  0.25829556  0.37553160  0.00531174  1
  O  O260  1  0.24889927  0.35841032  0.50700444  1
  O  O261  1  0.25498217  0.86946132  0.00746152  1
  O  O262  1  0.25534078  0.88094738  0.50994540  1
  O  O263  1  0.74451248  0.36306946  0.00996517  1
  O  O264  1  0.74944411  0.37012859  0.49952695  1
  O  O265  1  0.75659600  0.86737832  0.00480232  1
  O  O266  1  0.75645377  0.88210074  0.51383287  1
  O  O267  1  0.11737139  0.49762938  0.23425084  1
  O  O268  1  0.13338451  0.48904114  0.74333990  1
  O  O269  1  0.11931267  0.99051026  0.24122430  1
  O  O270  1  0.13155686  0.99096893  0.75879798  1
  O  O271  1  0.63568755  0.49647123  0.24259530  1
  O  O272  1  0.63639415  0.49060448  0.74080358  1
  O  O273  1  0.63230354  0.99127217  0.24249664  1
  O  O274  1  0.63053868  0.99324409  0.74287139  1
  O  O275  1  0.37181614  -0.00447117  0.24642475  1
  O  O276  1  0.36796439  -0.00039646  0.75511988  1
  O  O277  1  0.36366184  0.49817566  0.26032640  1
  O  O278  1  0.36586479  0.50775154  0.74426103  1
  O  O279  1  0.86887068  0.00774247  0.24925739  1
  O  O280  1  0.86589730  0.00205776  0.75771205  1
  O  O281  1  0.86280036  0.50434122  0.24228002  1
  O  O282  1  0.86880696  0.49645657  0.75020820  1
  O  O283  1  0.11390919  0.36051550  0.37443117  1
  O  O284  1  0.13691516  0.37107592  0.86509422  1
  O  O285  1  0.12755030  0.87810714  0.36014175  1
  O  O286  1  0.11931156  0.87299366  0.87180552  1
  O  O287  1  0.61909311  0.36839288  0.36636738  1
  O  O288  1  0.61485479  0.36644159  0.87128847  1
  O  O289  1  0.62758432  0.87356801  0.36538338  1
  O  O290  1  0.61473737  0.87758287  0.86554436  1
  O  O291  1  0.38438975  0.13857578  0.12637020  1
  O  O292  1  0.37889612  0.12911545  0.62991806  1
  O  O293  1  0.37234685  0.61658287  0.15173054  1
  O  O294  1  0.38750465  0.63557855  0.63241714  1
  O  O295  1  0.87598484  0.13153746  0.13695595  1
  O  O296  1  0.88673649  0.12784213  0.62422466  1
  O  O297  1  0.88985129  0.62098949  0.11873154  1
  O  O298  1  0.88061156  0.63864007  0.63805162  1
  O  O299  1  0.25797613  0.26146232  0.12002214  1
  O  O300  1  0.25438137  0.25034511  0.61654804  1
  O  O301  1  0.24097853  0.75710562  0.11342980  1
  O  O302  1  0.26592243  0.76963171  0.64069130  1
  O  O303  1  0.74979345  0.25730502  0.12213152  1
  O  O304  1  0.75610539  0.24487482  0.61157955  1
  O  O305  1  0.74934051  0.76138700  0.11477576  1
  O  O306  1  0.76131336  0.76158754  0.63619286  1
  O  O307  1  0.24457826  0.24437713  0.37809022  1
  O  O308  1  0.29853277  0.23551774  0.88854897  1
  O  O309  1  0.22021799  0.74929919  0.37001272  1
  O  O310  1  0.24459150  0.74712918  0.88134017  1
  O  O311  1  0.74362125  0.24969897  0.38581743  1
  O  O312  1  0.73455275  0.23743988  0.88632596  1
  O  O313  1  0.74489851  0.73374569  0.37369861  1
  O  O314  1  0.74875888  0.75739035  0.88482710  1
  O  O315  1  -0.00679560  0.11382583  0.00462933  1
  O  O316  1  0.00785092  0.11979572  0.50169550  1
  O  O317  1  0.00702540  0.62152651  0.00658938  1
  O  O318  1  -0.01308728  0.61942466  0.51660534  1
  O  O319  1  0.49250363  0.12185686  0.00889296  1
  O  O320  1  0.50854535  0.12571864  0.50462080  1
  O  O321  1  0.49997588  0.62578830  0.00751923  1
  O  O322  1  0.50774821  0.62493601  0.50387938  1
  O  O323  1  0.50983604  0.37173297  0.47900184  1
  O  O324  1  0.49383276  0.38239945  0.99157062  1
  O  O325  1  0.48878264  0.87897627  0.49696685  1
  O  O326  1  0.49368856  0.87422242  0.99426858  1
  O  O327  1  1.00143900  0.37362031  0.48686124  1
  O  O328  1  1.00616099  0.38860097  0.99663543  1
  O  O329  1  0.99009668  0.88612363  0.50551264  1
  O  O330  1  0.99437515  0.88220182  0.99808781  1
  O  O331  1  0.50641708  0.48448649  0.37193372  1
  O  O332  1  0.50183597  0.49114726  0.87310226  1
  O  O333  1  0.49460579  0.99615064  0.37517518  1
  O  O334  1  0.49596685  0.98542665  0.87794697  1
  O  O335  1  1.00105011  0.48375124  0.37710819  1
  O  O336  1  1.00289345  0.50695000  0.88681608  1
  O  O337  1  0.99730900  1.00766226  0.38456762  1
  O  O338  1  0.99391674  0.99773012  0.88487732  1
  O  O339  1  0.00916454  0.00178788  0.11758248  1
  O  O340  1  -0.00447866  0.01198103  0.60656942  1
  O  O341  1  0.01009195  0.50555108  0.11283741  1
  O  O342  1  0.00510427  0.50570968  0.62767890  1
  O  O343  1  0.50682120  0.00719578  0.11866306  1
  O  O344  1  0.50760946  0.00601151  0.62237482  1
  O  O345  1  0.51181885  0.50321887  0.12982839  1
  O  O346  1  0.51765059  0.51300831  0.63427928  1
  O  O347  1  0.24766085  0.37081330  0.23703938  1
  O  O348  1  0.24497355  0.38142002  0.74543139  1
  O  O349  1  0.23932669  0.86759631  0.23912043  1
  O  O350  1  0.24301021  0.88431438  0.74614976  1
  O  O351  1  0.74432337  0.38245004  0.24473185  1
  O  O352  1  0.73228596  0.36635804  0.75817333  1
  O  O353  1  0.74776967  0.88135359  0.24236007  1
  O  O354  1  0.74671092  0.88590635  0.74335368  1
  O  O355  1  0.24785759  0.13162233  0.25397406  1
  O  O356  1  0.25491339  0.10931861  0.74335368  1
  O  O357  1  0.24738430  0.61768978  0.25280650  1
  O  O358  1  0.25418266  0.61839727  0.74755955  1
  O  O359  1  0.75603634  0.11718776  0.24861557  1
  O  O360  1  0.74604119  0.11204184  0.75612150  1
  O  O361  1  0.75194014  0.61811364  0.26197333  1
  O  O362  1  0.75068699  0.62221457  0.76568913  1
  O  O363  1  0.35762348  0.12974692  0.37479818  1
  O  O364  1  0.39008896  0.10257618  0.86461489  1
  O  O365  1  0.37698527  0.63111351  0.35184477  1
  O  O366  1  0.36793547  0.62441492  0.86654714  1
  O  O367  1  0.87253271  0.12757174  0.36044897  1
  O  O368  1  0.85264372  0.11641907  0.87479958  1
  O  O369  1  0.86305381  0.62733456  0.38048702  1
  O  O370  1  0.85494591  0.63566656  0.87434088  1
  O  O371  1  0.13033759  0.38727342  0.11794487  1
  O  O372  1  0.13491507  0.37452382  0.62958126  1
  O  O373  1  0.13177744  0.88292521  0.13078031  1
  O  O374  1  0.13411307  0.87258843  0.63567374  1
  O  O375  1  0.63371235  0.38403822  0.13049331  1
  O  O376  1  0.61884119  0.38358260  0.63300646  1
  O  O377  1  0.63527493  0.88545252  0.13101301  1
  O  O378  1  0.63255148  0.87993713  0.62918959  1
  O  O379  1  0.11243828  0.24669689  0.25461513  1
  O  O380  1  0.14057558  0.26046315  0.75304005  1
  O  O381  1  0.11598081  0.76513533  0.24786662  1
  O  O382  1  0.11263890  0.76405171  0.75713582  1
  O  O383  1  0.61945559  0.25684636  0.25356517  1
  O  O384  1  0.61590564  0.25316811  0.75445603  1
  O  O385  1  0.63074625  0.76391116  0.24724960  1
  O  O386  1  0.61093137  0.75682141  0.74233480  1
  O  O387  1  0.38611101  0.25735980  0.23650714  1
  O  O388  1  0.37970257  0.24271935  0.73736882  1
  O  O389  1  0.38536867  0.75863291  0.25024309  1
  O  O390  1  0.38656486  0.74726770  0.74338553  1
  O  O391  1  0.87729906  0.24477194  0.24042084  1
  O  O392  1  0.86946159  0.24339529  0.73073545  1
  O  O393  1  0.87887843  0.74426716  0.24653417  1
  O  O394  1  0.89079808  0.76117488  0.74204640  1
  O  O395  1  0.39655641  0.48336731  0.53893074  1
  O  O396  1  0.37609219  0.49322971  1.00104087  1
  O  O397  1  0.37531472  0.99212183  0.49497031  1
  O  O398  1  0.38426338  0.98414552  0.98878415  1
  O  O399  1  0.86813513  0.48902892  0.51508540  1
  O  O400  1  0.88880599  0.49819752  0.99955618  1
  O  O401  1  0.88166127  0.99255469  0.49386219  1
  O  O402  1  0.88058032  0.99246751  0.99685945  1
  O  O403  1  0.11832117  0.00629005  0.01205314  1
  O  O404  1  0.11931162  0.01254921  0.49229373  1
  O  O405  1  0.12092166  0.51288426  0.00050242  1
  O  O406  1  0.11625587  0.49918508  0.51722826  1
  O  O407  1  0.61528603  -0.00808234  0.00935553  1
  O  O408  1  0.62698115  0.01168074  0.50337193  1
  O  O409  1  0.62230092  0.50386832  0.01126201  1
  O  O410  1  0.62147336  0.50756231  0.51034976  1
  O  O411  1  0.36642463  0.37673997  0.12079647  1
  O  O412  1  0.35745568  0.35978906  0.63469923  1
  O  O413  1  0.36551020  0.87789682  0.11421009  1
  O  O414  1  0.37032983  0.87004425  0.61316411  1
  O  O415  1  0.86084578  0.36757361  0.13024567  1
  O  O416  1  0.87605929  0.36590352  0.62377873  1
  O  O417  1  0.86531114  0.88344070  0.11521745  1
  O  O418  1  0.86807019  0.87351278  0.61924885  1
  O  O419  1  0.13592634  0.13511536  0.37665112  1
  O  O420  1  0.14517770  0.10343205  0.89745795  1
  O  O421  1  0.11625449  0.62936903  0.38393921  1
  O  O422  1  0.13155004  0.63199107  0.88042489  1
  O  O423  1  0.62623230  0.13103060  0.38187870  1
  O  O424  1  0.62980428  0.12700018  0.87049883  1
  O  O425  1  0.63252570  0.62595671  0.38507880  1
  O  O426  1  0.64203831  0.62576110  0.87825037  1
