# generated using pymatgen
data_V85Zn86O256
_symmetry_space_group_name_H-M   'P 1'
_cell_length_a   16.93038498
_cell_length_b   16.94321853
_cell_length_c   16.93462545
_cell_angle_alpha   90.05050463
_cell_angle_beta   89.95626268
_cell_angle_gamma   90.01820289
_symmetry_Int_Tables_number   1
_chemical_formula_structural   V85Zn86O256
_chemical_formula_sum   'V85 Zn86 O256'
_cell_volume   4857.78203460
_cell_formula_units_Z   1
loop_
 _symmetry_equiv_pos_site_id
 _symmetry_equiv_pos_as_xyz
  1  'x, y, z'
loop_
 _atom_site_type_symbol
 _atom_site_label
 _atom_site_symmetry_multiplicity
 _atom_site_fract_x
 _atom_site_fract_y
 _atom_site_fract_z
 _atom_site_occupancy
  V  V0  1  0.12556084  0.12624478  0.50288344  1
  V  V1  1  0.00383999  0.74796777  0.24361689  1
  V  V2  1  0.35949714  0.50036872  0.87191220  1
  V  V3  1  0.12263460  0.24015651  0.87286515  1
  V  V4  1  0.00226877  0.75293249  0.74975521  1
  V  V5  1  0.37188578  0.73732277  0.12978404  1
  V  V6  1  0.62871656  0.12302792  -0.00136267  1
  V  V7  1  0.62714504  0.00204491  0.63173064  1
  V  V8  1  0.74424487  -0.00057387  0.24513426  1
  V  V9  1  0.61900686  0.24563786  0.86472709  1
  V  V10  1  0.25011073  0.75239094  0.50196425  1
  V  V11  1  0.62521718  0.49793536  0.12464722  1
  V  V12  1  0.51230325  0.49668349  0.50469411  1
  V  V13  1  0.24778682  0.24984994  -0.00448597  1
  V  V14  1  0.25657054  0.25493598  0.50066986  1
  V  V15  1  0.49205964  0.37391832  0.37936118  1
  V  V16  1  0.87893712  0.62262429  0.25554917  1
  V  V17  1  -0.00144873  0.62338571  0.62190767  1
  V  V18  1  0.35967501  0.61795063  0.75124738  1
  V  V19  1  0.25251019  0.38039532  0.62486469  1
  V  V20  1  0.13505154  0.88789025  0.23393878  1
  V  V21  1  0.87665794  0.87460123  0.49818903  1
  V  V22  1  0.51184016  0.62138218  0.62312379  1
  V  V23  1  0.75894987  0.25078467  0.50632388  1
  V  V24  1  -0.00102292  0.00415538  0.01547720  1
  V  V25  1  0.62763732  0.25194946  0.37645576  1
  V  V26  1  0.38437348  -0.00405435  0.37540564  1
  V  V27  1  0.61872039  0.86851284  0.25986241  1
  V  V28  1  0.61738980  0.38082247  0.74415551  1
  V  V29  1  0.75014685  0.87627492  0.62627465  1
  V  V30  1  0.12614665  0.50086083  0.63420278  1
  V  V31  1  0.50815697  0.12158831  0.12493293  1
  V  V32  1  -0.01411792  0.24964940  0.74536703  1
  V  V33  1  -0.01241768  0.12906022  0.62685982  1
  V  V34  1  0.50274456  0.13073883  0.63712748  1
  V  V35  1  0.24995868  0.37574286  0.12807597  1
  V  V36  1  0.75018618  0.74309874  -0.00266696  1
  V  V37  1  0.37953868  0.25523338  0.62898906  1
  V  V38  1  0.25265062  0.88498637  0.62784316  1
  V  V39  1  0.25089523  0.11955734  0.37191672  1
  V  V40  1  0.87344974  0.87920665  -0.00387501  1
  V  V41  1  0.12200278  0.62379271  -0.00174326  1
  V  V42  1  0.74337597  0.62781018  0.38045182  1
  V  V43  1  0.73896366  0.87626598  0.12232068  1
  V  V44  1  0.50403075  -0.00565235  0.00207067  1
  V  V45  1  0.12772574  0.74680080  0.87434603  1
  V  V46  1  -0.00422294  0.38208945  0.37316405  1
  V  V47  1  0.00337155  0.87623317  0.37212386  1
  V  V48  1  0.87533396  0.38296346  0.50070986  1
  V  V49  1  -0.00101968  0.24428051  0.24948913  1
  V  V50  1  0.12590683  0.75339461  0.37272405  1
  V  V51  1  0.36547959  0.12232125  0.74785708  1
  V  V52  1  0.12925945  0.62189877  0.49751667  1
  V  V53  1  0.87643583  0.74480639  0.12456051  1
  V  V54  1  0.12441674  0.50766709  0.12867051  1
  V  V55  1  0.75403477  0.38152820  0.62971700  1
  V  V56  1  0.37898208  0.25129244  0.12392059  1
  V  V57  1  0.36844046  -0.00542375  0.86504063  1
  V  V58  1  0.49862818  0.74590325  0.75072265  1
  V  V59  1  0.88000096  0.24618759  0.11873515  1
  V  V60  1  0.37341198  0.50869849  0.37905512  1
  V  V61  1  -0.00967017  0.37387719  0.88146646  1
  V  V62  1  0.37575463  0.37326657  -0.00241910  1
  V  V63  1  0.00316174  0.00292063  0.49938346  1
  V  V64  1  0.76206657  0.12079264  0.86703635  1
  V  V65  1  0.62914443  0.74815886  0.87294467  1
  V  V66  1  0.12094011  0.12312205  0.01412240  1
  V  V67  1  0.31899449  0.92118591  0.05447907  1
  V  V68  1  0.49845364  0.49745416  -0.00403679  1
  V  V69  1  0.75557660  0.49897270  0.25585891  1
  V  V70  1  -0.00692071  0.49811036  0.00601758  1
  V  V71  1  0.25603652  0.74440059  -0.00308136  1
  V  V72  1  0.37437756  0.12262333  0.25000544  1
  V  V73  1  0.62451537  0.12636690  0.50168475  1
  V  V74  1  0.12992170  0.88808084  0.75176186  1
  V  V75  1  0.49571896  0.87329126  0.87397934  1
  V  V76  1  0.62603855  0.62138568  -0.00479523  1
  V  V77  1  0.12643597  0.37563176  0.75334710  1
  V  V78  1  0.87297838  0.00131249  0.37233570  1
  V  V79  1  -0.00279770  0.88641528  0.87299939  1
  V  V80  1  0.12596499  0.25242891  0.37440469  1
  V  V81  1  0.87592922  0.74910423  0.62343873  1
  V  V82  1  0.62660139  0.37391954  0.25074217  1
  V  V83  1  0.75634342  0.37396519  0.11773784  1
  V  V84  1  0.37268973  0.74568602  0.62776429  1
  Zn  Zn85  1  0.26134197  0.51082093  0.24506426  1
  Zn  Zn86  1  0.62672303  0.87721633  0.75173966  1
  Zn  Zn87  1  0.86487704  0.62508451  0.75702282  1
  Zn  Zn88  1  0.74447311  0.74412600  0.50251726  1
  Zn  Zn89  1  0.75292407  0.25129971  -0.00396719  1
  Zn  Zn90  1  0.60959381  0.74892436  0.38847529  1
  Zn  Zn91  1  0.75032286  0.12569478  0.37246040  1
  Zn  Zn92  1  0.49741742  0.62190994  0.12895653  1
  Zn  Zn93  1  0.25688682  0.63272653  0.36787493  1
  Zn  Zn94  1  0.76911215  0.00103506  0.75115198  1
  Zn  Zn95  1  0.24199761  0.11469005  0.86860706  1
  Zn  Zn96  1  0.13042046  0.00928745  0.63442362  1
  Zn  Zn97  1  0.38396705  0.86582272  0.48896969  1
  Zn  Zn98  1  -0.00071272  0.50081951  0.49500527  1
  Zn  Zn99  1  0.74731748  0.50799488  0.75925866  1
  Zn  Zn100  1  0.12594663  0.37703078  0.25105323  1
  Zn  Zn101  1  0.50402586  -0.00409530  0.49995055  1
  Zn  Zn102  1  0.87680329  0.12048667  0.24318335  1
  Zn  Zn103  1  0.50348728  0.24881670  0.25013089  1
  Zn  Zn104  1  0.49532661  0.36793174  0.86925610  1
  Zn  Zn105  1  0.48704030  0.73927696  0.26568927  1
  Zn  Zn106  1  0.86797316  0.50684212  0.87823198  1
  Zn  Zn107  1  0.19005036  0.19037328  0.18997796  1
  Zn  Zn108  1  0.18570373  0.19132228  0.68727564  1
  Zn  Zn109  1  0.19175824  0.69063237  0.18550467  1
  Zn  Zn110  1  0.18456507  0.69007224  0.68789754  1
  Zn  Zn111  1  0.69110272  0.18724107  0.18659949  1
  Zn  Zn112  1  0.69438584  0.19161600  0.68814746  1
  Zn  Zn113  1  0.68415657  0.68515158  0.18805098  1
  Zn  Zn114  1  0.68837822  0.68849107  0.68718045  1
  Zn  Zn115  1  0.31486537  0.31021034  0.31058424  1
  Zn  Zn116  1  0.31042229  0.31209162  0.80898830  1
  Zn  Zn117  1  0.30896172  0.81494144  0.30869910  1
  Zn  Zn118  1  0.31134504  0.80980860  0.81118279  1
  Zn  Zn119  1  0.81527000  0.31195539  0.31194373  1
  Zn  Zn120  1  0.80664901  0.31563630  0.81541327  1
  Zn  Zn121  1  0.81016848  0.81141428  0.31094392  1
  Zn  Zn122  1  0.81352058  0.81237371  0.81005329  1
  Zn  Zn123  1  0.18750995  0.43722198  0.43895457  1
  Zn  Zn124  1  0.18077093  0.43434542  0.93928572  1
  Zn  Zn125  1  0.19146554  0.93798509  0.43569517  1
  Zn  Zn126  1  0.17876397  0.94077622  0.93637837  1
  Zn  Zn127  1  0.69030151  0.43824902  0.43667880  1
  Zn  Zn128  1  0.68760224  0.43387953  0.93218388  1
  Zn  Zn129  1  0.68865242  0.93718691  0.44027532  1
  Zn  Zn130  1  0.68656096  0.93868226  0.93480485  1
  Zn  Zn131  1  0.31449396  0.08106559  0.05731004  1
  Zn  Zn132  1  0.31528868  0.06532350  0.55935051  1
  Zn  Zn133  1  0.30759664  0.56248429  0.05612572  1
  Zn  Zn134  1  0.31822478  0.55926293  0.55725624  1
  Zn  Zn135  1  0.81207509  0.06235271  0.06062883  1
  Zn  Zn136  1  0.81114356  0.06105573  0.56032592  1
  Zn  Zn137  1  0.81111737  0.56406795  0.06583051  1
  Zn  Zn138  1  0.81161958  0.55898528  0.56610105  1
  Zn  Zn139  1  0.43999648  0.43846473  0.19088537  1
  Zn  Zn140  1  0.43799065  0.43906355  0.68815893  1
  Zn  Zn141  1  0.44116482  0.94034591  0.19186654  1
  Zn  Zn142  1  0.44270559  0.93430508  0.67877324  1
  Zn  Zn143  1  0.93853447  0.43444480  0.18740535  1
  Zn  Zn144  1  0.93420744  0.43793836  0.68836074  1
  Zn  Zn145  1  0.93350151  0.92974106  0.18741776  1
  Zn  Zn146  1  0.94331997  0.93773282  0.68181047  1
  Zn  Zn147  1  0.06390421  0.06343806  0.31043565  1
  Zn  Zn148  1  -0.05751153  0.06579756  0.81418077  1
  Zn  Zn149  1  0.06784184  0.56463176  0.30930934  1
  Zn  Zn150  1  0.02942923  0.57650882  0.82569362  1
  Zn  Zn151  1  0.56611336  0.06127154  0.31076913  1
  Zn  Zn152  1  0.55968163  0.06228268  0.81239232  1
  Zn  Zn153  1  0.56133642  0.56194726  0.31147151  1
  Zn  Zn154  1  0.55817946  0.56116814  0.81349809  1
  Zn  Zn155  1  0.43986838  0.18677970  0.44213191  1
  Zn  Zn156  1  0.43749436  0.18243252  0.93408352  1
  Zn  Zn157  1  0.44241933  0.68545541  0.44259478  1
  Zn  Zn158  1  0.43690871  0.68196051  0.93667307  1
  Zn  Zn159  1  0.93759988  0.18879328  0.43431340  1
  Zn  Zn160  1  0.94081305  0.19157483  0.94399555  1
  Zn  Zn161  1  0.93694707  0.68741260  0.43501963  1
  Zn  Zn162  1  0.94366492  0.69002426  0.94082433  1
  Zn  Zn163  1  0.06299560  0.31455376  0.06406651  1
  Zn  Zn164  1  0.06147804  0.31271683  0.56252804  1
  Zn  Zn165  1  0.06277075  0.81266222  0.06087922  1
  Zn  Zn166  1  0.06608845  0.81558889  0.56287647  1
  Zn  Zn167  1  0.56598141  0.30991785  0.05869058  1
  Zn  Zn168  1  0.56400086  0.31348131  0.56324692  1
  Zn  Zn169  1  0.55828101  0.81009188  0.06367533  1
  Zn  Zn170  1  0.56203506  0.81239117  0.55898215  1
  O  O171  1  0.13036081  0.13045424  0.11332686  1
  O  O172  1  0.11928360  0.12672574  0.61687832  1
  O  O173  1  0.12985048  0.61338187  0.11722193  1
  O  O174  1  0.12251723  0.61940479  0.61485135  1
  O  O175  1  0.61806863  0.13070543  0.11403230  1
  O  O176  1  0.62169622  0.12340451  0.62273503  1
  O  O177  1  0.62933443  0.61614927  0.11072769  1
  O  O178  1  0.60996339  0.62687623  0.62686034  1
  O  O179  1  0.38961610  0.37158618  0.37554088  1
  O  O180  1  0.37584500  0.37892373  0.87880327  1
  O  O181  1  0.36793445  0.89318718  0.37275205  1
  O  O182  1  0.38731820  0.87868871  0.86860512  1
  O  O183  1  0.88472470  0.37017192  0.38393600  1
  O  O184  1  0.88809570  0.37337680  0.87472059  1
  O  O185  1  0.88035248  0.88342629  0.37703777  1
  O  O186  1  0.88201167  0.86557206  0.88845249  1
  O  O187  1  0.26015564  0.01549500  0.37999030  1
  O  O188  1  0.26420435  -0.00370298  0.87999571  1
  O  O189  1  0.26596636  0.49641814  0.37923143  1
  O  O190  1  0.26033826  0.49387825  0.88191330  1
  O  O191  1  0.75816044  -0.00053281  0.36773467  1
  O  O192  1  0.74613096  0.01673924  0.87207475  1
  O  O193  1  0.74872835  0.50842753  0.36275155  1
  O  O194  1  0.75542908  0.49740930  0.87564648  1
  O  O195  1  0.24523299  0.49165783  0.12488366  1
  O  O196  1  0.24369972  0.48735275  0.61626076  1
  O  O197  1  0.26751588  0.98668152  0.10753924  1
  O  O198  1  0.25065424  0.98897480  0.61879806  1
  O  O199  1  0.74586114  0.49194099  0.13256508  1
  O  O200  1  0.74863262  0.48515326  0.62606185  1
  O  O201  1  0.75606366  0.98888781  0.13254091  1
  O  O202  1  0.74525670  0.99546952  0.62903514  1
  O  O203  1  0.00016141  0.36425486  0.25811691  1
  O  O204  1  0.00839233  0.36565007  0.75465285  1
  O  O205  1  0.00416926  0.86474686  0.25481884  1
  O  O206  1  0.00829971  0.87029068  0.75618269  1
  O  O207  1  0.50958761  0.37137710  0.25971901  1
  O  O208  1  0.51291339  0.37347407  0.74977148  1
  O  O209  1  0.51766198  0.87222865  0.24310059  1
  O  O210  1  0.50284062  0.86545439  0.75637401  1
  O  O211  1  0.49829517  0.12584764  0.24031939  1
  O  O212  1  0.49134792  0.12643696  0.74151309  1
  O  O213  1  0.51315772  0.63119400  0.24020607  1
  O  O214  1  0.49352919  0.62518147  0.73897993  1
  O  O215  1  0.99812636  0.13952091  0.25543419  1
  O  O216  1  0.99906374  0.14041479  0.74319257  1
  O  O217  1  0.99457468  0.63827636  0.25465019  1
  O  O218  1  1.00940681  0.63605666  0.72919611  1
  O  O219  1  0.36954692  0.25180884  0.00228956  1
  O  O220  1  0.36621488  0.24282039  0.51362791  1
  O  O221  1  0.36259147  0.74387917  0.00213715  1
  O  O222  1  0.36307224  0.74792972  0.50758403  1
  O  O223  1  0.87417202  0.25260708  0.01421514  1
  O  O224  1  0.86223369  0.25611613  0.49233644  1
  O  O225  1  0.86840545  0.75275213  0.00520563  1
  O  O226  1  0.87409211  0.75587456  0.50893545  1
  O  O227  1  0.13117524  0.24125455  0.49563292  1
  O  O228  1  0.12654411  0.24442862  0.99403767  1
  O  O229  1  0.13405716  0.74460056  0.49710733  1
  O  O230  1  0.13106583  0.74409520  0.99470373  1
  O  O231  1  0.63414010  0.24556882  0.49453483  1
  O  O232  1  0.62704686  0.23788807  0.98810188  1
  O  O233  1  0.63231324  0.75293597  0.49968496  1
  O  O234  1  0.63076087  0.74244182  0.99500215  1
  O  O235  1  0.49587550  0.23943222  0.12259356  1
  O  O236  1  0.49094978  0.24364711  0.61952478  1
  O  O237  1  0.47920603  0.74695391  0.11621003  1
  O  O238  1  0.49247752  0.73617232  0.63039311  1
  O  O239  1  0.98755135  0.25731905  0.13245320  1
  O  O240  1  1.00430156  0.24522646  0.63835235  1
  O  O241  1  0.98967717  0.75440212  0.13179394  1
  O  O242  1  0.99431020  0.74659703  0.62592507  1
  O  O243  1  0.00586713  0.25770766  0.36881147  1
  O  O244  1  0.00452363  0.25457011  0.86713251  1
  O  O245  1  0.00568402  0.75691180  0.36785043  1
  O  O246  1  0.01054042  0.76471395  0.87370908  1
  O  O247  1  0.51166417  0.25615361  0.37947802  1
  O  O248  1  0.51471498  0.24686790  0.87749996  1
  O  O249  1  0.49554094  0.75589790  0.37731295  1
  O  O250  1  0.50687829  0.75607394  0.87403545  1
  O  O251  1  0.24394170  0.13506851  0.49546280  1
  O  O252  1  0.23928461  0.13223983  0.99150449  1
  O  O253  1  0.24367240  0.63248998  0.49704178  1
  O  O254  1  0.23639198  0.63303005  0.99817730  1
  O  O255  1  0.74070524  0.13351123  0.50049730  1
  O  O256  1  0.74322618  0.12551319  0.98988556  1
  O  O257  1  0.76040956  0.62127370  0.48288362  1
  O  O258  1  0.74477142  0.63623044  1.00071701  1
  O  O259  1  0.25494930  0.36926414  0.00953511  1
  O  O260  1  0.24399059  0.36163816  0.50857731  1
  O  O261  1  0.25018004  0.86723530  -0.00184215  1
  O  O262  1  0.25453034  0.86797598  0.50795685  1
  O  O263  1  0.74118252  0.37074427  0.01475545  1
  O  O264  1  0.75635204  0.37025673  0.50506444  1
  O  O265  1  0.75452254  0.86890373  0.00344222  1
  O  O266  1  0.75969094  0.87800166  0.51234971  1
  O  O267  1  0.12778452  0.49560917  0.24034623  1
  O  O268  1  0.11797098  0.49259449  0.73749731  1
  O  O269  1  0.11931376  0.98670437  0.25070898  1
  O  O270  1  0.12457541  0.98746535  0.75213584  1
  O  O271  1  0.63448527  0.49285881  0.24436794  1
  O  O272  1  0.62386487  0.48297122  0.75800050  1
  O  O273  1  0.63662516  0.98776370  0.25352314  1
  O  O274  1  0.62743939  1.00096000  0.74011794  1
  O  O275  1  0.38061956  0.01275829  0.26055400  1
  O  O276  1  0.38204195  0.00755477  0.75555318  1
  O  O277  1  0.37760552  0.49065499  0.27161570  1
  O  O278  1  0.37689793  0.50536587  0.76002103  1
  O  O279  1  0.86668713  -0.00175962  0.25562344  1
  O  O280  1  0.88187248  -0.00352848  0.75223483  1
  O  O281  1  0.86806139  0.51046464  0.24130823  1
  O  O282  1  0.87415764  0.50385703  0.75493569  1
  O  O283  1  0.11899578  0.36775777  0.37517771  1
  O  O284  1  0.11794210  0.36502354  0.86800810  1
  O  O285  1  0.11967621  0.87031987  0.37203868  1
  O  O286  1  0.11723189  0.87036106  0.86877115  1
  O  O287  1  0.61996848  0.36805001  0.37145852  1
  O  O288  1  0.62273323  0.35962829  0.86601452  1
  O  O289  1  0.63128867  0.87376441  0.36281524  1
  O  O290  1  0.61481915  0.86802445  0.87354113  1
  O  O291  1  0.38394322  0.13111520  0.13206906  1
  O  O292  1  0.38269025  0.12946462  0.63117315  1
  O  O293  1  0.37295645  0.63395517  0.12221025  1
  O  O294  1  0.37812872  0.62793361  0.63196472  1
  O  O295  1  0.86992185  0.14141500  0.12518713  1
  O  O296  1  0.88837681  0.12511474  0.61556575  1
  O  O297  1  0.86718958  0.63867715  0.13666603  1
  O  O298  1  0.88417442  0.63310206  0.62114453  1
  O  O299  1  0.25802662  0.25618285  0.11778067  1
  O  O300  1  0.25513243  0.25896725  0.61870994  1
  O  O301  1  0.26270892  0.75119432  0.11350132  1
  O  O302  1  0.25171647  0.75656989  0.61754924  1
  O  O303  1  0.76065787  0.25739865  0.12473034  1
  O  O304  1  0.74672170  0.26211300  0.61503724  1
  O  O305  1  0.75439117  0.75620167  0.11589252  1
  O  O306  1  0.75970563  0.75888868  0.62363359  1
  O  O307  1  0.24850515  0.24374072  0.38299521  1
  O  O308  1  0.23995428  0.25044791  0.87971023  1
  O  O309  1  0.24499554  0.75300076  0.38487388  1
  O  O310  1  0.23768720  0.75610744  0.88280146  1
  O  O311  1  0.74038277  0.24972270  0.38155700  1
  O  O312  1  0.74080457  0.23910487  0.87658090  1
  O  O313  1  0.75253903  0.73542235  0.37590210  1
  O  O314  1  0.73741181  0.75751114  0.88208141  1
  O  O315  1  0.00397549  0.11185844  -0.00085855  1
  O  O316  1  0.00814484  0.12490541  0.50423886  1
  O  O317  1  0.01415934  0.61696972  0.00395585  1
  O  O318  1  0.00779428  0.62631514  0.50725950  1
  O  O319  1  0.50524984  0.11430552  0.00411355  1
  O  O320  1  0.51409401  0.12543415  0.51039173  1
  O  O321  1  0.50751213  0.61441184  0.00425202  1
  O  O322  1  0.49480341  0.61201298  0.51490745  1
  O  O323  1  0.50502268  0.38667934  0.49498562  1
  O  O324  1  0.49337411  0.37957223  0.99715591  1
  O  O325  1  0.48640249  0.88743184  0.53015145  1
  O  O326  1  0.50731768  0.88726056  0.99254939  1
  O  O327  1  0.99212411  0.37301003  0.49268525  1
  O  O328  1  1.00494251  0.38317132  0.99248933  1
  O  O329  1  0.99725128  0.88199116  0.49337473  1
  O  O330  1  0.99346894  0.88382124  0.99534545  1
  O  O331  1  0.49574656  0.49386382  0.38432963  1
  O  O332  1  0.49366319  0.49479830  0.88673333  1
  O  O333  1  0.48872490  1.00532552  0.37784305  1
  O  O334  1  0.49066679  0.99349757  0.88125942  1
  O  O335  1  1.00765963  0.48600883  0.37417930  1
  O  O336  1  1.00672861  0.48545786  0.88959000  1
  O  O337  1  0.99311609  0.99640755  0.37911484  1
  O  O338  1  0.99823789  0.98898961  0.88540392  1
  O  O339  1  -0.00598262  -0.00367852  0.11423257  1
  O  O340  1  0.00768537  0.01024134  0.61528891  1
  O  O341  1  0.01225964  0.49105960  0.11825744  1
  O  O342  1  0.00794741  0.50819982  0.62030850  1
  O  O343  1  0.49504488  0.01088994  0.11533542  1
  O  O344  1  0.51118693  0.01412475  0.62692495  1
  O  O345  1  0.50619914  0.49661435  0.11353171  1
  O  O346  1  0.49708388  0.50619144  0.61375826  1
  O  O347  1  0.25167988  0.37378202  0.23683208  1
  O  O348  1  0.23428647  0.37020776  0.74070811  1
  O  O349  1  0.23375553  0.87572830  0.24936534  1
  O  O350  1  0.24088008  0.86919389  0.74091579  1
  O  O351  1  0.74672083  0.38206691  0.24537960  1
  O  O352  1  0.73904740  0.37417715  0.74363918  1
  O  O353  1  0.74419931  0.87913779  0.24078500  1
  O  O354  1  0.75000440  0.87731449  0.73818078  1
  O  O355  1  0.26140200  0.13133022  0.25938286  1
  O  O356  1  0.26018157  0.12558019  0.74885506  1
  O  O357  1  0.24060311  0.62200254  0.25759425  1
  O  O358  1  0.26012076  0.62630287  0.74501431  1
  O  O359  1  0.75105681  0.11334850  0.25158620  1
  O  O360  1  0.75197365  0.12537144  0.76334842  1
  O  O361  1  0.75677693  0.61830613  0.25677682  1
  O  O362  1  0.75283094  0.62252563  0.74542095  1
  O  O363  1  0.37168598  0.12236252  0.36819949  1
  O  O364  1  0.37280920  0.11488251  0.86489529  1
  O  O365  1  0.37541457  0.61168102  0.37928474  1
  O  O366  1  0.37873895  0.61284109  0.86423508  1
  O  O367  1  0.87312029  0.11153312  0.37396353  1
  O  O368  1  0.86555288  0.12979817  0.87951375  1
  O  O369  1  0.86837806  0.62843372  0.36073066  1
  O  O370  1  0.91672933  0.61656941  0.86142670  1
  O  O371  1  0.13588643  0.38309006  0.12477189  1
  O  O372  1  0.12964753  0.38146431  0.63057644  1
  O  O373  1  0.12195822  0.87445392  0.13485256  1
  O  O374  1  0.13390696  0.87824898  0.63351502  1
  O  O375  1  0.63155736  0.37741573  0.13186411  1
  O  O376  1  0.63088297  0.36897322  0.63984540  1
  O  O377  1  0.63547099  0.86918131  0.13002384  1
  O  O378  1  0.63543590  0.88560720  0.62783216  1
  O  O379  1  0.11840486  0.25373764  0.25575074  1
  O  O380  1  0.11733741  0.25647566  0.75726862  1
  O  O381  1  0.11765564  0.75754922  0.25252793  1
  O  O382  1  0.12041008  0.75741218  0.75775808  1
  O  O383  1  0.62623018  0.25398851  0.25986687  1
  O  O384  1  0.62738423  0.25521709  0.76084508  1
  O  O385  1  0.62991953  0.76339790  0.25356739  1
  O  O386  1  0.61777852  0.75117056  0.75911484  1
  O  O387  1  0.38166846  0.23915718  0.24465355  1
  O  O388  1  0.37089506  0.24092123  0.73736285  1
  O  O389  1  0.37234815  0.75546485  0.23333124  1
  O  O390  1  0.38049091  0.73817766  0.74820118  1
  O  O391  1  0.88149493  0.24577193  0.24212844  1
  O  O392  1  0.88783799  0.25669465  0.75218372  1
  O  O393  1  0.88215960  0.74684431  0.24259161  1
  O  O394  1  0.88345375  0.75043505  0.73791669  1
  O  O395  1  0.38677013  0.49575883  0.48627832  1
  O  O396  1  0.38103553  0.49460935  0.99397095  1
  O  O397  1  0.37856225  1.00662936  0.48335202  1
  O  O398  1  0.37889057  0.99172167  0.99574377  1
  O  O399  1  0.87852841  0.48720053  0.50045878  1
  O  O400  1  0.88983442  0.50804559  1.00376627  1
  O  O401  1  0.88103685  0.99468910  0.49158528  1
  O  O402  1  0.88478564  0.99117047  1.00244091  1
  O  O403  1  0.10941368  0.00796932  -0.00113702  1
  O  O404  1  0.12316593  0.01424398  0.49738875  1
  O  O405  1  0.12025541  0.50675735  0.00681806  1
  O  O406  1  0.12321532  0.50817230  0.50790709  1
  O  O407  1  0.61719283  0.01287189  -0.00710332  1
  O  O408  1  0.62797285  0.00979441  0.51135190  1
  O  O409  1  0.61787195  0.50422968  0.00129960  1
  O  O410  1  0.61136041  0.50017176  0.49483034  1
  O  O411  1  0.37095701  0.37034829  0.11922469  1
  O  O412  1  0.36504022  0.36777801  0.63302285  1
  O  O413  1  0.37835773  0.86925670  0.11995258  1
  O  O414  1  0.36321534  0.86162328  0.63525539  1
  O  O415  1  0.86507558  0.36292924  0.13208120  1
  O  O416  1  0.86825028  0.37346901  0.61491404  1
  O  O417  1  0.86574160  0.86346006  0.11445209  1
  O  O418  1  0.87241227  0.86760112  0.61853337  1
  O  O419  1  0.13365637  0.13113293  0.38030683  1
  O  O420  1  0.12368377  0.13758578  0.88272740  1
  O  O421  1  0.12267285  0.63259519  0.38769447  1
  O  O422  1  0.11560889  0.63811078  0.88100708  1
  O  O423  1  0.62598734  0.13227930  0.38430134  1
  O  O424  1  0.63037465  0.13232084  0.87693135  1
  O  O425  1  0.64108299  0.62646587  0.37085170  1
  O  O426  1  0.61654209  0.63375483  0.88690794  1
