# generated using pymatgen
data_V85Zn86O256
_symmetry_space_group_name_H-M   'P 1'
_cell_length_a   16.93473316
_cell_length_b   16.94075410
_cell_length_c   16.93449048
_cell_angle_alpha   90.07223383
_cell_angle_beta   89.99542858
_cell_angle_gamma   89.99381245
_symmetry_Int_Tables_number   1
_chemical_formula_structural   V85Zn86O256
_chemical_formula_sum   'V85 Zn86 O256'
_cell_volume   4858.28381207
_cell_formula_units_Z   1
loop_
 _symmetry_equiv_pos_site_id
 _symmetry_equiv_pos_as_xyz
  1  'x, y, z'
loop_
 _atom_site_type_symbol
 _atom_site_label
 _atom_site_symmetry_multiplicity
 _atom_site_fract_x
 _atom_site_fract_y
 _atom_site_fract_z
 _atom_site_occupancy
  V  V0  1  0.12683900  0.37747463  0.24887513  1
  V  V1  1  -0.00357940  0.13459574  0.62507792  1
  V  V2  1  0.13246525  0.49565690  0.12307331  1
  V  V3  1  -0.00796028  0.37811336  0.37276425  1
  V  V4  1  0.24658487  0.61373216  0.86739099  1
  V  V5  1  0.12403111  0.00105331  0.62519011  1
  V  V6  1  0.37254131  0.00407688  0.37704052  1
  V  V7  1  0.37914580  0.12510401  0.74553214  1
  V  V8  1  0.50136050  0.87395978  0.87516765  1
  V  V9  1  0.38900481  0.63141396  0.25155365  1
  V  V10  1  0.12741361  0.87183515  0.25061215  1
  V  V11  1  0.50664165  0.37962785  0.37213896  1
  V  V12  1  0.75957906  0.88448852  0.13587347  1
  V  V13  1  0.62607423  0.24640762  0.39422699  1
  V  V14  1  0.24759562  0.25612485  0.00215294  1
  V  V15  1  0.86505326  0.75400157  0.62679592  1
  V  V16  1  0.12656088  0.12597369  0.00114150  1
  V  V17  1  -0.00872028  0.74758459  0.24709887  1
  V  V18  1  -0.00269441  0.62455045  0.62546997  1
  V  V19  1  0.75041417  0.25329727  -0.01187882  1
  V  V20  1  0.87121562  0.00253920  0.36590487  1
  V  V21  1  0.75271407  0.62805297  0.87702663  1
  V  V22  1  0.25139956  0.63000565  0.37777067  1
  V  V23  1  0.37090024  0.25392962  0.12525244  1
  V  V24  1  0.49737253  0.01169154  0.51119085  1
  V  V25  1  -0.00724080  0.50121974  0.49587770  1
  V  V26  1  -0.00351411  0.12348562  0.12631708  1
  V  V27  1  0.36993961  0.12686379  0.25355478  1
  V  V28  1  0.86685365  0.87720582  0.50305987  1
  V  V29  1  0.37485307  0.87024537  0.49956269  1
  V  V30  1  0.24734465  0.12337625  0.87265502  1
  V  V31  1  0.37542567  -0.00104660  0.87367301  1
  V  V32  1  0.38088731  0.37376441  -0.00385272  1
  V  V33  1  0.36853247  0.74598500  0.62171365  1
  V  V34  1  0.87247227  0.26167012  0.12364598  1
  V  V35  1  0.13060702  0.62334312  0.00152217  1
  V  V36  1  0.12353041  0.75233436  0.87542348  1
  V  V37  1  0.63253117  0.87200471  0.73681330  1
  V  V38  1  0.37511362  0.50147490  0.37521902  1
  V  V39  1  0.63002814  0.01681907  0.62323876  1
  V  V40  1  0.87366365  0.49704311  0.87618550  1
  V  V41  1  0.37288769  0.37545640  0.49978713  1
  V  V42  1  0.00118560  -0.00016619  0.49854138  1
  V  V43  1  0.12775282  0.62772079  0.50082833  1
  V  V44  1  -0.00739788  0.36878533  0.86916823  1
  V  V45  1  0.12725489  0.74844684  0.37678891  1
  V  V46  1  0.00330237  0.87317225  0.37588912  1
  V  V47  1  0.86905026  0.36779412  0.49912457  1
  V  V48  1  0.12464377  0.38529063  0.75004622  1
  V  V49  1  0.62132209  0.74258320  0.36978625  1
  V  V50  1  0.25179217  0.50037836  0.24623053  1
  V  V51  1  0.51044846  0.25435280  0.24974425  1
  V  V52  1  0.12339731  0.88061575  0.75441618  1
  V  V53  1  -0.00847957  0.62467286  0.12233914  1
  V  V54  1  0.75482128  0.74818400  0.01512328  1
  V  V55  1  -0.00203793  0.25089752  0.24895237  1
  V  V56  1  0.25000915  0.37915095  0.62848809  1
  V  V57  1  0.50049865  0.62343070  0.62857736  1
  V  V58  1  0.25225848  0.87240305  0.12672370  1
  V  V59  1  0.13278650  0.24859802  0.37203482  1
  V  V60  1  0.37910078  0.49217388  0.86769670  1
  V  V61  1  0.12782538  -0.00067304  0.12672263  1
  V  V62  1  0.62166078  0.88619839  0.25903265  1
  V  V63  1  0.39021989  0.75045780  0.13051998  1
  V  V64  1  0.24753478  0.87059781  0.62259113  1
  V  V65  1  0.13440984  0.12428673  0.49332880  1
  V  V66  1  0.50374829  0.00066509  0.00117915  1
  V  V67  1  0.72632729  0.37569643  0.12758596  1
  V  V68  1  0.76039015  0.62116769  0.37792750  1
  V  V69  1  0.62024048  0.38060500  0.76633379  1
  V  V70  1  0.00172549  -0.00741223  -0.00597483  1
  V  V71  1  0.50448755  0.12630214  0.12519647  1
  V  V72  1  0.49741334  0.74843801  0.75131248  1
  V  V73  1  0.12211375  0.24915729  0.86367300  1
  V  V74  1  0.38113686  0.24899858  0.62481597  1
  V  V75  1  -0.00220688  0.75584296  0.75256223  1
  V  V76  1  0.63141367  0.12638928  -0.01626653  1
  V  V77  1  0.50231589  0.50229764  0.49843137  1
  V  V78  1  0.87740311  0.87065058  -0.00668522  1
  V  V79  1  0.74121211  0.49792801  0.24769775  1
  V  V80  1  0.74249256  0.37114113  0.62154674  1
  V  V81  1  -0.00254783  0.49186776  0.00048609  1
  V  V82  1  0.37769518  0.87396114  0.00028547  1
  V  V83  1  0.62588153  0.75104273  0.88142670  1
  V  V84  1  0.50579498  0.25129167  0.76372103  1
  Zn  Zn85  1  0.36861373  0.61908428  0.74752884  1
  Zn  Zn86  1  0.50192069  0.87463827  0.37642423  1
  Zn  Zn87  1  0.87196787  0.25123492  0.62928775  1
  Zn  Zn88  1  0.62773245  0.62816383  0.50233713  1
  Zn  Zn89  1  0.51128193  0.49597262  0.00425016  1
  Zn  Zn90  1  0.25403459  0.24786518  0.49604658  1
  Zn  Zn91  1  0.87546217  0.61781946  0.24969209  1
  Zn  Zn92  1  0.63287408  0.00616406  0.13116981  1
  Zn  Zn93  1  0.87459376  0.62509429  0.75026822  1
  Zn  Zn94  1  0.86278151  0.12135766  0.24470918  1
  Zn  Zn95  1  0.74655991  0.75470809  0.50143330  1
  Zn  Zn96  1  0.62576284  0.50209070  0.63008272  1
  Zn  Zn97  1  0.74299398  0.13191233  0.37554189  1
  Zn  Zn98  1  0.25289147  0.74716777  0.00032126  1
  Zn  Zn99  1  0.74944786  0.50020535  0.75096369  1
  Zn  Zn100  1  0.75236373  0.00760859  0.75442785  1
  Zn  Zn101  1  0.12818917  0.50264827  0.62656759  1
  Zn  Zn102  1  0.86337563  0.13610898  0.76451383  1
  Zn  Zn103  1  0.25067537  0.00040133  0.74975207  1
  Zn  Zn104  1  0.61969586  0.61875222  0.01580871  1
  Zn  Zn105  1  0.86576166  0.00453696  0.87387987  1
  Zn  Zn106  1  0.24927352  0.00323119  0.25656106  1
  Zn  Zn107  1  0.18773179  0.18819258  0.18729367  1
  Zn  Zn108  1  0.18964606  0.18898242  0.68334487  1
  Zn  Zn109  1  0.18924087  0.68559793  0.18815372  1
  Zn  Zn110  1  0.18467737  0.68908468  0.68810367  1
  Zn  Zn111  1  0.69054365  0.18691968  0.19136623  1
  Zn  Zn112  1  0.68833394  0.19192046  0.68932798  1
  Zn  Zn113  1  0.68982115  0.69039051  0.19577731  1
  Zn  Zn114  1  0.68621511  0.68512790  0.69196109  1
  Zn  Zn115  1  0.31431484  0.31605796  0.31034279  1
  Zn  Zn116  1  0.30860070  0.31064017  0.81022259  1
  Zn  Zn117  1  0.31402928  0.81307722  0.31345934  1
  Zn  Zn118  1  0.30900533  0.80814080  0.81141838  1
  Zn  Zn119  1  0.80651916  0.31123401  0.30957292  1
  Zn  Zn120  1  0.81226338  0.31222556  0.80295287  1
  Zn  Zn121  1  0.81134832  0.81320791  0.31780385  1
  Zn  Zn122  1  0.81036080  0.81678680  0.81554713  1
  Zn  Zn123  1  0.18456153  0.43946502  0.43808160  1
  Zn  Zn124  1  0.18835682  0.43390788  0.93768731  1
  Zn  Zn125  1  0.19175227  0.93636953  0.43900169  1
  Zn  Zn126  1  0.18912543  0.93677258  0.93910424  1
  Zn  Zn127  1  0.68587749  0.44052728  0.43590922  1
  Zn  Zn128  1  0.68890933  0.43826038  0.94254935  1
  Zn  Zn129  1  0.70051323  0.97201007  0.45033090  1
  Zn  Zn130  1  0.69077814  0.93671127  0.93967644  1
  Zn  Zn131  1  0.31403913  0.06346329  0.06346720  1
  Zn  Zn132  1  0.31132898  0.06076675  0.56540958  1
  Zn  Zn133  1  0.35345207  0.54562962  0.08221516  1
  Zn  Zn134  1  0.31111757  0.56087431  0.56210814  1
  Zn  Zn135  1  0.81456493  0.06340118  0.05716583  1
  Zn  Zn136  1  0.80855753  0.06651181  0.55935429  1
  Zn  Zn137  1  0.80755986  0.55553416  0.05978171  1
  Zn  Zn138  1  0.81141091  0.55776356  0.56366635  1
  Zn  Zn139  1  0.43331675  0.43055550  0.18874437  1
  Zn  Zn140  1  0.43832711  0.43590363  0.69099210  1
  Zn  Zn141  1  0.44200357  0.93906054  0.19004932  1
  Zn  Zn142  1  0.43926317  0.93462120  0.68745367  1
  Zn  Zn143  1  0.93210181  0.44197308  0.19026986  1
  Zn  Zn144  1  0.93510414  0.43516370  0.68784394  1
  Zn  Zn145  1  0.94092434  0.93380443  0.18405080  1
  Zn  Zn146  1  0.93384674  0.94093477  0.68878903  1
  Zn  Zn147  1  0.06151646  0.06299815  0.31123730  1
  Zn  Zn148  1  0.03003844  0.07677206  0.82587049  1
  Zn  Zn149  1  0.06106923  0.56201711  0.31216011  1
  Zn  Zn150  1  0.05803824  0.56254788  0.81247962  1
  Zn  Zn151  1  0.55698822  0.06369246  0.31662631  1
  Zn  Zn152  1  0.56209674  0.06122500  0.80604189  1
  Zn  Zn153  1  0.55695523  0.56208501  0.17428886  1
  Zn  Zn154  1  0.55741644  0.56691076  0.82841420  1
  Zn  Zn155  1  0.43971302  0.18919814  0.43607461  1
  Zn  Zn156  1  0.43697860  0.18487381  0.93664229  1
  Zn  Zn157  1  0.44171903  0.68877565  0.43776749  1
  Zn  Zn158  1  0.43516955  0.68307121  0.94283180  1
  Zn  Zn159  1  0.94092414  0.18728657  0.43757077  1
  Zn  Zn160  1  0.93473887  0.18886511  0.94215764  1
  Zn  Zn161  1  0.93704479  0.69123027  0.43979200  1
  Zn  Zn162  1  0.93864565  0.68671578  0.93954840  1
  Zn  Zn163  1  0.06218344  0.31352728  0.06176262  1
  Zn  Zn164  1  0.06576831  0.31415604  0.55748914  1
  Zn  Zn165  1  0.06278871  0.80944698  0.06411600  1
  Zn  Zn166  1  0.05880472  0.81043847  0.56431993  1
  Zn  Zn167  1  0.56159734  0.30674134  0.05469220  1
  Zn  Zn168  1  0.55877043  0.31648475  0.56907508  1
  Zn  Zn169  1  0.57236451  0.81382629  0.06895387  1
  Zn  Zn170  1  0.55882479  0.80944853  0.55658975  1
  O  O171  1  0.12020249  0.11948449  0.12024976  1
  O  O172  1  0.12097169  0.12004319  0.61402411  1
  O  O173  1  0.12122302  0.61483114  0.11785145  1
  O  O174  1  0.11793597  0.62531880  0.61808742  1
  O  O175  1  0.61346025  0.12674640  0.12265421  1
  O  O176  1  0.62121724  0.11454200  0.62618123  1
  O  O177  1  0.61814001  0.64310124  0.12689619  1
  O  O178  1  0.61508250  0.62307714  0.62465885  1
  O  O179  1  0.38197682  0.37969394  0.38176741  1
  O  O180  1  0.36230856  0.38512645  0.88030203  1
  O  O181  1  0.37689066  0.87936467  0.38450291  1
  O  O182  1  0.37905527  0.87745320  0.87960293  1
  O  O183  1  0.88568043  0.36859294  0.37911390  1
  O  O184  1  0.88346428  0.38234657  0.87111561  1
  O  O185  1  0.88724124  0.87925076  0.38190515  1
  O  O186  1  0.87623930  0.87532943  0.89016570  1
  O  O187  1  0.26661950  -0.00374743  0.37574799  1
  O  O188  1  0.25668189  0.00557141  0.87282672  1
  O  O189  1  0.25401306  0.51068814  0.37069812  1
  O  O190  1  0.25155511  0.51040783  0.87756246  1
  O  O191  1  0.77440970  -0.01878691  0.35765780  1
  O  O192  1  0.75158546  -0.00317787  0.87121866  1
  O  O193  1  0.74072924  0.51477816  0.36643221  1
  O  O194  1  0.75858762  0.50829623  0.87656725  1
  O  O195  1  0.24694010  0.50718912  0.13480645  1
  O  O196  1  0.24763777  0.48503553  0.62058792  1
  O  O197  1  0.24819684  0.98843807  0.12671595  1
  O  O198  1  0.24178319  0.99065483  0.62898553  1
  O  O199  1  0.75358161  0.47930764  0.12505457  1
  O  O200  1  0.74702439  0.49141277  0.63190632  1
  O  O201  1  0.75145056  0.98786537  0.12183537  1
  O  O202  1  0.73184128  0.99999248  0.62574381  1
  O  O203  1  0.00530748  0.37331293  0.25579029  1
  O  O204  1  0.00858063  0.37739311  0.75978230  1
  O  O205  1  0.00846661  0.86519032  0.25288615  1
  O  O206  1  0.00850077  0.86293918  0.74393390  1
  O  O207  1  0.49184318  0.36672691  0.26127560  1
  O  O208  1  0.51045022  0.36620496  0.74914631  1
  O  O209  1  0.51741263  0.87742479  0.25322686  1
  O  O210  1  0.50642281  0.86750208  0.75675784  1
  O  O211  1  0.49096627  0.13284555  0.24247709  1
  O  O212  1  0.49215932  0.13897563  0.75319821  1
  O  O213  1  0.48671945  0.62036634  0.25546815  1
  O  O214  1  0.49513203  0.62974584  0.74519034  1
  O  O215  1  1.00240810  0.13183667  0.23696924  1
  O  O216  1  1.00967868  0.12149426  0.72352301  1
  O  O217  1  0.99821116  0.62886419  0.24125823  1
  O  O218  1  1.00020157  0.63609081  0.74221853  1
  O  O219  1  0.36814714  0.25252827  0.00429810  1
  O  O220  1  0.37478477  0.25487180  0.50709206  1
  O  O221  1  0.37353274  0.75432527  0.01185796  1
  O  O222  1  0.37814361  0.75617959  0.51132973  1
  O  O223  1  0.85840883  0.24085972  0.00934177  1
  O  O224  1  0.88154858  0.26460381  0.50130554  1
  O  O225  1  0.86732397  0.75624571  -0.00165110  1
  O  O226  1  0.87449639  0.75987323  0.50899292  1
  O  O227  1  0.12784136  0.24230672  0.48865684  1
  O  O228  1  0.13238819  0.24617692  0.99525933  1
  O  O229  1  0.11728290  0.73618359  0.49357717  1
  O  O230  1  0.12549215  0.74200255  0.99211541  1
  O  O231  1  0.61409792  0.25072648  0.49237875  1
  O  O232  1  0.63563295  0.23686833  1.00062840  1
  O  O233  1  0.62950172  0.75151356  0.48804363  1
  O  O234  1  0.63675108  0.75274481  0.99376569  1
  O  O235  1  0.49266822  0.24517042  0.13062953  1
  O  O236  1  0.48472647  0.25558072  0.63548788  1
  O  O237  1  0.48811338  0.75727322  0.12341908  1
  O  O238  1  0.49160810  0.73873637  0.62826371  1
  O  O239  1  0.99427052  0.24282223  0.12630222  1
  O  O240  1  1.00358620  0.23628875  0.61460474  1
  O  O241  1  1.00977094  0.73630787  0.13532382  1
  O  O242  1  0.99332820  0.74018279  0.63213051  1
  O  O243  1  0.00897953  0.25718254  0.36787348  1
  O  O244  1  0.01008821  0.26346312  0.88935314  1
  O  O245  1  0.00729643  0.75305756  0.36787080  1
  O  O246  1  0.01360216  0.74281272  0.86679116  1
  O  O247  1  0.50408474  0.25975892  0.36880767  1
  O  O248  1  0.49375378  0.25249824  0.86227505  1
  O  O249  1  0.51641485  0.75510153  0.37961594  1
  O  O250  1  0.50646562  0.75480156  0.87178737  1
  O  O251  1  0.23863454  0.12577529  0.50230994  1
  O  O252  1  0.24582002  0.13192424  0.99345641  1
  O  O253  1  0.23936523  0.61980465  0.49182153  1
  O  O254  1  0.23661463  0.62499665  0.98969964  1
  O  O255  1  0.73742256  0.08095076  0.47593871  1
  O  O256  1  0.73804251  0.13459499  1.00399850  1
  O  O257  1  0.74825117  0.62319931  0.48951202  1
  O  O258  1  0.75021804  0.63306973  0.99272438  1
  O  O259  1  0.25644827  0.36084141  -0.00293356  1
  O  O260  1  0.25575068  0.37308910  0.50422408  1
  O  O261  1  0.26018222  0.87272376  0.00849678  1
  O  O262  1  0.26001881  0.87792158  0.51338725  1
  O  O263  1  0.74429681  0.35995617  0.01294825  1
  O  O264  1  0.75921061  0.38600016  0.50591707  1
  O  O265  1  0.75781828  0.86788221  0.01202022  1
  O  O266  1  0.76460513  0.87910202  0.49565788  1
  O  O267  1  0.13176987  0.49879222  0.24186791  1
  O  O268  1  0.12222883  0.48931195  0.74859468  1
  O  O269  1  0.12755268  0.99263933  0.24445569  1
  O  O270  1  0.12185777  0.98685989  0.74702814  1
  O  O271  1  0.64076178  0.50693647  0.23674093  1
  O  O272  1  0.61986473  0.48976668  0.75572875  1
  O  O273  1  0.62327589  0.99116764  0.25173889  1
  O  O274  1  0.61689420  0.98825038  0.73470861  1
  O  O275  1  0.37806400  0.00801800  0.25949090  1
  O  O276  1  0.37640130  0.00802804  0.75456648  1
  O  O277  1  0.36694181  0.50766348  0.25685731  1
  O  O278  1  0.37027579  0.49830102  0.76290588  1
  O  O279  1  0.89577650  0.00344387  0.26389808  1
  O  O280  1  0.87395895  0.00611562  0.75347553  1
  O  O281  1  0.85595988  0.50323318  0.24508494  1
  O  O282  1  0.87623157  0.50332184  0.76348369  1
  O  O283  1  0.11525778  0.36942858  0.36972643  1
  O  O284  1  0.12022752  0.36897868  0.86697757  1
  O  O285  1  0.12346559  0.86855845  0.37185957  1
  O  O286  1  0.13513206  0.86316022  0.86692081  1
  O  O287  1  0.61119259  0.36735320  0.38124127  1
  O  O288  1  0.62834755  0.37413592  0.86428255  1
  O  O289  1  0.63007624  0.87538192  0.36510989  1
  O  O290  1  0.62083827  0.86478834  0.86931124  1
  O  O291  1  0.38583234  0.13363374  0.12717995  1
  O  O292  1  0.36729672  0.13278378  0.63794177  1
  O  O293  1  0.36726177  0.64414331  0.13647754  1
  O  O294  1  0.37729020  0.63083102  0.62692387  1
  O  O295  1  0.88326794  0.13097094  0.12533812  1
  O  O296  1  0.89002522  0.12791221  0.61120585  1
  O  O297  1  0.88910126  0.61936273  0.11972076  1
  O  O298  1  0.88229039  0.63255141  0.62644072  1
  O  O299  1  0.25851600  0.24221131  0.11423354  1
  O  O300  1  0.26051504  0.26050805  0.62217536  1
  O  O301  1  0.25243051  0.76202997  0.12403337  1
  O  O302  1  0.25749929  0.75593078  0.62802083  1
  O  O303  1  0.75461371  0.26186797  0.12397532  1
  O  O304  1  0.74785103  0.26672423  0.62226209  1
  O  O305  1  0.75069954  0.76005202  0.11795041  1
  O  O306  1  0.76197360  0.74413783  0.62445602  1
  O  O307  1  0.23683376  0.25567948  0.37224674  1
  O  O308  1  0.24055560  0.24288560  0.88162668  1
  O  O309  1  0.24489544  0.73770560  0.37127694  1
  O  O310  1  0.24052880  0.73718658  0.87712846  1
  O  O311  1  0.73014214  0.25586026  0.37815112  1
  O  O312  1  0.75544565  0.25787854  0.89028676  1
  O  O313  1  0.74565510  0.73955597  0.37893219  1
  O  O314  1  0.74477586  0.74613587  0.88405939  1
  O  O315  1  0.00772435  0.11651437  0.01213285  1
  O  O316  1  0.01216062  0.11669154  0.50297847  1
  O  O317  1  0.01172684  0.61607706  0.00389859  1
  O  O318  1  0.00341028  0.61979470  0.50589799  1
  O  O319  1  0.51013872  0.12391709  0.00591189  1
  O  O320  1  0.49223130  0.11009289  0.50227008  1
  O  O321  1  0.51118934  0.61043933  -0.02699509  1
  O  O322  1  0.50052945  0.61833245  0.50918486  1
  O  O323  1  0.49184779  0.38375034  0.49625753  1
  O  O324  1  0.48480796  0.37216402  1.00025870  1
  O  O325  1  0.48449143  0.88154597  0.50262654  1
  O  O326  1  0.49791038  0.88008377  0.99620998  1
  O  O327  1  0.99638760  0.38314619  0.49218631  1
  O  O328  1  1.00755555  0.38767882  0.99089829  1
  O  O329  1  0.99782955  0.88217416  0.49493784  1
  O  O330  1  0.98927084  0.88144613  1.01545897  1
  O  O331  1  0.49113458  0.49303752  0.38456097  1
  O  O332  1  0.48044619  0.49231904  0.87210224  1
  O  O333  1  0.49062764  0.99626436  0.38895413  1
  O  O334  1  0.49564023  0.99361138  0.87979557  1
  O  O335  1  1.00408040  0.49054787  0.38229631  1
  O  O336  1  0.99518387  0.49256509  0.88179686  1
  O  O337  1  1.00014042  0.99374094  0.38438844  1
  O  O338  1  1.01812383  0.98543736  0.89498962  1
  O  O339  1  0.00834132  0.00675832  0.12102624  1
  O  O340  1  0.00591316  0.00457803  0.61142179  1
  O  O341  1  0.00835700  0.50472507  0.11773094  1
  O  O342  1  0.00077395  0.51195465  0.62002273  1
  O  O343  1  0.50108698  0.01017651  0.11862681  1
  O  O344  1  0.50187490  -0.00050220  0.61658316  1
  O  O345  1  0.46995655  0.50878861  0.11736062  1
  O  O346  1  0.49521248  0.51134088  0.62016572  1
  O  O347  1  0.24334919  0.39142558  0.25677863  1
  O  O348  1  0.23795163  0.36918143  0.74075076  1
  O  O349  1  0.24529312  0.87752486  0.24349642  1
  O  O350  1  0.24230748  0.87476189  0.73982788  1
  O  O351  1  0.74850915  0.38000156  0.23593063  1
  O  O352  1  0.73340106  0.37703023  0.74423281  1
  O  O353  1  0.74772027  0.87116839  0.23884168  1
  O  O354  1  0.73408600  0.87502648  0.75027649  1
  O  O355  1  0.26555668  0.12248536  0.24218177  1
  O  O356  1  0.25647459  0.12445062  0.75608085  1
  O  O357  1  0.25380698  0.61685045  0.25951034  1
  O  O358  1  0.24674607  0.62668637  0.76368067  1
  O  O359  1  0.75140149  0.12719127  0.26132905  1
  O  O360  1  0.75131294  0.12297862  0.74632215  1
  O  O361  1  0.75565892  0.62222713  0.26150848  1
  O  O362  1  0.75337392  0.62426548  0.76439994  1
  O  O363  1  0.38015850  0.11877235  0.36526296  1
  O  O364  1  0.36946444  0.11964997  0.86534188  1
  O  O365  1  0.36825630  0.62436893  0.37144421  1
  O  O366  1  0.35981977  0.61318259  0.87437311  1
  O  O367  1  0.87857706  0.11033895  0.37637113  1
  O  O368  1  0.92021721  0.11051216  0.86477575  1
  O  O369  1  0.86343281  0.62737734  0.37673487  1
  O  O370  1  0.86907257  0.61923942  0.87468374  1
  O  O371  1  0.12263244  0.38855045  0.12979500  1
  O  O372  1  0.13044930  0.37502351  0.63226131  1
  O  O373  1  0.13424995  0.87890353  0.12916763  1
  O  O374  1  0.13087168  0.87771700  0.62971841  1
  O  O375  1  0.62800536  0.37033883  0.12613723  1
  O  O376  1  0.62825860  0.38189974  0.63221010  1
  O  O377  1  0.63788404  0.87921386  0.13974343  1
  O  O378  1  0.61829115  0.87005438  0.63661096  1
  O  O379  1  0.11996194  0.25680235  0.25257063  1
  O  O380  1  0.12713518  0.25469277  0.76095802  1
  O  O381  1  0.11946133  0.75263511  0.25750986  1
  O  O382  1  0.11866998  0.75906964  0.75580283  1
  O  O383  1  0.61120244  0.25106835  0.25256781  1
  O  O384  1  0.61019631  0.25956158  0.74626943  1
  O  O385  1  0.63258363  0.76508119  0.26640088  1
  O  O386  1  0.61937332  0.75893125  0.75590013  1
  O  O387  1  0.37939090  0.24534713  0.24251998  1
  O  O388  1  0.38179239  0.24475738  0.74586250  1
  O  O389  1  0.37458945  0.74683799  0.24005188  1
  O  O390  1  0.37981134  0.74765149  0.73957939  1
  O  O391  1  0.88214056  0.24795319  0.24252967  1
  O  O392  1  0.87938088  0.24787910  0.74322221  1
  O  O393  1  0.88894874  0.74766214  0.25493378  1
  O  O394  1  0.88194916  0.75283946  0.74537913  1
  O  O395  1  0.38268288  0.49674428  0.49485486  1
  O  O396  1  0.36844495  0.48710069  0.98648667  1
  O  O397  1  0.38091586  0.99425595  0.49850734  1
  O  O398  1  0.38272500  0.99509219  0.99452849  1
  O  O399  1  0.88826849  0.49185834  0.50259443  1
  O  O400  1  0.88566753  0.50357281  0.98810317  1
  O  O401  1  0.88618546  0.99317597  0.49057510  1
  O  O402  1  0.88600455  0.99285373  0.99776785  1
  O  O403  1  0.12418292  0.00353849  0.01066774  1
  O  O404  1  0.12085920  0.00530277  0.50230673  1
  O  O405  1  0.12163931  0.50412736  0.00579305  1
  O  O406  1  0.11347711  0.51120221  0.50178300  1
  O  O407  1  0.62156651  0.01231824  0.00514167  1
  O  O408  1  0.60630885  -0.01249776  0.51712578  1
  O  O409  1  0.62581107  0.50261258  0.00546888  1
  O  O410  1  0.61037897  0.50303822  0.50168424  1
  O  O411  1  0.37161195  0.35998663  0.11654307  1
  O  O412  1  0.36873086  0.37009635  0.62080776  1
  O  O413  1  0.37117994  0.86735377  0.12448640  1
  O  O414  1  0.36698413  0.86686887  0.62127466  1
  O  O415  1  0.88196694  0.36209535  0.12198563  1
  O  O416  1  0.86691715  0.37550410  0.61600883  1
  O  O417  1  0.86401341  0.87724972  0.12003509  1
  O  O418  1  0.88423949  0.86564956  0.61500285  1
  O  O419  1  0.12062904  0.13485629  0.38037358  1
  O  O420  1  0.12324398  0.13273553  0.88094262  1
  O  O421  1  0.13150596  0.62792746  0.38116353  1
  O  O422  1  0.13122620  0.62731458  0.87947726  1
  O  O423  1  0.61428346  0.14479992  0.37443511  1
  O  O424  1  0.61949676  0.12300955  0.88611939  1
  O  O425  1  0.63413173  0.64055715  0.37552258  1
  O  O426  1  0.63564845  0.64154854  0.87011298  1
