# generated using pymatgen
data_V85Zn86O256
_symmetry_space_group_name_H-M   'P 1'
_cell_length_a   16.94880795
_cell_length_b   16.93191355
_cell_length_c   16.93626751
_cell_angle_alpha   90.04228717
_cell_angle_beta   89.99551605
_cell_angle_gamma   90.03365229
_symmetry_Int_Tables_number   1
_chemical_formula_structural   V85Zn86O256
_chemical_formula_sum   'V85 Zn86 O256'
_cell_volume   4860.29591007
_cell_formula_units_Z   1
loop_
 _symmetry_equiv_pos_site_id
 _symmetry_equiv_pos_as_xyz
  1  'x, y, z'
loop_
 _atom_site_type_symbol
 _atom_site_label
 _atom_site_symmetry_multiplicity
 _atom_site_fract_x
 _atom_site_fract_y
 _atom_site_fract_z
 _atom_site_occupancy
  V  V0  1  0.24653899  0.37141127  0.62016383  1
  V  V1  1  0.37537188  0.25169820  0.62837175  1
  V  V2  1  0.62593624  0.87389510  0.75324299  1
  V  V3  1  0.12412319  0.87997041  0.74853464  1
  V  V4  1  0.49601704  0.49881678  0.49342889  1
  V  V5  1  0.37428814  0.86804838  0.00483140  1
  V  V6  1  -0.00112679  0.74960238  0.25240892  1
  V  V7  1  0.37888814  0.87580466  0.49883091  1
  V  V8  1  0.74947677  0.50074973  0.75784594  1
  V  V9  1  -0.00343151  0.61986326  0.11758647  1
  V  V10  1  0.74695870  0.74919628  0.49675549  1
  V  V11  1  -0.00160621  0.75004192  0.75085906  1
  V  V12  1  0.37496028  0.75161254  0.62373873  1
  V  V13  1  0.12767443  0.87675458  0.25471641  1
  V  V14  1  0.12197396  0.62494992  0.49741091  1
  V  V15  1  0.25033884  0.23842948  -0.00107788  1
  V  V16  1  0.87333956  0.24375090  0.11741194  1
  V  V17  1  -0.00169201  0.62326357  0.62514129  1
  V  V18  1  0.62717216  0.74509294  0.87609499  1
  V  V19  1  0.75087505  0.36882726  0.62274860  1
  V  V20  1  0.86933891  0.62052510  0.24899566  1
  V  V21  1  0.50398190  0.13417342  0.62837489  1
  V  V22  1  0.74394959  0.62969261  0.36896675  1
  V  V23  1  0.76082912  0.37675245  0.10176208  1
  V  V24  1  -0.00161331  0.37010683  0.88154419  1
  V  V25  1  0.88048589  0.49866964  0.88811186  1
  V  V26  1  0.24639335  0.88422237  0.62625064  1
  V  V27  1  0.62408557  0.13563027  0.00384822  1
  V  V28  1  0.50043765  0.75069512  0.74918177  1
  V  V29  1  0.01240818  0.37216844  0.37026748  1
  V  V30  1  0.63905080  0.13322341  0.49916009  1
  V  V31  1  0.12371407  0.00718539  0.12769472  1
  V  V32  1  0.37612650  0.12896124  0.75617914  1
  V  V33  1  0.49944622  0.62506832  0.62335684  1
  V  V34  1  0.48835840  0.63177152  0.11887652  1
  V  V35  1  0.62465609  0.25093756  0.87524200  1
  V  V36  1  0.75300357  0.87345386  0.62569786  1
  V  V37  1  0.25782961  0.01184401  0.25176424  1
  V  V38  1  0.87818368  0.13583468  0.75405533  1
  V  V39  1  0.62600839  0.62136770  -0.00009221  1
  V  V40  1  0.50973794  0.86841485  0.37460237  1
  V  V41  1  0.49866737  0.12576024  0.14208915  1
  V  V42  1  0.24456522  0.49901363  0.74635348  1
  V  V43  1  0.37361265  0.49921101  0.36977520  1
  V  V44  1  -0.00177946  0.01166915  0.51818088  1
  V  V45  1  0.37285477  0.36602008  0.49321790  1
  V  V46  1  0.49697547  0.36767207  0.86996259  1
  V  V47  1  -0.00734915  0.88814658  0.37571225  1
  V  V48  1  0.86711781  0.87638025  0.00355857  1
  V  V49  1  0.25265604  0.86742715  0.12850005  1
  V  V50  1  0.50623296  0.00172447  0.49873075  1
  V  V51  1  0.49894037  0.87652639  0.87567960  1
  V  V52  1  0.62489343  0.49799570  0.62645683  1
  V  V53  1  0.88261898  0.25088477  0.62092725  1
  V  V54  1  0.37250139  0.62572452  0.74755111  1
  V  V55  1  0.24795143  0.75355559  0.49838071  1
  V  V56  1  -0.00180012  0.00436581  0.00795368  1
  V  V57  1  -0.00114193  0.87443416  0.87946774  1
  V  V58  1  0.62629613  -0.00021096  0.62697687  1
  V  V59  1  0.00906190  0.24522462  0.24098215  1
  V  V60  1  0.50003633  0.00371001  0.00177054  1
  V  V61  1  0.37948115  0.01416717  0.37057111  1
  V  V62  1  0.37563515  0.24528237  0.13990846  1
  V  V63  1  0.13340765  0.23557153  0.38399197  1
  V  V64  1  0.62117970  0.36698509  0.74579479  1
  V  V65  1  0.86926130  0.62364209  0.75448735  1
  V  V66  1  0.49692811  0.49763434  -0.00675180  1
  V  V67  1  0.86734958  0.75230335  0.12629447  1
  V  V68  1  0.62434699  0.62610606  0.49612361  1
  V  V69  1  0.60838499  0.47195179  0.13327967  1
  V  V70  1  0.37188021  0.49766916  0.87184003  1
  V  V71  1  0.12776450  0.24551843  0.86884298  1
  V  V72  1  0.24059580  0.49953782  0.24818935  1
  V  V73  1  0.63424229  0.86808152  0.24115913  1
  V  V74  1  0.49214235  0.75143023  0.24813121  1
  V  V75  1  0.74754780  0.74696147  -0.00079179  1
  V  V76  1  0.11767205  0.49425121  0.11833261  1
  V  V77  1  0.87906176  0.49457970  0.37163312  1
  V  V78  1  0.75741764  0.00779988  0.25264047  1
  V  V79  1  0.24502170  0.62691702  0.87590852  1
  V  V80  1  0.36428720  0.00373713  0.87661699  1
  V  V81  1  0.24443346  0.37162354  0.12636934  1
  V  V82  1  0.74887598  0.13229395  0.88320615  1
  V  V83  1  0.69965341  0.45037327  0.28587120  1
  V  V84  1  0.75135152  0.00292039  0.75438170  1
  Zn  Zn85  1  0.63124800  -0.00226925  0.12307161  1
  Zn  Zn86  1  0.87197212  0.87724769  0.49355971  1
  Zn  Zn87  1  0.24806576  0.74602241  0.00663715  1
  Zn  Zn88  1  0.24745019  0.62746307  0.37125583  1
  Zn  Zn89  1  0.87380087  0.74827363  0.62374886  1
  Zn  Zn90  1  0.14589661  0.12452855  0.51973024  1
  Zn  Zn91  1  0.36792093  0.63083225  0.24444938  1
  Zn  Zn92  1  0.12349805  0.12398337  -0.00123230  1
  Zn  Zn93  1  0.12352838  0.74930205  0.88013068  1
  Zn  Zn94  1  0.87375766  0.00361246  0.88028467  1
  Zn  Zn95  1  0.24116496  0.01166308  0.75170426  1
  Zn  Zn96  1  0.12304081  0.75267304  0.37564396  1
  Zn  Zn97  1  0.12215916  0.49754891  0.62260191  1
  Zn  Zn98  1  0.88368656  0.12252108  0.25518304  1
  Zn  Zn99  1  0.11508244  0.37178348  0.74468836  1
  Zn  Zn100  1  0.37326392  0.37053741  -0.00018431  1
  Zn  Zn101  1  0.12029962  0.62509751  -0.00101922  1
  Zn  Zn102  1  0.87249818  0.36753359  0.49205687  1
  Zn  Zn103  1  0.62287974  0.26994902  0.35068438  1
  Zn  Zn104  1  0.01379422  0.13268587  0.64061273  1
  Zn  Zn105  1  0.75681303  0.14712211  0.38093428  1
  Zn  Zn106  1  -0.00205398  0.49642096  0.50004535  1
  Zn  Zn107  1  0.18576332  0.18886790  0.19136283  1
  Zn  Zn108  1  0.19353234  0.18959190  0.68932743  1
  Zn  Zn109  1  0.18274230  0.68544991  0.18669421  1
  Zn  Zn110  1  0.18330928  0.69222261  0.68644651  1
  Zn  Zn111  1  0.69404855  0.18860165  0.18438700  1
  Zn  Zn112  1  0.69129528  0.18908280  0.68690778  1
  Zn  Zn113  1  0.67940446  0.68596662  0.18311062  1
  Zn  Zn114  1  0.68808589  0.68520511  0.68636409  1
  Zn  Zn115  1  0.30527615  0.31576330  0.31187859  1
  Zn  Zn116  1  0.30857341  0.31027343  0.80867627  1
  Zn  Zn117  1  0.31592672  0.82117039  0.31685452  1
  Zn  Zn118  1  0.31139159  0.81427051  0.81377626  1
  Zn  Zn119  1  0.81794347  0.30020672  0.31171941  1
  Zn  Zn120  1  0.81274688  0.31603507  0.81522475  1
  Zn  Zn121  1  0.81132631  0.81072983  0.31287411  1
  Zn  Zn122  1  0.81287032  0.81094861  0.81681583  1
  Zn  Zn123  1  0.18837882  0.43922337  0.43829342  1
  Zn  Zn124  1  0.18386184  0.43286941  0.94076026  1
  Zn  Zn125  1  0.20004926  0.97068233  0.45063257  1
  Zn  Zn126  1  0.18533266  0.93453435  0.94056648  1
  Zn  Zn127  1  0.68835691  0.43691413  0.44774040  1
  Zn  Zn128  1  0.68537168  0.43693099  0.93724766  1
  Zn  Zn129  1  0.68824534  0.93721431  0.43379066  1
  Zn  Zn130  1  0.68682245  0.93965533  0.93969748  1
  Zn  Zn131  1  0.31341356  0.06058926  0.06808576  1
  Zn  Zn132  1  0.31929053  0.06548845  0.56248231  1
  Zn  Zn133  1  0.30924748  0.55880342  0.06003502  1
  Zn  Zn134  1  0.30966283  0.56267902  0.55910641  1
  Zn  Zn135  1  0.80908713  0.06179641  0.07049084  1
  Zn  Zn136  1  0.82223592  0.06014614  0.56423805  1
  Zn  Zn137  1  0.80170789  0.56132855  0.06812018  1
  Zn  Zn138  1  0.81289885  0.55920268  0.56252473  1
  Zn  Zn139  1  0.43001752  0.43985811  0.18265034  1
  Zn  Zn140  1  0.43657905  0.43678811  0.68474220  1
  Zn  Zn141  1  0.43959826  0.93777743  0.18775359  1
  Zn  Zn142  1  0.43581397  0.94175473  0.68793898  1
  Zn  Zn143  1  0.93684470  0.43129938  0.18924078  1
  Zn  Zn144  1  0.93745292  0.43557243  0.69240036  1
  Zn  Zn145  1  0.93532134  0.93627206  0.18745541  1
  Zn  Zn146  1  0.93312324  0.93834746  0.69159272  1
  Zn  Zn147  1  0.06371885  0.06388647  0.31140641  1
  Zn  Zn148  1  0.06053927  0.06058208  0.81695476  1
  Zn  Zn149  1  0.06206726  0.56369073  0.30937371  1
  Zn  Zn150  1  0.05891461  0.55829495  0.81301465  1
  Zn  Zn151  1  0.57540026  0.05850983  0.31516453  1
  Zn  Zn152  1  0.55965195  0.06416131  0.81392745  1
  Zn  Zn153  1  0.55510949  0.56549440  0.30928228  1
  Zn  Zn154  1  0.56293118  0.56208652  0.81171802  1
  Zn  Zn155  1  0.45460590  0.19232105  0.42554418  1
  Zn  Zn156  1  0.43697571  0.18898408  0.94369582  1
  Zn  Zn157  1  0.43490245  0.68628119  0.43157858  1
  Zn  Zn158  1  0.43492218  0.68730367  0.93341530  1
  Zn  Zn159  1  0.93921517  0.18582569  0.43636679  1
  Zn  Zn160  1  0.94143364  0.18799414  0.93601937  1
  Zn  Zn161  1  0.93292242  0.68912184  0.43646950  1
  Zn  Zn162  1  0.93261643  0.68638245  0.93603097  1
  Zn  Zn163  1  0.06114858  0.31394762  0.05644777  1
  Zn  Zn164  1  0.05999957  0.30981232  0.55663354  1
  Zn  Zn165  1  0.06266049  0.81158259  0.06542296  1
  Zn  Zn166  1  0.06197095  0.81411132  0.56244859  1
  Zn  Zn167  1  0.56378838  0.30749748  0.17158686  1
  Zn  Zn168  1  0.55007235  0.29975163  0.52539061  1
  Zn  Zn169  1  0.55995011  0.81162915  0.06384231  1
  Zn  Zn170  1  0.56707430  0.81183389  0.56217161  1
  O  O171  1  0.12938491  0.11037230  0.12361698  1
  O  O172  1  0.12556473  0.12592458  0.63119287  1
  O  O173  1  0.11153232  0.61703603  0.12536872  1
  O  O174  1  0.11507411  0.62563923  0.61743564  1
  O  O175  1  0.61685941  0.12267982  0.11662055  1
  O  O176  1  0.62144644  0.11710522  0.62412997  1
  O  O177  1  0.61076890  0.62016255  0.11205238  1
  O  O178  1  0.61955489  0.61741777  0.61862987  1
  O  O179  1  0.36754859  0.38642657  0.38202467  1
  O  O180  1  0.38066363  0.37962962  0.87077434  1
  O  O181  1  0.39111374  0.88209887  0.38314603  1
  O  O182  1  0.38050001  0.88366732  0.88053700  1
  O  O183  1  0.88473243  0.38093743  0.37255894  1
  O  O184  1  0.88436402  0.38650897  0.87406104  1
  O  O185  1  0.88922359  0.87060267  0.37272461  1
  O  O186  1  0.88083103  0.87780678  0.88529240  1
  O  O187  1  0.26932636  -0.01538817  0.35981281  1
  O  O188  1  0.26136394  -0.00401158  0.87526682  1
  O  O189  1  0.25300917  0.50103291  0.36439029  1
  O  O190  1  0.25168099  0.50665709  0.86757103  1
  O  O191  1  0.74597628  -0.00687253  0.35479538  1
  O  O192  1  0.74961370  0.00939483  0.86910196  1
  O  O193  1  0.75659477  0.50193863  0.36347274  1
  O  O194  1  0.75807252  0.49289827  0.86358713  1
  O  O195  1  0.24337068  0.49171916  0.12927647  1
  O  O196  1  0.24869767  0.49438083  0.63166011  1
  O  O197  1  0.24435090  0.98918172  0.13273061  1
  O  O198  1  0.26404263  0.98517881  0.63497720  1
  O  O199  1  0.73786890  0.48256183  0.12132502  1
  O  O200  1  0.74581831  0.49402513  0.63606996  1
  O  O201  1  0.74610727  0.99871398  0.14240772  1
  O  O202  1  0.74705656  0.99287758  0.63410421  1
  O  O203  1  0.00032354  0.36507207  0.26387086  1
  O  O204  1  0.00393310  0.38739869  0.77013088  1
  O  O205  1  0.00436319  0.86962786  0.25751616  1
  O  O206  1  0.00275436  0.87174072  0.75842750  1
  O  O207  1  0.53816271  0.41362898  0.20414948  1
  O  O208  1  0.51035428  0.38399849  0.75710602  1
  O  O209  1  0.50695742  0.86924655  0.25561961  1
  O  O210  1  0.50676148  0.87173555  0.75402704  1
  O  O211  1  0.50389858  0.11016526  0.23998692  1
  O  O212  1  0.49295148  0.11897102  0.73667290  1
  O  O213  1  0.49606543  0.63392892  0.23782602  1
  O  O214  1  0.49309033  0.62976493  0.74386014  1
  O  O215  1  1.00251298  0.14052175  0.25025132  1
  O  O216  1  0.98145953  0.11578455  0.75501473  1
  O  O217  1  0.98797567  0.63261196  0.24540877  1
  O  O218  1  0.99304958  0.62874896  0.74339244  1
  O  O219  1  0.36437597  0.25140370  0.00643525  1
  O  O220  1  0.38011248  0.26301973  0.50440977  1
  O  O221  1  0.37263728  0.76481354  -0.00731721  1
  O  O222  1  0.36853900  0.75571714  0.50333541  1
  O  O223  1  0.89042610  0.24740127  0.01913182  1
  O  O224  1  0.87693456  0.24972679  0.51724034  1
  O  O225  1  0.86598491  0.75361171  0.00574032  1
  O  O226  1  0.86064886  0.75189353  0.50309450  1
  O  O227  1  0.12299980  0.24049317  0.48927650  1
  O  O228  1  0.13231267  0.24626463  0.99263282  1
  O  O229  1  0.13141313  0.74300504  0.49928641  1
  O  O230  1  0.12813865  0.74573578  0.99906860  1
  O  O231  1  0.64225240  0.23037582  0.52132661  1
  O  O232  1  0.62125919  0.23627071  0.99058576  1
  O  O233  1  0.63710946  0.74084188  0.50424839  1
  O  O234  1  0.62960336  0.74388904  0.99776919  1
  O  O235  1  0.48280633  0.24094561  0.12192915  1
  O  O236  1  0.49369677  0.24051452  0.61585636  1
  O  O237  1  0.49843871  0.74258879  0.13120016  1
  O  O238  1  0.49641485  0.74501392  0.62930009  1
  O  O239  1  0.99775167  0.25859944  0.13683259  1
  O  O240  1  0.98695309  0.25298719  0.63026301  1
  O  O241  1  0.99109221  0.74292965  0.13591883  1
  O  O242  1  0.99610024  0.74045112  0.63074710  1
  O  O243  1  0.01083767  0.25776677  0.36890181  1
  O  O244  1  0.01076629  0.26082722  0.87812998  1
  O  O245  1  -0.00197347  0.75392560  0.36245774  1
  O  O246  1  -0.00326827  0.76034093  0.87123280  1
  O  O247  1  0.52790008  0.27242905  0.41365319  1
  O  O248  1  0.50323483  0.26303700  0.87908131  1
  O  O249  1  0.49949501  0.75705503  0.36668436  1
  O  O250  1  0.50470679  0.75676021  0.86808054  1
  O  O251  1  0.24113352  0.07468447  0.48726820  1
  O  O252  1  0.24837873  0.13472324  1.00438140  1
  O  O253  1  0.24082118  0.63593068  0.49948910  1
  O  O254  1  0.24995492  0.62689434  0.98912991  1
  O  O255  1  0.74040913  0.11115684  0.50197555  1
  O  O256  1  0.73943033  0.11631430  0.99144987  1
  O  O257  1  0.74540842  0.62905164  0.49197786  1
  O  O258  1  0.73709855  0.63251591  1.00342858  1
  O  O259  1  0.25096427  0.36636076  0.01142540  1
  O  O260  1  0.25967922  0.38402725  0.51227831  1
  O  O261  1  0.25743651  0.87405330  0.00964984  1
  O  O262  1  0.25442150  0.87300322  0.50784451  1
  O  O263  1  0.75852694  0.37638262  0.00283575  1
  O  O264  1  0.75677270  0.38449866  0.51741384  1
  O  O265  1  0.76091039  0.86945710  -0.00257672  1
  O  O266  1  0.74816268  0.86798260  0.50735498  1
  O  O267  1  0.13473740  0.50427602  0.23993146  1
  O  O268  1  0.13626797  0.50021271  0.74656078  1
  O  O269  1  0.13302830  0.99414269  0.24627115  1
  O  O270  1  0.12650753  0.98554088  0.75960239  1
  O  O271  1  0.63918572  0.52104346  0.23543723  1
  O  O272  1  0.63178692  0.49409450  0.74649442  1
  O  O273  1  0.63247548  0.98461599  0.24648777  1
  O  O274  1  0.63448845  0.99605073  0.74828736  1
  O  O275  1  0.37111558  -0.00263955  0.25820251  1
  O  O276  1  0.37653344  0.00754263  0.76214826  1
  O  O277  1  0.36400371  0.50112022  0.25478791  1
  O  O278  1  0.36340993  0.50475815  0.75187368  1
  O  O279  1  0.86268977  0.00111951  0.24546808  1
  O  O280  1  0.86120349  0.00539935  0.75449609  1
  O  O281  1  0.87864524  0.50934665  0.25911767  1
  O  O282  1  0.86656951  0.50626231  0.75695515  1
  O  O283  1  0.11451400  0.37017247  0.38185482  1
  O  O284  1  0.11655386  0.36702867  0.87375201  1
  O  O285  1  0.11384573  0.87466520  0.36242829  1
  O  O286  1  0.11526615  0.87107234  0.87134627  1
  O  O287  1  0.63656522  0.40268524  0.35003623  1
  O  O288  1  0.61733646  0.37156414  0.86692454  1
  O  O289  1  0.61489856  0.87570082  0.36405698  1
  O  O290  1  0.61903125  0.86823251  0.87166943  1
  O  O291  1  0.38145431  0.13645589  0.12433091  1
  O  O292  1  0.38440394  0.13280689  0.62880530  1
  O  O293  1  0.38433298  0.62184422  0.12265663  1
  O  O294  1  0.37840060  0.63185749  0.62829638  1
  O  O295  1  0.86946734  0.13984218  0.13227360  1
  O  O296  1  0.87334768  0.13903055  0.63573620  1
  O  O297  1  0.87591954  0.62970358  0.13182377  1
  O  O298  1  0.88058402  0.62436589  0.63484764  1
  O  O299  1  0.25613944  0.25289811  0.12131455  1
  O  O300  1  0.26383226  0.25882189  0.62503141  1
  O  O301  1  0.24636770  0.76292901  0.12757308  1
  O  O302  1  0.25461090  0.75792813  0.61490550  1
  O  O303  1  0.76512668  0.26167150  0.12423399  1
  O  O304  1  0.76282335  0.26163250  0.63423541  1
  O  O305  1  0.75577829  0.74515810  0.11330164  1
  O  O306  1  0.74940566  0.75754179  0.61915810  1
  O  O307  1  0.23071853  0.25587342  0.37189782  1
  O  O308  1  0.23725100  0.25704696  0.88463509  1
  O  O309  1  0.24957040  0.75428362  0.38819388  1
  O  O310  1  0.24970623  0.73557479  0.87229867  1
  O  O311  1  0.73536517  0.26145106  0.37424328  1
  O  O312  1  0.74281117  0.24021329  0.87159439  1
  O  O313  1  0.75139330  0.74069675  0.38331862  1
  O  O314  1  0.74335034  0.75192672  0.88899945  1
  O  O315  1  0.00021679  0.10732516  -0.00413362  1
  O  O316  1  -0.00222444  0.11629559  0.51050212  1
  O  O317  1  -0.00508315  0.62939226  0.01489651  1
  O  O318  1  0.00458367  0.62650258  0.50641850  1
  O  O319  1  0.50620737  0.11754820  0.00541824  1
  O  O320  1  0.51458002  0.11697426  0.50973815  1
  O  O321  1  0.50121869  0.61986785  0.00091424  1
  O  O322  1  0.50294391  0.61833657  0.50245775  1
  O  O323  1  0.48600493  0.39461729  0.51179055  1
  O  O324  1  0.49556069  0.39038250  0.98557906  1
  O  O325  1  0.50254336  0.87991235  0.49385647  1
  O  O326  1  0.49289848  0.88217788  0.99708799  1
  O  O327  1  0.99435615  0.37665279  0.48577978  1
  O  O328  1  1.00445038  0.38180534  0.98226789  1
  O  O329  1  0.99794509  0.87214630  0.48475407  1
  O  O330  1  0.98927958  0.87809025  0.99618434  1
  O  O331  1  0.48932686  0.50398152  0.38140784  1
  O  O332  1  0.49241437  0.49519632  0.87621650  1
  O  O333  1  0.50057204  0.99286080  0.38251192  1
  O  O334  1  0.49452098  0.99473693  0.88550747  1
  O  O335  1  0.99649164  0.48933325  0.37221721  1
  O  O336  1  0.98629297  0.49664858  0.87871702  1
  O  O337  1  0.99770466  0.98903011  0.37253931  1
  O  O338  1  0.99633006  0.98733309  0.88511619  1
  O  O339  1  0.01024446  -0.00892044  0.11942122  1
  O  O340  1  -0.00343726  0.00245415  0.62077205  1
  O  O341  1  0.00593376  0.50693081  0.13435542  1
  O  O342  1  -0.00082736  0.51128229  0.62289417  1
  O  O343  1  0.49772099  0.00738721  0.11338513  1
  O  O344  1  0.50657651  0.00583464  0.61802935  1
  O  O345  1  0.49961693  0.51186440  0.10698443  1
  O  O346  1  0.50328949  0.50888937  0.61918714  1
  O  O347  1  0.25145356  0.38384887  0.23492922  1
  O  O348  1  0.24855624  0.38331420  0.73706639  1
  O  O349  1  0.24296930  0.87836536  0.24527044  1
  O  O350  1  0.24003918  0.87218701  0.74333230  1
  O  O351  1  0.75428662  0.38041882  0.23804023  1
  O  O352  1  0.74133513  0.38238286  0.74425754  1
  O  O353  1  0.73649263  0.87042017  0.25026946  1
  O  O354  1  0.74526851  0.88042015  0.74687197  1
  O  O355  1  0.25026338  0.11098171  0.24667879  1
  O  O356  1  0.27040220  0.12490997  0.74914005  1
  O  O357  1  0.25068193  0.61731237  0.24951886  1
  O  O358  1  0.25297498  0.61965454  0.75241771  1
  O  O359  1  0.74783679  0.11373952  0.25534359  1
  O  O360  1  0.75549720  0.11847173  0.75896139  1
  O  O361  1  0.75990450  0.63633545  0.25458438  1
  O  O362  1  0.75830169  0.61631441  0.74697274  1
  O  O363  1  0.38772204  0.11346677  0.38331520  1
  O  O364  1  0.38680338  0.11659853  0.86753112  1
  O  O365  1  0.36874646  0.61245802  0.37175719  1
  O  O366  1  0.36699136  0.61846426  0.86576689  1
  O  O367  1  0.86855184  0.13738221  0.36761831  1
  O  O368  1  0.86553269  0.12609768  0.87258550  1
  O  O369  1  0.86460364  0.61905276  0.36717637  1
  O  O370  1  0.87932900  0.61346173  0.86332610  1
  O  O371  1  0.13107340  0.38140754  0.12197953  1
  O  O372  1  0.13162764  0.37512857  0.62374020  1
  O  O373  1  0.13024850  0.88174316  0.13713523  1
  O  O374  1  0.13418044  0.87085868  0.63428725  1
  O  O375  1  0.64224607  0.37339424  0.10770746  1
  O  O376  1  0.63198674  0.38034602  0.63136581  1
  O  O377  1  0.61890582  0.87702826  0.13775236  1
  O  O378  1  0.63503744  0.87924148  0.63271588  1
  O  O379  1  0.11447038  0.24963562  0.25786018  1
  O  O380  1  0.13340563  0.25479201  0.76566958  1
  O  O381  1  0.11491592  0.75728428  0.25057610  1
  O  O382  1  0.11517149  0.76038854  0.75374447  1
  O  O383  1  0.61400207  0.23966113  0.24249092  1
  O  O384  1  0.62671695  0.26133678  0.75419428  1
  O  O385  1  0.61350706  0.76093371  0.24478577  1
  O  O386  1  0.62054873  0.75250175  0.75547524  1
  O  O387  1  0.37176404  0.25349884  0.23915154  1
  O  O388  1  0.37769663  0.24472737  0.73923581  1
  O  O389  1  0.38701395  0.75168332  0.25508582  1
  O  O390  1  0.38101737  0.74669901  0.74420943  1
  O  O391  1  0.89157201  0.25207850  0.23782900  1
  O  O392  1  0.87093185  0.24318373  0.74531900  1
  O  O393  1  0.87881759  0.74424898  0.24220681  1
  O  O394  1  0.87889077  0.74093832  0.75071766  1
  O  O395  1  0.37872885  0.49666447  0.49099923  1
  O  O396  1  0.37957897  0.49723591  0.98891719  1
  O  O397  1  0.39391091  0.99344835  0.49682145  1
  O  O398  1  0.38027807  0.99391353  0.99397138  1
  O  O399  1  0.87584889  0.50244314  0.48217338  1
  O  O400  1  0.86533704  0.51090561  0.98476774  1
  O  O401  1  0.89179566  0.99273020  0.50255930  1
  O  O402  1  0.87923062  0.99134406  1.00550532  1
  O  O403  1  0.11692528  -0.00244764  0.00962436  1
  O  O404  1  0.09727673  -0.00546282  0.49640065  1
  O  O405  1  0.12933207  0.50518645  0.01459851  1
  O  O406  1  0.12277280  0.51397216  0.50133520  1
  O  O407  1  0.61455239  0.00565731  0.00148685  1
  O  O408  1  0.61919114  0.00096576  0.50694594  1
  O  O409  1  0.61475316  0.50381029  0.00455961  1
  O  O410  1  0.61479133  0.50551055  0.50515900  1
  O  O411  1  0.36751228  0.36212388  0.12214395  1
  O  O412  1  0.36983948  0.36759995  0.61958492  1
  O  O413  1  0.36606363  0.88099765  0.11616138  1
  O  O414  1  0.37189634  0.86848254  0.61929138  1
  O  O415  1  0.86605199  0.36965993  0.12296513  1
  O  O416  1  0.86997404  0.36563005  0.62727179  1
  O  O417  1  0.87888275  0.85962616  0.11833493  1
  O  O418  1  0.86139443  0.87184330  0.62713956  1
  O  O419  1  0.12506955  0.13415986  0.37716975  1
  O  O420  1  0.11931215  0.14058173  0.87672146  1
  O  O421  1  0.12499022  0.63072737  0.38286335  1
  O  O422  1  0.13106338  0.62510783  0.87599790  1
  O  O423  1  0.62895420  0.12414212  0.39402772  1
  O  O424  1  0.62962282  0.13005272  0.87900855  1
  O  O425  1  0.63789165  0.61583936  0.37762411  1
  O  O426  1  0.61624250  0.63060910  0.88875121  1
