# generated using pymatgen
data_V85Zn86O256
_symmetry_space_group_name_H-M   'P 1'
_cell_length_a   16.93612353
_cell_length_b   16.93757930
_cell_length_c   16.94111197
_cell_angle_alpha   89.98892220
_cell_angle_beta   89.92822180
_cell_angle_gamma   90.00586082
_symmetry_Int_Tables_number   1
_chemical_formula_structural   V85Zn86O256
_chemical_formula_sum   'V85 Zn86 O256'
_cell_volume   4859.67153203
_cell_formula_units_Z   1
loop_
 _symmetry_equiv_pos_site_id
 _symmetry_equiv_pos_as_xyz
  1  'x, y, z'
loop_
 _atom_site_type_symbol
 _atom_site_label
 _atom_site_symmetry_multiplicity
 _atom_site_fract_x
 _atom_site_fract_y
 _atom_site_fract_z
 _atom_site_occupancy
  V  V0  1  0.37658245  0.37482526  0.49881683  1
  V  V1  1  -0.00697457  0.50396202  0.00009720  1
  V  V2  1  0.87345132  -0.00076516  0.87499114  1
  V  V3  1  0.87536905  0.25158698  0.12463831  1
  V  V4  1  0.49460590  0.74669065  0.25088528  1
  V  V5  1  0.49985100  0.50120936  -0.00028434  1
  V  V6  1  0.50209893  0.87195403  0.37113269  1
  V  V7  1  -0.01275878  0.75659162  0.74064398  1
  V  V8  1  0.00045371  0.12627759  0.12559718  1
  V  V9  1  0.49175263  0.62537661  0.12862250  1
  V  V10  1  0.00504996  0.88346771  0.36865660  1
  V  V11  1  0.50441478  0.49763206  0.49714411  1
  V  V12  1  0.63725031  0.00170595  0.12738001  1
  V  V13  1  0.50349504  0.37639251  0.87296598  1
  V  V14  1  0.74929694  0.12565802  0.87488304  1
  V  V15  1  0.63580811  0.74366056  0.37312767  1
  V  V16  1  0.62910010  0.24222351  0.37434830  1
  V  V17  1  0.12646286  -0.00438199  0.63310299  1
  V  V18  1  0.86112713  0.75858839  0.13220463  1
  V  V19  1  0.12695382  0.50009695  0.12420298  1
  V  V20  1  0.86414132  0.12452706  0.25534648  1
  V  V21  1  0.35563416  0.25078386  0.12098826  1
  V  V22  1  0.12945787  0.37550510  0.24781636  1
  V  V23  1  0.37725956  0.00022880  0.37275802  1
  V  V24  1  0.37969795  0.12237795  0.24351734  1
  V  V25  1  0.12273111  0.25716968  0.37713558  1
  V  V26  1  0.62489953  -0.01163165  0.62650382  1
  V  V27  1  0.37697126  0.24917028  0.62570142  1
  V  V28  1  0.50278856  0.12460693  0.62646944  1
  V  V29  1  0.37381381  0.49975111  0.87458894  1
  V  V30  1  0.12063758  0.62778299  0.49992142  1
  V  V31  1  0.63484191  0.12158607  0.49954522  1
  V  V32  1  0.25261504  0.12598430  0.37403016  1
  V  V33  1  0.24503365  0.62926985  0.88227396  1
  V  V34  1  0.24715102  0.50233592  0.74994362  1
  V  V35  1  0.87376750  0.49931262  0.37479597  1
  V  V36  1  0.12406877  0.75422888  0.36754865  1
  V  V37  1  0.12621154  0.75041685  0.86850802  1
  V  V38  1  0.25308268  0.12248252  0.88446928  1
  V  V39  1  0.76048000  0.25903329  0.49965607  1
  V  V40  1  -0.00203231  0.25645350  0.25425962  1
  V  V41  1  0.37412009  0.62448571  0.74963653  1
  V  V42  1  0.37617375  0.50246751  0.37173166  1
  V  V43  1  0.37160461  0.87302022  -0.00917760  1
  V  V44  1  0.49232338  0.00815470  0.00496373  1
  V  V45  1  0.12591781  0.37191828  0.75138300  1
  V  V46  1  0.63454840  0.61793544  0.49641037  1
  V  V47  1  0.25555736  0.49893728  0.24637861  1
  V  V48  1  0.62647808  0.37303017  0.24946689  1
  V  V49  1  0.13064488  0.25251609  0.88704780  1
  V  V50  1  0.37288384  0.87427754  0.50076387  1
  V  V51  1  -0.01595983  0.63039281  0.62372367  1
  V  V52  1  0.86046881  0.00543083  0.37573319  1
  V  V53  1  0.25258543  0.62573981  0.37154071  1
  V  V54  1  0.75979170  0.37275963  0.63513817  1
  V  V55  1  0.50300374  0.62190709  0.62395828  1
  V  V56  1  0.87686379  0.87138360  0.50497468  1
  V  V57  1  -0.00558471  0.37652561  0.87564633  1
  V  V58  1  0.36743852  0.75093439  0.12360461  1
  V  V59  1  0.75656462  0.74326490  0.50842640  1
  V  V60  1  0.37323975  0.11833480  0.75364912  1
  V  V61  1  0.00752306  0.87605928  0.86922149  1
  V  V62  1  0.50197737  0.25156702  0.75081860  1
  V  V63  1  0.62392210  0.50104290  0.12481035  1
  V  V64  1  -0.00799252  0.62944640  0.13351495  1
  V  V65  1  0.12517338  0.12422554  0.50251067  1
  V  V66  1  0.74880161  0.24994088  0.00077079  1
  V  V67  1  0.50307233  0.00074771  0.49938223  1
  V  V68  1  0.62817629  0.49015086  0.64092233  1
  V  V69  1  0.50182161  0.24737003  0.23583682  1
  V  V70  1  -0.00301594  0.48241573  0.49352988  1
  V  V71  1  0.24312453  -0.00810505  0.24642864  1
  V  V72  1  0.62503326  0.25139159  0.86968646  1
  V  V73  1  0.12393050  0.50299180  0.62394995  1
  V  V74  1  0.75237935  0.37792730  0.12724172  1
  V  V75  1  0.25210143  0.37587552  0.62591415  1
  V  V76  1  0.25290236  0.25108712  0.49924953  1
  V  V77  1  0.50992047  0.75632188  0.75034646  1
  V  V78  1  0.87413692  0.13010350  0.74032108  1
  V  V79  1  0.37250494  0.74822948  0.62496707  1
  V  V80  1  0.75563614  0.51671242  0.25178235  1
  V  V81  1  0.00215624  0.00075430  -0.00002433  1
  V  V82  1  0.74482747  -0.00964784  0.75112135  1
  V  V83  1  0.36184812  0.37271602  0.00285661  1
  V  V84  1  0.50051871  0.37206135  0.37227680  1
  Zn  Zn85  1  0.62947124  0.75875288  0.87707493  1
  Zn  Zn86  1  0.62398265  0.63415457  -0.00225352  1
  Zn  Zn87  1  0.24183930  0.86577367  0.11911987  1
  Zn  Zn88  1  0.50306950  0.88621317  0.87099848  1
  Zn  Zn89  1  0.75148739  0.86697634  0.62807269  1
  Zn  Zn90  1  0.00102936  0.00053919  0.50136918  1
  Zn  Zn91  1  -0.00150487  0.12872443  0.62341784  1
  Zn  Zn92  1  0.11628472  -0.01177484  0.13217305  1
  Zn  Zn93  1  0.86914581  0.38068570  -0.00727628  1
  Zn  Zn94  1  0.12323289  0.63224945  0.00068523  1
  Zn  Zn95  1  0.24846708  0.75087232  0.49931834  1
  Zn  Zn96  1  -0.00348903  0.24961093  0.74781666  1
  Zn  Zn97  1  0.12959319  0.12960273  0.00706111  1
  Zn  Zn98  1  0.00072723  0.75305210  0.24854452  1
  Zn  Zn99  1  0.74323228  0.75980715  -0.00089802  1
  Zn  Zn100  1  0.24483373  0.87135730  0.63258512  1
  Zn  Zn101  1  0.75060027  0.62582261  0.87828272  1
  Zn  Zn102  1  0.24989577  -0.00662125  0.75818590  1
  Zn  Zn103  1  0.83610686  0.53927465  0.80072892  1
  Zn  Zn104  1  0.61434172  0.12730068  0.00562540  1
  Zn  Zn105  1  0.64643525  0.87373729  0.23480061  1
  Zn  Zn106  1  0.87167901  0.87776943  0.00783022  1
  Zn  Zn107  1  0.18538812  0.18144744  0.19152586  1
  Zn  Zn108  1  0.18836796  0.18620041  0.69032332  1
  Zn  Zn109  1  0.18465770  0.68209103  0.18870615  1
  Zn  Zn110  1  0.18186845  0.69097329  0.69205824  1
  Zn  Zn111  1  0.68506894  0.18228453  0.18273111  1
  Zn  Zn112  1  0.69028628  0.18696333  0.68532372  1
  Zn  Zn113  1  0.67787992  0.68811240  0.18201520  1
  Zn  Zn114  1  0.69830889  0.67487573  0.69247708  1
  Zn  Zn115  1  0.31262408  0.31350326  0.30891412  1
  Zn  Zn116  1  0.31335760  0.30903897  0.81527426  1
  Zn  Zn117  1  0.31443495  0.81035939  0.31136976  1
  Zn  Zn118  1  0.31195908  0.81223949  0.81100945  1
  Zn  Zn119  1  0.81490293  0.31743547  0.31680679  1
  Zn  Zn120  1  0.81095249  0.31554254  0.81096831  1
  Zn  Zn121  1  0.81792106  0.80720506  0.31204635  1
  Zn  Zn122  1  0.81370795  0.81213316  0.81899290  1
  Zn  Zn123  1  0.18628213  0.43886371  0.43672230  1
  Zn  Zn124  1  0.18205924  0.44378616  0.93672680  1
  Zn  Zn125  1  0.18871220  0.93927154  0.43798168  1
  Zn  Zn126  1  0.18556500  0.93889868  0.94117178  1
  Zn  Zn127  1  0.69190273  0.43361326  0.43356294  1
  Zn  Zn128  1  0.68696724  0.44260066  0.93270378  1
  Zn  Zn129  1  0.70571874  0.91496969  0.40766299  1
  Zn  Zn130  1  0.67910569  0.92855403  0.94256028  1
  Zn  Zn131  1  0.31528054  0.06062327  0.06385072  1
  Zn  Zn132  1  0.31098669  0.06117885  0.56473926  1
  Zn  Zn133  1  0.31262263  0.56216004  0.06217503  1
  Zn  Zn134  1  0.31156619  0.56339084  0.55832830  1
  Zn  Zn135  1  0.81299244  0.06397077  0.06199821  1
  Zn  Zn136  1  0.80934663  0.05764445  0.56011731  1
  Zn  Zn137  1  0.81235916  0.57058760  0.05508707  1
  Zn  Zn138  1  0.81222120  0.55131402  0.56171146  1
  Zn  Zn139  1  0.43487772  0.43257543  0.18451311  1
  Zn  Zn140  1  0.44078959  0.43734484  0.68855474  1
  Zn  Zn141  1  0.44084087  0.93427023  0.18155977  1
  Zn  Zn142  1  0.43389512  0.93579788  0.68597963  1
  Zn  Zn143  1  0.93690636  0.43840394  0.19080602  1
  Zn  Zn144  1  0.94303931  0.43241889  0.67981967  1
  Zn  Zn145  1  0.93348861  0.94086348  0.19274802  1
  Zn  Zn146  1  0.93978683  0.94214582  0.68709786  1
  Zn  Zn147  1  0.06056485  0.06931762  0.31440675  1
  Zn  Zn148  1  0.06330794  0.06768203  0.81480122  1
  Zn  Zn149  1  0.06179033  0.56168078  0.31488430  1
  Zn  Zn150  1  0.02922024  0.55804985  0.80269016  1
  Zn  Zn151  1  0.56554640  0.06189906  0.30773150  1
  Zn  Zn152  1  0.56325079  0.05997412  0.81797820  1
  Zn  Zn153  1  0.56449936  0.56291459  0.30946447  1
  Zn  Zn154  1  0.56825061  0.57031452  0.81355529  1
  Zn  Zn155  1  0.44296127  0.18652579  0.43499813  1
  Zn  Zn156  1  0.43388853  0.18843866  0.93969913  1
  Zn  Zn157  1  0.43930769  0.68471227  0.43831976  1
  Zn  Zn158  1  0.43757540  0.68965631  0.93680336  1
  Zn  Zn159  1  0.94022644  0.18888121  0.43745422  1
  Zn  Zn160  1  0.93756995  0.18949449  0.93559453  1
  Zn  Zn161  1  0.93637164  0.68531392  0.43022014  1
  Zn  Zn162  1  0.93117245  0.69089671  0.94033085  1
  Zn  Zn163  1  0.06219638  0.31759890  0.06467392  1
  Zn  Zn164  1  0.06250859  0.30686869  0.56911050  1
  Zn  Zn165  1  0.06332270  0.81385850  0.05659690  1
  Zn  Zn166  1  0.06109127  0.81352788  0.55794216  1
  Zn  Zn167  1  0.56229670  0.31600334  0.05740926  1
  Zn  Zn168  1  0.56691302  0.31132127  0.56116601  1
  Zn  Zn169  1  0.55930914  0.82049604  0.06109005  1
  Zn  Zn170  1  0.56211022  0.80801835  0.55809593  1
  O  O171  1  0.11124887  0.12312397  0.12647801  1
  O  O172  1  0.12927291  0.11778986  0.61622442  1
  O  O173  1  0.11665322  0.61546687  0.12276149  1
  O  O174  1  0.12370347  0.62037351  0.61551020  1
  O  O175  1  0.62280635  0.11268207  0.12146206  1
  O  O176  1  0.61913999  0.11966188  0.61739266  1
  O  O177  1  0.60893086  0.61689733  0.12259264  1
  O  O178  1  0.62257386  0.60713320  0.61638291  1
  O  O179  1  0.38018504  0.38038008  0.37858213  1
  O  O180  1  0.38333489  0.37871171  0.88144500  1
  O  O181  1  0.38415481  0.87798178  0.38088859  1
  O  O182  1  0.38149391  0.86701573  0.88799295  1
  O  O183  1  0.88311802  0.39590072  0.36024321  1
  O  O184  1  0.89028132  0.37027634  0.87365816  1
  O  O185  1  0.88546527  0.88938217  0.38192524  1
  O  O186  1  0.88686018  0.89078910  0.87085266  1
  O  O187  1  0.25791673  0.00480982  0.36584051  1
  O  O188  1  0.24086762  0.01853295  0.87414310  1
  O  O189  1  0.25516503  0.50516235  0.36835729  1
  O  O190  1  0.25416973  0.50662140  0.86730039  1
  O  O191  1  0.76299750  0.01451486  0.38814546  1
  O  O192  1  0.75640333  0.00651240  0.86859409  1
  O  O193  1  0.75665030  0.49717718  0.36057698  1
  O  O194  1  0.76189201  0.50286537  0.88329897  1
  O  O195  1  0.24195004  0.50832760  0.13608100  1
  O  O196  1  0.24455306  0.49567970  0.62865861  1
  O  O197  1  0.24847772  1.00363576  0.14068664  1
  O  O198  1  0.23744356  0.99967938  0.62628726  1
  O  O199  1  0.74746680  0.49519048  0.13301196  1
  O  O200  1  0.73768674  0.48484801  0.61993854  1
  O  O201  1  0.73788676  1.00405646  0.12233666  1
  O  O202  1  0.74018298  0.99760847  0.63198933  1
  O  O203  1  0.01163828  0.36374941  0.24410450  1
  O  O204  1  0.01197333  0.37017532  0.75805489  1
  O  O205  1  -0.00094215  0.87667856  0.26554140  1
  O  O206  1  -0.00007706  0.86761627  0.75311468  1
  O  O207  1  0.50595303  0.36682739  0.25299293  1
  O  O208  1  0.49250755  0.36458810  0.76150114  1
  O  O209  1  0.50045340  0.86676612  0.25956253  1
  O  O210  1  0.49290496  0.85898240  0.74708206  1
  O  O211  1  0.48668176  0.13367126  0.25598071  1
  O  O212  1  0.49419237  0.13256432  0.74775885  1
  O  O213  1  0.50119621  0.63240273  0.24124557  1
  O  O214  1  0.49228598  0.62889155  0.74048850  1
  O  O215  1  0.99486072  0.13718317  0.24405726  1
  O  O216  1  0.98333599  0.12439483  0.75282978  1
  O  O217  1  1.00575261  0.62338046  0.23560667  1
  O  O218  1  1.00885529  0.64678746  0.73379736  1
  O  O219  1  0.37542898  0.25655920  0.01415178  1
  O  O220  1  0.37250375  0.25447935  0.50404658  1
  O  O221  1  0.38126149  0.76250732  0.00918757  1
  O  O222  1  0.37514447  0.75596183  0.50708984  1
  O  O223  1  0.86635950  0.25480168  0.00531822  1
  O  O224  1  0.85869980  0.24505450  0.49418464  1
  O  O225  1  0.87973993  0.75407508  0.02293391  1
  O  O226  1  0.86678788  0.75676510  0.49004588  1
  O  O227  1  0.13361861  0.24659761  0.49374032  1
  O  O228  1  0.12301558  0.25180603  0.99094285  1
  O  O229  1  0.12830967  0.74294813  0.49048559  1
  O  O230  1  0.11213794  0.74640999  0.97655745  1
  O  O231  1  0.62932467  0.24252336  0.49045253  1
  O  O232  1  0.63065172  0.24897194  0.99117518  1
  O  O233  1  0.63032935  0.73658506  0.49506908  1
  O  O234  1  0.62147336  0.75182508  1.00066312  1
  O  O235  1  0.49814295  0.25446603  0.13433617  1
  O  O236  1  0.49773723  0.24556294  0.63077680  1
  O  O237  1  0.49227457  0.74321769  0.13304238  1
  O  O238  1  0.49081222  0.74317886  0.62851212  1
  O  O239  1  0.99494016  0.24553301  0.13128849  1
  O  O240  1  1.00511829  0.24146162  0.63459147  1
  O  O241  1  1.00420437  0.73624990  0.12743472  1
  O  O242  1  1.00294444  0.74650442  0.63142582  1
  O  O243  1  0.01072690  0.24761319  0.36670626  1
  O  O244  1  0.01078582  0.25831906  0.87236939  1
  O  O245  1  0.00707035  0.76171704  0.37263151  1
  O  O246  1  0.00048268  0.75982312  0.86197597  1
  O  O247  1  0.50752173  0.25520245  0.36504903  1
  O  O248  1  0.50569902  0.25640094  0.87280355  1
  O  O249  1  0.50195093  0.75268829  0.36783621  1
  O  O250  1  0.49800288  0.74618330  0.85509159  1
  O  O251  1  0.24424966  0.13064624  0.49407168  1
  O  O252  1  0.25021444  0.12355163  0.98914780  1
  O  O253  1  0.23853623  0.62250613  0.48843584  1
  O  O254  1  0.24608722  0.61812463  0.98575251  1
  O  O255  1  0.73826335  0.13711576  0.50882930  1
  O  O256  1  0.75174693  0.13940316  0.99460425  1
  O  O257  1  0.74160991  0.62482439  0.50289072  1
  O  O258  1  0.74186660  0.63749060  1.00488576  1
  O  O259  1  0.26309818  0.38349990  -0.00705418  1
  O  O260  1  0.25678216  0.37162012  0.50481532  1
  O  O261  1  0.26639339  0.88360070  0.00072093  1
  O  O262  1  0.26378728  0.87412580  0.49993013  1
  O  O263  1  0.74856031  0.36723497  0.01121305  1
  O  O264  1  0.74785792  0.36364256  0.50646639  1
  O  O265  1  0.76033205  0.87501182  -0.00422775  1
  O  O266  1  0.75904165  0.86157074  0.49871512  1
  O  O267  1  0.13164448  0.49228723  0.24734505  1
  O  O268  1  0.12643878  0.48952772  0.74474087  1
  O  O269  1  0.14040622  1.00846022  0.25322637  1
  O  O270  1  0.12508912  1.00805633  0.73551978  1
  O  O271  1  0.63489629  0.49333946  0.24507821  1
  O  O272  1  0.61454203  0.49468434  0.73829540  1
  O  O273  1  0.61959306  0.99867311  0.23370055  1
  O  O274  1  0.63392998  1.00937854  0.73921779  1
  O  O275  1  0.37168125  0.00720764  0.25213018  1
  O  O276  1  0.37780496  0.01553531  0.74613297  1
  O  O277  1  0.36305976  0.49159111  0.25430245  1
  O  O278  1  0.37005946  0.50518683  0.75480568  1
  O  O279  1  0.87592552  0.00924987  0.26573469  1
  O  O280  1  0.86761006  0.00945351  0.75618361  1
  O  O281  1  0.86027506  0.50230461  0.24966414  1
  O  O282  1  0.93168934  0.50833307  0.75819281  1
  O  O283  1  0.13042208  0.36331210  0.36850643  1
  O  O284  1  0.12025013  0.37012554  0.86965491  1
  O  O285  1  0.11478451  0.86916137  0.38273058  1
  O  O286  1  0.11329099  0.87261630  0.87793431  1
  O  O287  1  0.62063322  0.36405366  0.36794817  1
  O  O288  1  0.61095630  0.36804491  0.88120880  1
  O  O289  1  0.60598476  0.85799639  0.39263143  1
  O  O290  1  0.61565936  0.87338973  0.86863815  1
  O  O291  1  0.37125595  0.13907727  0.13170533  1
  O  O292  1  0.38146694  0.13115016  0.63025988  1
  O  O293  1  0.38487939  0.63149833  0.11946124  1
  O  O294  1  0.38104006  0.62968169  0.62575137  1
  O  O295  1  0.88328625  0.13108440  0.13346272  1
  O  O296  1  0.87309109  0.11824083  0.63781292  1
  O  O297  1  0.88793590  0.63446765  0.12601467  1
  O  O298  1  0.88537761  0.62078264  0.61708096  1
  O  O299  1  0.25740555  0.24961944  0.12997944  1
  O  O300  1  0.25646071  0.25554158  0.61917338  1
  O  O301  1  0.26367509  0.74428081  0.13302244  1
  O  O302  1  0.26096224  0.74739688  0.62173412  1
  O  O303  1  0.75257725  0.25727068  0.11839020  1
  O  O304  1  0.74110081  0.26300902  0.61218066  1
  O  O305  1  0.75926407  0.75270863  0.13344260  1
  O  O306  1  0.74328889  0.74846197  0.61246188  1
  O  O307  1  0.24653000  0.24572814  0.37960629  1
  O  O308  1  0.24126607  0.23954457  0.87276449  1
  O  O309  1  0.24581638  0.74228698  0.37584859  1
  O  O310  1  0.24121146  0.73975425  0.86813169  1
  O  O311  1  0.74066762  0.25706891  0.38637354  1
  O  O312  1  0.74240038  0.25054535  0.88191996  1
  O  O313  1  0.73836762  0.74195475  0.38651355  1
  O  O314  1  0.74718532  0.74761048  0.87700182  1
  O  O315  1  -0.00052287  0.12199794  0.00974787  1
  O  O316  1  0.01572206  0.12617800  0.49865675  1
  O  O317  1  0.00144091  0.61502273  0.01116361  1
  O  O318  1  0.01017840  0.62608257  0.50541553  1
  O  O319  1  0.49420181  0.11425070  0.00011080  1
  O  O320  1  0.50887195  0.12021492  0.50556219  1
  O  O321  1  0.49685780  0.61457566  0.00607429  1
  O  O322  1  0.50904225  0.61728958  0.50633314  1
  O  O323  1  0.49571407  0.37718781  0.49234716  1
  O  O324  1  0.48958797  0.38221401  0.99328938  1
  O  O325  1  0.48871290  0.87919859  0.49552637  1
  O  O326  1  0.48525711  0.88600175  0.99971130  1
  O  O327  1  1.00868449  0.38499023  0.50288057  1
  O  O328  1  0.99733689  0.38487964  0.99494412  1
  O  O329  1  0.99265693  0.87633451  0.48866658  1
  O  O330  1  0.99283950  0.88610231  0.98993599  1
  O  O331  1  0.49540432  0.49279074  0.37588021  1
  O  O332  1  0.49536010  0.49440051  0.88062521  1
  O  O333  1  0.49675062  0.99101271  0.37846124  1
  O  O334  1  0.50294178  1.00205466  0.89405112  1
  O  O335  1  1.00147325  0.49811033  0.38911832  1
  O  O336  1  1.01410889  0.49127815  0.89588039  1
  O  O337  1  1.00282211  0.99225315  0.37885179  1
  O  O338  1  0.99553391  0.99790702  0.88012939  1
  O  O339  1  -0.00369016  0.00877459  0.11958094  1
  O  O340  1  0.01261342  0.00769894  0.62103301  1
  O  O341  1  0.00521461  0.50772398  0.12050938  1
  O  O342  1  0.00711961  0.50836953  0.60808750  1
  O  O343  1  0.50244017  0.00033287  0.11118700  1
  O  O344  1  0.50602077  0.00489954  0.62055306  1
  O  O345  1  0.49968359  0.50499627  0.11934816  1
  O  O346  1  0.51063197  0.49998868  0.61763594  1
  O  O347  1  0.23807135  0.38272636  0.25293878  1
  O  O348  1  0.24702494  0.38190985  0.74671973  1
  O  O349  1  0.25596969  0.89040848  0.25105053  1
  O  O350  1  0.26019289  0.88221822  0.74424719  1
  O  O351  1  0.74409205  0.37546096  0.23861673  1
  O  O352  1  0.74674872  0.36905060  0.73480339  1
  O  O353  1  0.73544470  0.87894956  0.30038003  1
  O  O354  1  0.75803342  0.88779367  0.74611779  1
  O  O355  1  0.26180728  0.11918067  0.25627868  1
  O  O356  1  0.25852261  0.12281649  0.75908617  1
  O  O357  1  0.24463749  0.61378567  0.26410901  1
  O  O358  1  0.25532055  0.61905915  0.75443288  1
  O  O359  1  0.76551700  0.13722928  0.25065748  1
  O  O360  1  0.75826583  0.11934209  0.75487269  1
  O  O361  1  0.74149249  0.61387043  0.24707916  1
  O  O362  1  0.75174828  0.60593154  0.75633640  1
  O  O363  1  0.37186663  0.11967666  0.36830982  1
  O  O364  1  0.36087047  0.13389087  0.86842688  1
  O  O365  1  0.36533082  0.61477842  0.38216701  1
  O  O366  1  0.36712528  0.61914567  0.87031783  1
  O  O367  1  0.88503384  0.11194338  0.36951560  1
  O  O368  1  0.86942056  0.11650392  0.86906596  1
  O  O369  1  0.88892820  0.60268879  0.36970725  1
  O  O370  1  0.87256035  0.62199501  0.87933786  1
  O  O371  1  0.12252702  0.38900789  0.13380078  1
  O  O372  1  0.13360035  0.38031094  0.63289544  1
  O  O373  1  0.12972522  0.87637056  0.12013019  1
  O  O374  1  0.12643265  0.89194308  0.61467133  1
  O  O375  1  0.63098166  0.38106142  0.12948092  1
  O  O376  1  0.62862505  0.38695981  0.62041569  1
  O  O377  1  0.61974184  0.89243748  0.12664262  1
  O  O378  1  0.62523092  0.88589107  0.61757369  1
  O  O379  1  0.12119361  0.25622887  0.25669000  1
  O  O380  1  0.13100988  0.26281963  0.75810609  1
  O  O381  1  0.12455038  0.74641943  0.26423539  1
  O  O382  1  0.11546245  0.75442176  0.76103868  1
  O  O383  1  0.61876071  0.25034583  0.25497862  1
  O  O384  1  0.62061251  0.24454203  0.76287859  1
  O  O385  1  0.61530076  0.75278531  0.25777643  1
  O  O386  1  0.60936426  0.74306166  0.73695396  1
  O  O387  1  0.38054294  0.24613951  0.23888140  1
  O  O388  1  0.38071645  0.24144360  0.74389735  1
  O  O389  1  0.38709088  0.75303043  0.24247495  1
  O  O390  1  0.38171417  0.74145348  0.73966314  1
  O  O391  1  0.88326622  0.24756037  0.24791695  1
  O  O392  1  0.87195817  0.23282065  0.75653227  1
  O  O393  1  0.88161349  0.74919755  0.23871382  1
  O  O394  1  0.88839821  0.75820961  0.74506449  1
  O  O395  1  0.38314517  0.49318386  0.49407721  1
  O  O396  1  0.38294485  0.49298671  0.99614678  1
  O  O397  1  0.38123152  0.99420939  0.49458375  1
  O  O398  1  0.38283800  0.98974505  1.00502035  1
  O  O399  1  0.88865352  0.49648463  0.49203238  1
  O  O400  1  0.89008278  0.49637437  1.01166037  1
  O  O401  1  0.87916572  0.99667269  0.48982200  1
  O  O402  1  0.88515517  1.00537262  0.99124257  1
  O  O403  1  0.11093495  0.00704987  0.00192864  1
  O  O404  1  0.12725469  0.01116049  0.50600733  1
  O  O405  1  0.11665791  0.50222947  0.01167273  1
  O  O406  1  0.11686057  0.50717611  0.50153414  1
  O  O407  1  0.61357159  0.00373837  0.01080299  1
  O  O408  1  0.62017156  0.00851239  0.50666882  1
  O  O409  1  0.61042252  0.49572994  0.00733959  1
  O  O410  1  0.62030641  0.50323864  0.49571785  1
  O  O411  1  0.37418595  0.36065115  0.11797450  1
  O  O412  1  0.37139009  0.36957694  0.61980741  1
  O  O413  1  0.36943398  0.86526925  0.11787870  1
  O  O414  1  0.37525115  0.86497444  0.61517850  1
  O  O415  1  0.86661544  0.36902362  0.12599055  1
  O  O416  1  0.85984607  0.37880456  0.62613165  1
  O  O417  1  0.88024837  0.86207803  0.12982233  1
  O  O418  1  0.87439762  0.88524805  0.60784813  1
  O  O419  1  0.13259776  0.13671752  0.38102289  1
  O  O420  1  0.13440569  0.13652553  0.87711720  1
  O  O421  1  0.12934809  0.63188052  0.38207884  1
  O  O422  1  0.13196360  0.63144135  0.87082928  1
  O  O423  1  0.61946683  0.13459655  0.38243335  1
  O  O424  1  0.63287994  0.13449703  0.88066916  1
  O  O425  1  0.61681943  0.63232263  0.38509735  1
  O  O426  1  0.62552403  0.63554382  0.88011697  1
