# generated using pymatgen
data_V85Zn86O256
_symmetry_space_group_name_H-M   'P 1'
_cell_length_a   16.95525437
_cell_length_b   16.95574582
_cell_length_c   16.95159621
_cell_angle_alpha   90.07369685
_cell_angle_beta   90.00927373
_cell_angle_gamma   90.01756302
_symmetry_Int_Tables_number   1
_chemical_formula_structural   V85Zn86O256
_chemical_formula_sum   'V85 Zn86 O256'
_cell_volume   4873.39283528
_cell_formula_units_Z   1
loop_
 _symmetry_equiv_pos_site_id
 _symmetry_equiv_pos_as_xyz
  1  'x, y, z'
loop_
 _atom_site_type_symbol
 _atom_site_label
 _atom_site_symmetry_multiplicity
 _atom_site_fract_x
 _atom_site_fract_y
 _atom_site_fract_z
 _atom_site_occupancy
  V  V0  1  0.12915121  0.49910940  0.62485643  1
  V  V1  1  0.24306762  0.86988090  0.62629937  1
  V  V2  1  0.49928266  0.88158227  0.38262105  1
  V  V3  1  0.00148155  0.49844217  0.49849034  1
  V  V4  1  0.12064687  -0.00261268  0.12560658  1
  V  V5  1  -0.00080562  0.36378770  0.37202549  1
  V  V6  1  0.24121539  0.75240923  0.00194116  1
  V  V7  1  0.13318591  0.12353435  0.49589942  1
  V  V8  1  0.37500643  0.87728187  0.50082073  1
  V  V9  1  0.24455317  0.01378191  0.25796615  1
  V  V10  1  0.62579328  0.62680086  0.00484755  1
  V  V11  1  0.37433453  0.87802020  0.00251372  1
  V  V12  1  0.11956165  -0.00427859  0.62620804  1
  V  V13  1  0.13548243  0.23932817  0.36911004  1
  V  V14  1  -0.00462374  0.37548826  0.88040676  1
  V  V15  1  0.22953752  0.64884756  0.85165974  1
  V  V16  1  0.50390455  0.50020555  -0.00065435  1
  V  V17  1  0.38427940  0.24525323  0.13958181  1
  V  V18  1  0.61152822  0.01255690  0.13440527  1
  V  V19  1  0.87815996  0.75542186  0.13354201  1
  V  V20  1  0.87434100  0.12272820  0.74896055  1
  V  V21  1  0.25265366  0.25108607  -0.00308778  1
  V  V22  1  0.38285551  0.12977052  0.74117671  1
  V  V23  1  0.75019179  0.75585453  0.00220257  1
  V  V24  1  0.87484092  0.50050335  0.37099000  1
  V  V25  1  -0.00148254  0.12833469  0.12741151  1
  V  V26  1  0.63425167  0.24403719  0.36877600  1
  V  V27  1  0.50061507  0.00603601  -0.00231693  1
  V  V28  1  0.50135424  0.87409035  0.87066567  1
  V  V29  1  0.62646608  0.75543935  0.87176881  1
  V  V30  1  0.62674452  0.87838529  0.25222271  1
  V  V31  1  0.86699841  0.37243109  0.50250406  1
  V  V32  1  0.12534303  0.49694349  0.12528708  1
  V  V33  1  0.11766484  0.12241390  -0.00067278  1
  V  V34  1  0.24949583  0.12350780  0.87352639  1
  V  V35  1  0.12427619  0.62885144  0.49340630  1
  V  V36  1  0.12359261  0.25032076  0.87416320  1
  V  V37  1  0.01227569  0.85812989  0.86790184  1
  V  V38  1  0.75075279  0.62624394  0.87577945  1
  V  V39  1  0.87700519  0.87578892  0.50262509  1
  V  V40  1  0.74972577  0.62593263  0.37409124  1
  V  V41  1  0.62132050  0.61878353  0.50062652  1
  V  V42  1  0.88968387  0.88084464  0.00183793  1
  V  V43  1  0.75102225  0.75010700  0.50418903  1
  V  V44  1  0.50129358  0.62042031  0.12568742  1
  V  V45  1  0.37529856  0.62449925  0.74920523  1
  V  V46  1  0.74955778  0.12622062  0.87663132  1
  V  V47  1  0.87294944  0.00537562  0.37750445  1
  V  V48  1  0.74236080  0.49782273  0.74489381  1
  V  V49  1  0.87570364  0.25798509  0.12147995  1
  V  V50  1  0.87247405  0.49800692  0.87469724  1
  V  V51  1  0.49946309  0.37572234  0.86177379  1
  V  V52  1  0.88575330  -0.00050672  0.87965792  1
  V  V53  1  -0.00143476  0.63226432  0.62962245  1
  V  V54  1  0.37348364  0.00135547  0.87467773  1
  V  V55  1  0.24871623  0.87740248  0.13829319  1
  V  V56  1  0.36240059  0.50145233  0.87940964  1
  V  V57  1  0.12783941  0.62663070  0.00041353  1
  V  V58  1  0.00195926  0.63277193  0.13271741  1
  V  V59  1  0.49960084  0.61317083  0.62104028  1
  V  V60  1  0.38674110  0.49592290  0.38200941  1
  V  V61  1  0.50471355  0.36832505  0.38421600  1
  V  V62  1  0.24454940  -0.00508199  0.75182367  1
  V  V63  1  0.75145069  0.26098118  -0.00143710  1
  V  V64  1  0.74984783  0.01345109  0.25162145  1
  V  V65  1  0.74022469  -0.00962274  0.75407146  1
  V  V66  1  0.25056978  0.37263822  0.12911295  1
  V  V67  1  0.11827975  0.36837812  0.24797475  1
  V  V68  1  0.87699177  0.13623181  0.25483970  1
  V  V69  1  0.00167275  0.86740943  0.36148645  1
  V  V70  1  0.12120417  0.38451918  0.74908084  1
  V  V71  1  0.61939811  0.38317168  0.23969912  1
  V  V72  1  0.62053906  0.25502332  0.86072459  1
  V  V73  1  -0.00123041  0.25085719  0.74255548  1
  V  V74  1  0.37635038  0.37494733  0.00102476  1
  V  V75  1  0.61519581  -0.00888523  0.61554501  1
  V  V76  1  0.62209814  0.13087967  0.00417954  1
  V  V77  1  0.30862489  0.44784138  0.69646198  1
  V  V78  1  0.50291933  0.75069821  0.74582980  1
  V  V79  1  0.37818612  0.75402391  0.12461022  1
  V  V80  1  0.74853907  0.88153159  0.12528663  1
  V  V81  1  0.37066075  0.01115522  0.37861143  1
  V  V82  1  0.50237525  0.75544536  0.25036226  1
  V  V83  1  -0.00541306  0.49992544  0.00233452  1
  V  V84  1  0.25301077  0.62362530  0.36992520  1
  Zn  Zn85  1  0.24918930  0.75113443  0.49473870  1
  Zn  Zn86  1  0.88039992  0.75658639  0.63364848  1
  Zn  Zn87  1  0.25518386  0.49543643  0.25016077  1
  Zn  Zn88  1  0.87879272  0.63094950  0.75572222  1
  Zn  Zn89  1  0.74905890  0.38557976  0.12099186  1
  Zn  Zn90  1  0.74204995  0.36268661  0.63431786  1
  Zn  Zn91  1  0.75404090  0.23154443  0.49736726  1
  Zn  Zn92  1  0.74882504  0.87029963  0.63357012  1
  Zn  Zn93  1  -0.00145314  0.12268763  0.62132683  1
  Zn  Zn94  1  0.74528825  0.50522794  0.23986862  1
  Zn  Zn95  1  0.37372283  0.74981855  0.62176515  1
  Zn  Zn96  1  0.87316083  0.24976717  0.62352970  1
  Zn  Zn97  1  0.62366766  0.75221478  0.37910376  1
  Zn  Zn98  1  0.28677845  0.29610959  0.54929290  1
  Zn  Zn99  1  0.61538671  0.48979245  0.62326419  1
  Zn  Zn100  1  0.37872480  0.62174374  0.25079549  1
  Zn  Zn101  1  0.50810415  0.12996850  0.62282894  1
  Zn  Zn102  1  0.12584458  0.75225303  0.35730405  1
  Zn  Zn103  1  0.62517799  0.11794966  0.49107863  1
  Zn  Zn104  1  0.00088955  -0.00031930  0.49591908  1
  Zn  Zn105  1  0.87835828  0.63164179  0.25324917  1
  Zn  Zn106  1  0.40010406  0.12395513  0.24647860  1
  Zn  Zn107  1  0.18780201  0.19091005  0.18719401  1
  Zn  Zn108  1  0.18495360  0.18080111  0.67892107  1
  Zn  Zn109  1  0.19220428  0.68445814  0.18728500  1
  Zn  Zn110  1  0.18930397  0.68234676  0.68290340  1
  Zn  Zn111  1  0.68625734  0.19731786  0.18764942  1
  Zn  Zn112  1  0.69111611  0.18062736  0.68176089  1
  Zn  Zn113  1  0.68817690  0.68939324  0.18776383  1
  Zn  Zn114  1  0.68851132  0.68331013  0.68800482  1
  Zn  Zn115  1  0.34411033  0.28043780  0.35716106  1
  Zn  Zn116  1  0.28332725  0.28416202  0.76493391  1
  Zn  Zn117  1  0.31438906  0.81233289  0.31402957  1
  Zn  Zn118  1  0.31266794  0.81393678  0.81044746  1
  Zn  Zn119  1  0.80738927  0.31812618  0.30777378  1
  Zn  Zn120  1  0.81245750  0.31383263  0.81393951  1
  Zn  Zn121  1  0.81106938  0.81710126  0.31546123  1
  Zn  Zn122  1  0.82102744  0.81105356  0.81525356  1
  Zn  Zn123  1  0.19493543  0.43717202  0.43277468  1
  Zn  Zn124  1  0.18650317  0.43967873  0.93753129  1
  Zn  Zn125  1  0.18514030  0.93583595  0.43844090  1
  Zn  Zn126  1  0.18315447  0.93502021  0.94331745  1
  Zn  Zn127  1  0.68524143  0.43751877  0.43309260  1
  Zn  Zn128  1  0.68308640  0.43816548  0.93453668  1
  Zn  Zn129  1  0.69264552  0.93819299  0.43727344  1
  Zn  Zn130  1  0.68881884  0.94016716  0.93851117  1
  Zn  Zn131  1  0.30907700  0.06559054  0.06400869  1
  Zn  Zn132  1  0.30952401  0.05892584  0.56337058  1
  Zn  Zn133  1  0.31280612  0.56495848  0.06295582  1
  Zn  Zn134  1  0.31802174  0.56660439  0.55336722  1
  Zn  Zn135  1  0.80954504  0.06660955  0.06325960  1
  Zn  Zn136  1  0.80485445  0.06116026  0.56605920  1
  Zn  Zn137  1  0.81554868  0.56596650  0.06357826  1
  Zn  Zn138  1  0.81396919  0.56163813  0.56036370  1
  Zn  Zn139  1  0.43740637  0.43587864  0.19354608  1
  Zn  Zn140  1  0.44823530  0.30711590  0.68519020  1
  Zn  Zn141  1  0.44457824  0.95843731  0.19735765  1
  Zn  Zn142  1  0.43219766  0.93569551  0.68915542  1
  Zn  Zn143  1  0.93613550  0.44055298  0.18859264  1
  Zn  Zn144  1  0.93440012  0.44183950  0.68670236  1
  Zn  Zn145  1  0.93440106  0.94874212  0.18617205  1
  Zn  Zn146  1  0.93601968  0.93329594  0.69435828  1
  Zn  Zn147  1  0.05708746  0.06038102  0.30979897  1
  Zn  Zn148  1  0.06160548  0.06034920  0.81175070  1
  Zn  Zn149  1  0.06523785  0.55801733  0.31064709  1
  Zn  Zn150  1  0.06092020  0.56458588  0.81215107  1
  Zn  Zn151  1  0.55467883  0.06376180  0.31513962  1
  Zn  Zn152  1  0.56357438  0.06615970  0.81409454  1
  Zn  Zn153  1  0.56413526  0.56358397  0.31161832  1
  Zn  Zn154  1  0.56099141  0.56367542  0.81491947  1
  Zn  Zn155  1  0.44851535  0.20356540  0.48638918  1
  Zn  Zn156  1  0.43652990  0.19110127  0.93402345  1
  Zn  Zn157  1  0.43686983  0.69076289  0.43759543  1
  Zn  Zn158  1  0.43340536  0.68793176  0.93615747  1
  Zn  Zn159  1  0.94309766  0.18585133  0.44131509  1
  Zn  Zn160  1  0.93642071  0.18864212  0.93776902  1
  Zn  Zn161  1  0.93660265  0.68996704  0.43992463  1
  Zn  Zn162  1  0.93730342  0.68940406  0.94450403  1
  Zn  Zn163  1  0.06054094  0.30945804  0.06043566  1
  Zn  Zn164  1  0.10126554  0.33080900  0.54230425  1
  Zn  Zn165  1  0.06261447  0.81593490  0.18132034  1
  Zn  Zn166  1  0.06311847  0.81307387  0.55573141  1
  Zn  Zn167  1  0.56125308  0.31246319  0.05939253  1
  Zn  Zn168  1  0.57342295  0.31334704  0.55685702  1
  Zn  Zn169  1  0.56293073  0.81859833  0.06225718  1
  Zn  Zn170  1  0.56602062  0.81299362  0.56450105  1
  O  O171  1  0.11775398  0.12307157  0.11898385  1
  O  O172  1  0.11964478  0.11395378  0.61747909  1
  O  O173  1  0.12159073  0.61825815  0.11605888  1
  O  O174  1  0.11741973  0.61870853  0.61547742  1
  O  O175  1  0.62878902  0.12581948  0.11258623  1
  O  O176  1  0.62440793  0.10061780  0.63494264  1
  O  O177  1  0.61679513  0.63397748  0.11271581  1
  O  O178  1  0.61681256  0.62208309  0.61812751  1
  O  O179  1  0.39517948  0.38623643  0.36246170  1
  O  O180  1  0.38204009  0.38801080  0.88734681  1
  O  O181  1  0.38038261  0.88017582  0.38242952  1
  O  O182  1  0.38102406  0.88255402  0.88189203  1
  O  O183  1  0.88222256  0.38206367  0.37779529  1
  O  O184  1  0.88204937  0.38801610  0.87427425  1
  O  O185  1  0.88363851  0.88164802  0.38023189  1
  O  O186  1  0.87898691  0.88301414  0.88544339  1
  O  O187  1  0.25105459  -0.00398750  0.36381285  1
  O  O188  1  0.25183611  0.00242081  0.86974661  1
  O  O189  1  0.26001707  0.50540201  0.37057099  1
  O  O190  1  0.26023484  0.51275658  0.88399438  1
  O  O191  1  0.76455679  -0.00591484  0.36494262  1
  O  O192  1  0.75685199  0.00576919  0.86907580  1
  O  O193  1  0.75945135  0.50996873  0.37407867  1
  O  O194  1  0.75617094  0.50478197  0.87144570  1
  O  O195  1  0.24470776  0.49074439  0.12266465  1
  O  O196  1  0.25240745  0.50302994  0.62878757  1
  O  O197  1  0.24513708  0.99506329  0.13527496  1
  O  O198  1  0.23930143  0.99146934  0.63324079  1
  O  O199  1  0.75733501  0.49876561  0.12640297  1
  O  O200  1  0.75206381  0.50596897  0.64050945  1
  O  O201  1  0.73971595  0.99985812  0.13342499  1
  O  O202  1  0.74280214  0.99470595  0.64305296  1
  O  O203  1  0.01055709  0.38166101  0.25710525  1
  O  O204  1  0.00217532  0.37147658  0.76157626  1
  O  O205  1  -0.00546871  0.87850409  0.25739962  1
  O  O206  1  -0.00304055  0.87330601  0.76869276  1
  O  O207  1  0.51496514  0.37975473  0.25666252  1
  O  O208  1  0.49370488  0.37855202  0.76285765  1
  O  O209  1  0.50572475  0.87174939  0.25668807  1
  O  O210  1  0.49143961  0.86540000  0.76271578  1
  O  O211  1  0.49707919  0.06691816  0.21952462  1
  O  O212  1  0.48581605  0.11576315  0.74680308  1
  O  O213  1  0.50298724  0.63624622  0.24084524  1
  O  O214  1  0.49260135  0.63062565  0.74482439  1
  O  O215  1  0.98893761  0.12373662  0.23937172  1
  O  O216  1  0.99233520  0.13400376  0.75197226  1
  O  O217  1  0.99996037  0.61841950  0.23570857  1
  O  O218  1  1.00188744  0.62261433  0.73292994  1
  O  O219  1  0.36817621  0.25712699  0.00389259  1
  O  O220  1  0.35765012  0.26045135  0.47030768  1
  O  O221  1  0.37420460  0.75583788  0.01320434  1
  O  O222  1  0.37083663  0.76271964  0.50103434  1
  O  O223  1  0.86359918  0.24390047  0.00782633  1
  O  O224  1  0.87518368  0.25896137  0.49981810  1
  O  O225  1  0.86845966  0.76098992  0.01081498  1
  O  O226  1  0.86868204  0.75755725  0.50557410  1
  O  O227  1  0.11714915  0.23697423  0.47898162  1
  O  O228  1  0.13185060  0.24379670  0.99304579  1
  O  O229  1  0.12388914  0.73688675  0.49096528  1
  O  O230  1  0.13965371  0.74056073  1.00434470  1
  O  O231  1  0.63333060  0.25143297  0.47879187  1
  O  O232  1  0.63145458  0.24488113  0.99464950  1
  O  O233  1  0.63470898  0.74191525  0.49935356  1
  O  O234  1  0.62903605  0.74623471  0.99463872  1
  O  O235  1  0.48141341  0.25525576  0.12089712  1
  O  O236  1  0.49301623  0.24681497  0.60431200  1
  O  O237  1  0.49554615  0.74710641  0.12971998  1
  O  O238  1  0.50059948  0.74728240  0.63809163  1
  O  O239  1  0.99151726  0.23748948  0.11697992  1
  O  O240  1  0.99741054  0.24996979  0.63985719  1
  O  O241  1  0.99103487  0.74491379  0.12180915  1
  O  O242  1  1.00317318  0.73501564  0.61791220  1
  O  O243  1  0.00339347  0.26205833  0.37334833  1
  O  O244  1  0.00329832  0.25947713  0.87080444  1
  O  O245  1  -0.00444441  0.76448198  0.37282513  1
  O  O246  1  -0.00042899  0.75875405  0.88031747  1
  O  O247  1  0.51019829  0.26513882  0.37713533  1
  O  O248  1  0.50877462  0.26369059  0.88168671  1
  O  O249  1  0.49926378  0.75995016  0.36459287  1
  O  O250  1  0.50518240  0.75449806  0.86765642  1
  O  O251  1  0.23373742  0.12224717  0.50596191  1
  O  O252  1  0.24222249  0.13210027  0.99249245  1
  O  O253  1  0.24205340  0.62601650  0.48758143  1
  O  O254  1  0.24368037  0.63358826  0.99739546  1
  O  O255  1  0.73968491  0.11801003  0.49787842  1
  O  O256  1  0.74138327  0.13377523  0.99362618  1
  O  O257  1  0.74739680  0.63143822  0.49150288  1
  O  O258  1  0.74223877  0.63352282  0.99568237  1
  O  O259  1  0.25333387  0.37054576  0.00806414  1
  O  O260  1  0.20792022  0.37244457  0.51977677  1
  O  O261  1  0.25607526  0.86993095  0.01094185  1
  O  O262  1  0.25432371  0.87207023  0.50761946  1
  O  O263  1  0.74494584  0.36442107  -0.00104183  1
  O  O264  1  0.76448647  0.37935761  0.49627750  1
  O  O265  1  0.75431523  0.87260440  0.00768304  1
  O  O266  1  0.76157177  0.86638413  0.49894173  1
  O  O267  1  0.12917680  0.48880045  0.24177027  1
  O  O268  1  0.12090495  0.49563626  0.74195094  1
  O  O269  1  0.13507315  1.00423744  0.24115670  1
  O  O270  1  0.13717453  1.00611427  0.74352552  1
  O  O271  1  0.62648543  0.48865239  0.25168974  1
  O  O272  1  0.63966517  0.50658252  0.75233919  1
  O  O273  1  0.63594331  0.99642642  0.25211581  1
  O  O274  1  0.63877983  0.99779773  0.75905817  1
  O  O275  1  0.35524263  -0.00442656  0.26042872  1
  O  O276  1  0.36427405  0.00514286  0.75652085  1
  O  O277  1  0.37327111  0.50398316  0.25871007  1
  O  O278  1  0.37335130  0.50286224  0.75946249  1
  O  O279  1  0.86728954  0.01283177  0.25497987  1
  O  O280  1  0.86754487  0.00616788  0.75989965  1
  O  O281  1  0.87549127  0.50487413  0.26289358  1
  O  O282  1  0.86913554  0.50901453  0.75990906  1
  O  O283  1  0.11906209  0.36546971  0.36457750  1
  O  O284  1  0.11763488  0.37487335  0.86614135  1
  O  O285  1  0.10475948  0.87395208  0.37919806  1
  O  O286  1  0.11079404  0.87650033  0.88080810  1
  O  O287  1  0.61908307  0.37246952  0.36474287  1
  O  O288  1  0.61295590  0.36769495  0.87701728  1
  O  O289  1  0.61727199  0.87494276  0.37087255  1
  O  O290  1  0.61702698  0.86330297  0.88228947  1
  O  O291  1  0.36855181  0.14285189  0.12511134  1
  O  O292  1  0.37464367  0.11606912  0.63959467  1
  O  O293  1  0.38358131  0.63653162  0.12585279  1
  O  O294  1  0.38242458  0.62851356  0.62873045  1
  O  O295  1  0.88180126  0.13103784  0.13054286  1
  O  O296  1  0.87860705  0.12047281  0.63927684  1
  O  O297  1  0.88519558  0.63885157  0.12472718  1
  O  O298  1  0.89304219  0.62356751  0.62027896  1
  O  O299  1  0.25634985  0.25780420  0.11868631  1
  O  O300  1  0.25736396  0.25812980  0.65285050  1
  O  O301  1  0.26015121  0.75749850  0.12077069  1
  O  O302  1  0.24976559  0.75688074  0.62101128  1
  O  O303  1  0.75834334  0.25395351  0.11478071  1
  O  O304  1  0.75605303  0.24810986  0.61938689  1
  O  O305  1  0.75571120  0.75902759  0.12061426  1
  O  O306  1  0.75026978  0.74937169  0.61424973  1
  O  O307  1  0.23295733  0.24739947  0.36236251  1
  O  O308  1  0.24111211  0.24344530  0.87201572  1
  O  O309  1  0.24832970  0.73956298  0.37384230  1
  O  O310  1  0.27260692  0.74512146  0.89404864  1
  O  O311  1  0.73804636  0.25334536  0.37305020  1
  O  O312  1  0.74376656  0.24651719  0.88064525  1
  O  O313  1  0.75087639  0.74402961  0.38589069  1
  O  O314  1  0.74226579  0.74767942  0.88183222  1
  O  O315  1  0.01252212  0.12826347  0.00328903  1
  O  O316  1  0.00942503  0.11714931  0.50374097  1
  O  O317  1  0.00777035  0.61959798  0.01042678  1
  O  O318  1  0.00597001  0.61734869  0.50246426  1
  O  O319  1  0.50740155  0.11644658  -0.00693698  1
  O  O320  1  0.51196880  0.11736968  0.50722911  1
  O  O321  1  0.50539537  0.62250861  0.00562109  1
  O  O322  1  0.50931294  0.63507707  0.50913887  1
  O  O323  1  0.51039897  0.38299688  0.48163104  1
  O  O324  1  0.49550789  0.38716512  0.99849245  1
  O  O325  1  0.49082280  0.86777689  0.49254120  1
  O  O326  1  0.49340282  0.87722343  0.98629463  1
  O  O327  1  0.99975966  0.38460860  0.49105494  1
  O  O328  1  1.00604959  0.38328109  0.98783832  1
  O  O329  1  0.98826975  0.87683383  0.49156444  1
  O  O330  1  0.98809803  0.87828216  0.99112966  1
  O  O331  1  0.49079805  0.49959059  0.37281425  1
  O  O332  1  0.49145399  0.49785122  0.88270556  1
  O  O333  1  0.48846440  0.98644699  0.37485606  1
  O  O334  1  0.49758405  0.99200428  0.88077955  1
  O  O335  1  0.99507816  0.49440887  0.38193681  1
  O  O336  1  0.99254803  0.49549708  0.88078812  1
  O  O337  1  0.98758900  0.98948300  0.37217219  1
  O  O338  1  0.98801075  0.99766442  0.87398693  1
  O  O339  1  0.00969411  0.01278323  0.12649994  1
  O  O340  1  0.01278677  -0.00532621  0.63023934  1
  O  O341  1  0.00305764  0.50614342  0.11746005  1
  O  O342  1  0.00543958  0.50755574  0.61398739  1
  O  O343  1  0.50526565  -0.02209889  0.09910140  1
  O  O344  1  0.51495961  -0.00865635  0.63374731  1
  O  O345  1  0.49300576  0.51487861  0.11783112  1
  O  O346  1  0.49846614  0.51482531  0.62781472  1
  O  O347  1  0.23654070  0.37335705  0.23476332  1
  O  O348  1  0.24205438  0.39298845  0.75721381  1
  O  O349  1  0.25124013  0.87938372  0.24060765  1
  O  O350  1  0.25349960  0.88293675  0.74131930  1
  O  O351  1  0.73670158  0.38199490  0.24584577  1
  O  O352  1  0.75791970  0.39373005  0.75152455  1
  O  O353  1  0.74645574  0.88551728  0.24449895  1
  O  O354  1  0.75483519  0.88824836  0.75633094  1
  O  O355  1  0.25137009  0.11309612  0.24670112  1
  O  O356  1  0.25894925  0.11538841  0.75626780  1
  O  O357  1  0.25505331  0.62054994  0.25960275  1
  O  O358  1  0.26945696  0.61385192  0.74636147  1
  O  O359  1  0.75662920  0.11793743  0.24407747  1
  O  O360  1  0.75847736  0.11531821  0.75820466  1
  O  O361  1  0.75032099  0.62752542  0.26315902  1
  O  O362  1  0.75104782  0.61540892  0.76080371  1
  O  O363  1  0.38320654  0.11002137  0.36774976  1
  O  O364  1  0.37033535  0.11881141  0.86734021  1
  O  O365  1  0.37088886  0.61608528  0.37463975  1
  O  O366  1  0.37074836  0.61957383  0.86544101  1
  O  O367  1  0.88344102  0.11803089  0.36591584  1
  O  O368  1  0.87131591  0.11837917  0.86888140  1
  O  O369  1  0.86945213  0.61931581  0.37472043  1
  O  O370  1  0.86947992  0.61553320  0.88067563  1
  O  O371  1  0.12794066  0.37550218  0.12861502  1
  O  O372  1  0.10983726  0.38413167  0.64398926  1
  O  O373  1  0.13353553  0.88792517  0.12244241  1
  O  O374  1  0.13416418  0.87924372  0.61914039  1
  O  O375  1  0.62434270  0.36978617  0.13638151  1
  O  O376  1  0.63172694  0.38026059  0.62268103  1
  O  O377  1  0.62916015  0.88520705  0.13331380  1
  O  O378  1  0.63115957  0.88502064  0.62806264  1
  O  O379  1  0.11983950  0.25461131  0.25663560  1
  O  O380  1  0.11510628  0.25822849  0.75688082  1
  O  O381  1  0.12350292  0.74856140  0.24460685  1
  O  O382  1  0.16799732  0.70715017  0.79075712  1
  O  O383  1  0.62723689  0.26421178  0.25924674  1
  O  O384  1  0.62871576  0.24012922  0.76262410  1
  O  O385  1  0.61532173  0.75845923  0.25049216  1
  O  O386  1  0.61650112  0.74285808  0.76096016  1
  O  O387  1  0.37600973  0.24251223  0.24504245  1
  O  O388  1  0.38589323  0.23327032  0.75761596  1
  O  O389  1  0.38653255  0.75130862  0.24037715  1
  O  O390  1  0.38349406  0.74046600  0.74863278  1
  O  O391  1  0.86715664  0.24078607  0.24173166  1
  O  O392  1  0.88116343  0.24069686  0.75343897  1
  O  O393  1  0.86842853  0.75224511  0.23730977  1
  O  O394  1  0.86925184  0.74227661  0.74488922  1
  O  O395  1  0.37117613  0.49595793  0.48083578  1
  O  O396  1  0.38411597  0.49947642  0.99577983  1
  O  O397  1  0.36483097  0.98714814  0.49193502  1
  O  O398  1  0.38053787  0.99982903  0.99457550  1
  O  O399  1  0.88317713  0.49507676  0.48993075  1
  O  O400  1  0.88893811  0.50509853  0.99322749  1
  O  O401  1  0.87489578  0.99312790  0.49276919  1
  O  O402  1  0.86657930  0.99334568  0.99194199  1
  O  O403  1  0.13506843  0.01239534  0.01438548  1
  O  O404  1  0.12237155  0.00376340  0.50829573  1
  O  O405  1  0.11483642  0.50320870  0.00773419  1
  O  O406  1  0.11689326  0.51132740  0.50266308  1
  O  O407  1  0.61840351  0.01136982  0.00354062  1
  O  O408  1  0.62635044  -0.00727505  0.51289915  1
  O  O409  1  0.61196113  0.51145039  -0.00647214  1
  O  O410  1  0.63358801  0.51592860  0.50096042  1
  O  O411  1  0.36692494  0.36708896  0.12342702  1
  O  O412  1  0.36522253  0.38442145  0.64425856  1
  O  O413  1  0.36927210  0.87189435  0.12204268  1
  O  O414  1  0.36317422  0.87507488  0.61802377  1
  O  O415  1  0.87919400  0.36054915  0.12937438  1
  O  O416  1  0.87325305  0.37513241  0.61506055  1
  O  O417  1  0.87112074  0.87478500  0.11993895  1
  O  O418  1  0.87190345  0.87594877  0.61663790  1
  O  O419  1  0.11844951  0.13269739  0.37657909  1
  O  O420  1  0.12810622  0.12779317  0.88196931  1
  O  O421  1  0.13307975  0.62305174  0.37841976  1
  O  O422  1  0.12888440  0.60776316  0.89437490  1
  O  O423  1  0.61824354  0.14124561  0.36552584  1
  O  O424  1  0.62880537  0.13295654  0.88522751  1
  O  O425  1  0.63219952  0.62969494  0.38127764  1
  O  O426  1  0.62719239  0.63611083  0.88661526  1
