# generated using pymatgen
data_V85Zn86O256
_symmetry_space_group_name_H-M   'P 1'
_cell_length_a   16.93436015
_cell_length_b   16.93411346
_cell_length_c   16.94312367
_cell_angle_alpha   90.02312440
_cell_angle_beta   89.95749207
_cell_angle_gamma   90.02969118
_symmetry_Int_Tables_number   1
_chemical_formula_structural   V85Zn86O256
_chemical_formula_sum   'V85 Zn86 O256'
_cell_volume   4858.74967946
_cell_formula_units_Z   1
loop_
 _symmetry_equiv_pos_site_id
 _symmetry_equiv_pos_as_xyz
  1  'x, y, z'
loop_
 _atom_site_type_symbol
 _atom_site_label
 _atom_site_symmetry_multiplicity
 _atom_site_fract_x
 _atom_site_fract_y
 _atom_site_fract_z
 _atom_site_occupancy
  V  V0  1  0.37644320  0.24880001  0.12230541  1
  V  V1  1  0.75014758  0.74970213  0.50111154  1
  V  V2  1  0.63951173  0.37775762  0.74945857  1
  V  V3  1  0.87403377  0.25202408  0.12396301  1
  V  V4  1  0.74427141  0.63793703  0.87447358  1
  V  V5  1  0.50960629  0.87976854  0.36956163  1
  V  V6  1  0.38403004  0.00196483  0.37715247  1
  V  V7  1  0.87668874  0.38057278  0.00025961  1
  V  V8  1  0.86315201  0.25258461  0.62070029  1
  V  V9  1  0.87719547  0.62452015  0.24119426  1
  V  V10  1  0.62021402  0.85919660  0.75764181  1
  V  V11  1  0.62109583  0.50320185  0.11994602  1
  V  V12  1  0.87702728  0.87678597  0.50430539  1
  V  V13  1  0.63170195  -0.01521902  0.13164951  1
  V  V14  1  0.12777459  0.37695920  0.24798276  1
  V  V15  1  0.12623962  0.00214586  0.12591720  1
  V  V16  1  0.00004299  -0.00074722  -0.00069034  1
  V  V17  1  0.74893999  0.38142962  0.12223907  1
  V  V18  1  0.50101068  0.37372174  0.86677745  1
  V  V19  1  0.25426062  0.25140788  0.50046240  1
  V  V20  1  0.01141141  0.75192577  0.74836837  1
  V  V21  1  0.87386240  0.00054200  0.37735684  1
  V  V22  1  0.87113404  0.62027636  0.74952517  1
  V  V23  1  0.00034186  0.49329023  0.49800978  1
  V  V24  1  0.37191409  0.87393130  0.00500192  1
  V  V25  1  0.62031596  0.62281607  0.50007843  1
  V  V26  1  0.50045039  0.00157637  0.00675874  1
  V  V27  1  0.00003227  0.12679345  0.12463833  1
  V  V28  1  0.00084426  0.25019236  0.25075598  1
  V  V29  1  0.37152951  0.49745597  0.87269630  1
  V  V30  1  0.50029561  0.61592867  0.62456240  1
  V  V31  1  0.37937474  0.62509485  0.74970414  1
  V  V32  1  0.25009357  0.38017557  0.12349018  1
  V  V33  1  0.63860420  0.49209261  0.62263779  1
  V  V34  1  0.24785850  -0.00640473  0.75457841  1
  V  V35  1  0.61894055  0.37796868  0.25625677  1
  V  V36  1  0.13003729  0.13248619  0.00147298  1
  V  V37  1  0.75180605  0.62026483  0.37466681  1
  V  V38  1  0.38272854  0.74958841  0.62268710  1
  V  V39  1  0.86517737  0.86740964  0.00188207  1
  V  V40  1  0.25190115  0.12786530  0.87167951  1
  V  V41  1  0.01275261  0.00119913  0.49905917  1
  V  V42  1  0.87575608  -0.00146771  0.87384833  1
  V  V43  1  0.74127341  -0.00049568  0.74937437  1
  V  V44  1  0.63252805  0.12811123  0.51591297  1
  V  V45  1  0.12747209  0.24955611  0.87537227  1
  V  V46  1  0.12860832  0.49992554  0.62138717  1
  V  V47  1  0.39206147  0.49863407  0.38493871  1
  V  V48  1  0.74966197  0.12560183  0.87958624  1
  V  V49  1  0.74774614  0.50314366  0.24889193  1
  V  V50  1  0.37882850  0.00014449  0.87214000  1
  V  V51  1  0.49984706  0.25665962  0.25552850  1
  V  V52  1  0.12806840  0.63046980  0.48594608  1
  V  V53  1  0.12641371  -0.00212423  0.63025221  1
  V  V54  1  0.49602232  0.49914185  -0.00140614  1
  V  V55  1  0.00336132  0.74812514  0.25538113  1
  V  V56  1  0.87532773  0.74932100  0.62649898  1
  V  V57  1  0.24901951  0.12200884  0.37928299  1
  V  V58  1  0.25139038  0.87351438  0.62717423  1
  V  V59  1  0.61878063  0.63889730  -0.01105611  1
  V  V60  1  0.00077093  0.62341995  0.62473387  1
  V  V61  1  0.12724749  0.37367811  0.74447858  1
  V  V62  1  0.24120123  0.62336973  0.87674405  1
  V  V63  1  0.87427842  0.49819935  0.37527767  1
  V  V64  1  0.38181861  0.23638733  0.63129380  1
  V  V65  1  0.23745444  0.74444710  0.00445270  1
  V  V66  1  0.25042596  0.50805700  0.26244577  1
  V  V67  1  0.50907832  0.00538386  0.51720369  1
  V  V68  1  0.85332768  0.37240504  0.50100575  1
  V  V69  1  0.62433989  0.12688851  0.01308298  1
  V  V70  1  0.01208890  0.50687851  0.00436574  1
  V  V71  1  0.86862800  0.12506097  0.25059166  1
  V  V72  1  0.37195367  0.36325520  -0.00329496  1
  V  V73  1  0.00088867  0.37625812  0.87402982  1
  V  V74  1  0.00951575  0.87479787  0.87214511  1
  V  V75  1  0.74112526  0.87735129  0.62602277  1
  V  V76  1  0.86759900  0.49930654  0.87318459  1
  V  V77  1  0.62833326  0.75469152  0.36462715  1
  V  V78  1  0.38581251  0.12559546  0.24613029  1
  V  V79  1  0.12527446  0.24467551  0.37954891  1
  V  V80  1  0.00473665  0.12692033  0.61964655  1
  V  V81  1  0.12346279  0.87485462  0.25509546  1
  V  V82  1  0.37073870  0.73933248  0.12871272  1
  V  V83  1  0.25242340  0.00418694  0.24947068  1
  V  V84  1  0.00158744  0.24841557  0.74564798  1
  Zn  Zn85  1  0.62745403  0.25030513  0.87521264  1
  Zn  Zn86  1  0.50857609  0.85713506  0.87980964  1
  Zn  Zn87  1  0.24844404  0.87509201  0.12720441  1
  Zn  Zn88  1  0.38082460  0.87447369  0.50079392  1
  Zn  Zn89  1  0.74796977  0.13042373  0.38255830  1
  Zn  Zn90  1  0.25549117  0.74062606  0.48932102  1
  Zn  Zn91  1  0.25843642  0.37368507  0.62112241  1
  Zn  Zn92  1  0.49948071  0.62842595  0.12679662  1
  Zn  Zn93  1  0.13045924  0.75293652  0.87121728  1
  Zn  Zn94  1  0.87208275  0.75957020  0.12643841  1
  Zn  Zn95  1  0.74937113  -0.01493074  0.24988377  1
  Zn  Zn96  1  0.74834053  0.25347279  0.00014228  1
  Zn  Zn97  1  0.87420225  0.12504290  0.74838690  1
  Zn  Zn98  1  0.62742834  0.25203881  0.38701006  1
  Zn  Zn99  1  0.39551657  0.37038482  0.49890828  1
  Zn  Zn100  1  0.50006695  0.75381973  0.24797675  1
  Zn  Zn101  1  0.25158665  0.49944652  0.74522239  1
  Zn  Zn102  1  0.50454136  0.23502877  0.74465848  1
  Zn  Zn103  1  0.01435475  0.62878155  0.12064536  1
  Zn  Zn104  1  0.00181565  0.86855344  0.37977375  1
  Zn  Zn105  1  0.37512377  0.62938561  0.26230601  1
  Zn  Zn106  1  -0.00267181  0.37126220  0.37430945  1
  Zn  Zn107  1  0.19439465  0.19194552  0.18985395  1
  Zn  Zn108  1  0.19223331  0.18148496  0.68511552  1
  Zn  Zn109  1  0.18620125  0.68979181  0.19405867  1
  Zn  Zn110  1  0.19468676  0.68612537  0.68272752  1
  Zn  Zn111  1  0.68960061  0.19105188  0.19121423  1
  Zn  Zn112  1  0.68511251  0.18610694  0.69181157  1
  Zn  Zn113  1  0.70083454  0.80382258  0.18072756  1
  Zn  Zn114  1  0.68874237  0.68355412  0.68827866  1
  Zn  Zn115  1  0.31555312  0.31642574  0.31549556  1
  Zn  Zn116  1  0.31129343  0.30954658  0.80800991  1
  Zn  Zn117  1  0.31145445  0.81584866  0.31507466  1
  Zn  Zn118  1  0.34257492  0.79678464  0.82649802  1
  Zn  Zn119  1  0.80666542  0.31497061  0.31433756  1
  Zn  Zn120  1  0.81466704  0.30867751  0.81146161  1
  Zn  Zn121  1  0.81897088  0.81077280  0.31719707  1
  Zn  Zn122  1  0.81756148  0.81301675  0.81126027  1
  Zn  Zn123  1  0.18791773  0.43328714  0.43429014  1
  Zn  Zn124  1  0.19074570  0.43106531  0.93356548  1
  Zn  Zn125  1  0.20341483  0.90985535  0.42758871  1
  Zn  Zn126  1  0.18944803  0.93654230  0.94073337  1
  Zn  Zn127  1  0.56905103  0.43758367  0.44118929  1
  Zn  Zn128  1  0.68789991  0.44247390  0.93540395  1
  Zn  Zn129  1  0.68862969  0.94283825  0.43907145  1
  Zn  Zn130  1  0.68524855  0.93653227  0.93668895  1
  Zn  Zn131  1  0.31333136  0.06658410  0.06027212  1
  Zn  Zn132  1  0.31193146  0.05930985  0.55919636  1
  Zn  Zn133  1  0.19304088  0.55928168  0.06587227  1
  Zn  Zn134  1  0.31173541  0.56084146  0.55617701  1
  Zn  Zn135  1  0.81093251  0.05862708  0.06295717  1
  Zn  Zn136  1  0.81471868  0.06234175  0.56626450  1
  Zn  Zn137  1  0.76271693  0.62216835  0.09542501  1
  Zn  Zn138  1  0.81161797  0.55995796  0.56015664  1
  Zn  Zn139  1  0.43241946  0.44129682  0.18760550  1
  Zn  Zn140  1  0.44051464  0.43100005  0.68132276  1
  Zn  Zn141  1  0.44116879  0.93635649  0.18659443  1
  Zn  Zn142  1  0.43753316  0.93583989  0.69291253  1
  Zn  Zn143  1  0.94001919  0.43998385  0.18584307  1
  Zn  Zn144  1  0.93613578  0.43500910  0.68478717  1
  Zn  Zn145  1  0.93677053  0.93678905  0.18792814  1
  Zn  Zn146  1  0.93653437  0.93713480  0.68884027  1
  Zn  Zn147  1  0.06043001  0.06280104  0.31347294  1
  Zn  Zn148  1  0.06456207  0.06268899  0.80869420  1
  Zn  Zn149  1  0.06251860  0.55948711  0.30939944  1
  Zn  Zn150  1  0.06008866  0.55998057  0.81020177  1
  Zn  Zn151  1  0.56768089  0.06932413  0.31451849  1
  Zn  Zn152  1  0.56597604  0.05515988  0.81615710  1
  Zn  Zn153  1  0.56200964  0.57184501  0.30635215  1
  Zn  Zn154  1  0.56251815  0.55924984  0.80687417  1
  Zn  Zn155  1  0.44468482  0.18671861  0.44135812  1
  Zn  Zn156  1  0.45789082  0.16653174  0.90324143  1
  Zn  Zn157  1  0.44015806  0.68642620  0.43595563  1
  Zn  Zn158  1  0.43036718  0.68626224  0.94065532  1
  Zn  Zn159  1  0.93547153  0.18700023  0.43980763  1
  Zn  Zn160  1  0.93863295  0.18888574  0.93731100  1
  Zn  Zn161  1  0.94066477  0.68549834  0.43716253  1
  Zn  Zn162  1  0.93869649  0.68722439  0.93414540  1
  Zn  Zn163  1  0.06381917  0.31519738  0.06317185  1
  Zn  Zn164  1  0.06399844  0.31106908  0.55855788  1
  Zn  Zn165  1  0.05706376  0.81314380  0.06733161  1
  Zn  Zn166  1  0.06557864  0.81413756  0.56536306  1
  Zn  Zn167  1  0.55821392  0.31154289  0.06331091  1
  Zn  Zn168  1  0.56485594  0.30474752  0.57129079  1
  Zn  Zn169  1  0.55542066  0.81320855  0.06183939  1
  Zn  Zn170  1  0.56105020  0.81133249  0.56009671  1
  O  O171  1  0.12239625  0.12442709  0.11954050  1
  O  O172  1  0.11773525  0.11127397  0.62673344  1
  O  O173  1  0.12666863  0.62501507  0.12599202  1
  O  O174  1  0.11996402  0.61234418  0.62201466  1
  O  O175  1  0.63163662  0.11738284  0.11519844  1
  O  O176  1  0.62791185  0.12215811  0.61665415  1
  O  O177  1  0.62125900  0.61130444  0.10575303  1
  O  O178  1  0.62107024  0.61629084  0.62081133  1
  O  O179  1  0.37422712  0.39243415  0.37784332  1
  O  O180  1  0.37893836  0.37776233  0.87715922  1
  O  O181  1  0.38643756  0.89118772  0.37702028  1
  O  O182  1  0.35924681  0.89107263  0.89435013  1
  O  O183  1  0.87514994  0.38058544  0.38256356  1
  O  O184  1  0.88091430  0.38017749  0.87838617  1
  O  O185  1  0.88028454  0.88362642  0.38684493  1
  O  O186  1  0.88490007  0.88140617  0.88156497  1
  O  O187  1  0.26177034  0.00528247  0.37011181  1
  O  O188  1  0.25123339  0.00562159  0.87017240  1
  O  O189  1  0.25551770  0.49685911  0.36487392  1
  O  O190  1  0.25681371  0.50413776  0.87188774  1
  O  O191  1  0.76404912  0.00253423  0.37326196  1
  O  O192  1  0.75852451  0.00453898  0.87059187  1
  O  O193  1  0.75430047  0.51245972  0.36986579  1
  O  O194  1  0.76498376  0.50589969  0.87599171  1
  O  O195  1  0.25130718  0.48620557  0.13858228  1
  O  O196  1  0.24135401  0.49499156  0.62311280  1
  O  O197  1  0.24134254  1.00355028  0.13077415  1
  O  O198  1  0.24388940  1.00153927  0.63640154  1
  O  O199  1  0.73895128  0.50530558  0.12959384  1
  O  O200  1  0.73686533  0.50454627  0.62773489  1
  O  O201  1  0.73512248  0.99701216  0.12426890  1
  O  O202  1  0.76072022  0.98831022  0.63856780  1
  O  O203  1  0.00853476  0.36927323  0.24995887  1
  O  O204  1  0.01029200  0.37025440  0.75257307  1
  O  O205  1  0.00434898  0.86658034  0.25132102  1
  O  O206  1  -0.00786569  0.86326391  0.75867944  1
  O  O207  1  0.50723947  0.37015139  0.24277669  1
  O  O208  1  0.50877390  0.37128042  0.75585696  1
  O  O209  1  0.49942978  0.87405235  0.26512124  1
  O  O210  1  0.51895464  0.87881905  0.75066773  1
  O  O211  1  0.49018597  0.13199224  0.24898710  1
  O  O212  1  0.49376400  0.13519779  0.79648409  1
  O  O213  1  0.49347152  0.63452041  0.24465907  1
  O  O214  1  0.48679879  0.62078181  0.74334276  1
  O  O215  1  0.99020009  0.13089018  0.24443581  1
  O  O216  1  0.99756307  0.12931048  0.73886577  1
  O  O217  1  0.99464686  0.62962141  0.24916429  1
  O  O218  1  0.99382893  0.63170741  0.74381205  1
  O  O219  1  0.38013953  0.26077584  0.00528294  1
  O  O220  1  0.36927369  0.24794775  0.50544172  1
  O  O221  1  0.36113896  0.75731225  0.01078064  1
  O  O222  1  0.37451214  0.75079798  0.50870609  1
  O  O223  1  0.87811944  0.26397946  0.00485557  1
  O  O224  1  0.87733712  0.25815099  0.51116233  1
  O  O225  1  0.88361234  0.76499979  -0.00171692  1
  O  O226  1  0.87121250  0.75466720  0.50575144  1
  O  O227  1  0.13198493  0.25052742  0.48600895  1
  O  O228  1  0.11801397  0.24218187  0.99128970  1
  O  O229  1  0.11792404  0.73137310  0.50511040  1
  O  O230  1  0.13474706  0.75807237  0.99840399  1
  O  O231  1  0.62560040  0.23245430  0.50491332  1
  O  O232  1  0.62655834  0.24144757  1.00003892  1
  O  O233  1  0.63363834  0.74153424  0.49550654  1
  O  O234  1  0.60936059  0.73819006  0.99299577  1
  O  O235  1  0.48378298  0.25590411  0.13415064  1
  O  O236  1  0.48734649  0.24082000  0.62878952  1
  O  O237  1  0.48599593  0.75096142  0.12707632  1
  O  O238  1  0.49349215  0.73543294  0.62000193  1
  O  O239  1  0.99441112  0.24556612  0.12973763  1
  O  O240  1  0.99940162  0.24193389  0.62665181  1
  O  O241  1  0.99276624  0.74699195  0.13703452  1
  O  O242  1  0.99443489  0.74519161  0.63077749  1
  O  O243  1  0.00818987  0.24814442  0.37050825  1
  O  O244  1  0.00571266  0.25544078  0.86619411  1
  O  O245  1  -0.00226907  0.75094242  0.36236525  1
  O  O246  1  0.00520761  0.75617555  0.86625489  1
  O  O247  1  0.50514842  0.24545855  0.35945533  1
  O  O248  1  0.50642930  0.26944827  0.88249893  1
  O  O249  1  0.51171172  0.76014680  0.37794566  1
  O  O250  1  0.44988118  0.76291877  0.86335443  1
  O  O251  1  0.25416506  0.13196269  0.48544126  1
  O  O252  1  0.23440709  0.12096831  0.99359132  1
  O  O253  1  0.23299889  0.62513128  0.50098356  1
  O  O254  1  0.24868271  0.63140736  0.99003762  1
  O  O255  1  0.73684626  0.11370906  0.50195658  1
  O  O256  1  0.74572409  0.12708535  0.99546185  1
  O  O257  1  0.74332229  0.62842302  0.49372407  1
  O  O258  1  0.73377935  0.61962926  0.98195298  1
  O  O259  1  0.25952581  0.37950167  0.00898214  1
  O  O260  1  0.24990241  0.35881496  0.49759018  1
  O  O261  1  0.25346613  0.86794379  0.00722324  1
  O  O262  1  0.26522661  0.89908117  0.52400991  1
  O  O263  1  0.75944973  0.37825369  0.00372424  1
  O  O264  1  0.75794201  0.37922265  0.49988656  1
  O  O265  1  0.76691229  0.87696152  -0.00873416  1
  O  O266  1  0.75584766  0.87230191  0.50925609  1
  O  O267  1  0.13784257  0.48954875  0.25751285  1
  O  O268  1  0.12408513  0.49110045  0.73905512  1
  O  O269  1  0.12781074  1.00331750  0.23763625  1
  O  O270  1  0.13338709  0.99788101  0.74270527  1
  O  O271  1  0.62586239  0.49738036  0.23904027  1
  O  O272  1  0.62320629  0.48757413  0.73741815  1
  O  O273  1  0.62492060  1.00539589  0.23304594  1
  O  O274  1  0.63814498  0.98914185  0.75600986  1
  O  O275  1  0.37458425  0.00841265  0.25377911  1
  O  O276  1  0.36951167  -0.00381352  0.76613043  1
  O  O277  1  0.36505555  0.50082070  0.26089766  1
  O  O278  1  0.37523051  0.50078806  0.75840128  1
  O  O279  1  0.87879081  0.00799106  0.25963334  1
  O  O280  1  0.86847448  -0.00055538  0.76258277  1
  O  O281  1  0.87178728  0.50341699  0.25724278  1
  O  O282  1  0.88532569  0.51135408  0.75707110  1
  O  O283  1  0.12364273  0.36440003  0.36376558  1
  O  O284  1  0.12092026  0.36925965  0.86480419  1
  O  O285  1  0.11309166  0.90186403  0.35610485  1
  O  O286  1  0.11332508  0.87639604  0.87620251  1
  O  O287  1  0.62738999  0.37665794  0.35812415  1
  O  O288  1  0.62008607  0.37990537  0.86305085  1
  O  O289  1  0.62162096  0.86649973  0.38325794  1
  O  O290  1  0.62563390  0.87072899  0.86373498  1
  O  O291  1  0.36691652  0.13624543  0.13401828  1
  O  O292  1  0.36649985  0.13784952  0.62295443  1
  O  O293  1  0.37309530  0.63848853  0.12665610  1
  O  O294  1  0.38202808  0.62452611  0.62774066  1
  O  O295  1  0.88069094  0.12893761  0.12915510  1
  O  O296  1  0.88347958  0.13653521  0.62609567  1
  O  O297  1  0.87848116  0.61537442  0.13902362  1
  O  O298  1  0.87955919  0.62673245  0.63115444  1
  O  O299  1  0.26490169  0.26501427  0.13340245  1
  O  O300  1  0.25423099  0.24923745  0.61509530  1
  O  O301  1  0.25422648  0.75279739  0.12043748  1
  O  O302  1  0.25493147  0.75982841  0.61505626  1
  O  O303  1  0.75832096  0.26114432  0.12323378  1
  O  O304  1  0.76555318  0.24574000  0.63093371  1
  O  O305  1  0.76159887  0.73173203  0.12240769  1
  O  O306  1  0.75679795  0.75496775  0.62074782  1
  O  O307  1  0.24601864  0.24210142  0.37870602  1
  O  O308  1  0.24089924  0.24022516  0.86916253  1
  O  O309  1  0.23887758  0.80140769  0.39722654  1
  O  O310  1  0.25073411  0.74084013  0.88359987  1
  O  O311  1  0.73809950  0.24111230  0.35616632  1
  O  O312  1  0.75035218  0.23993793  0.87851897  1
  O  O313  1  0.74729566  0.73914717  0.38220529  1
  O  O314  1  0.75659796  0.73602368  0.87341781  1
  O  O315  1  0.00872915  0.11903149  0.00323117  1
  O  O316  1  -0.00367017  0.11688161  0.51224107  1
  O  O317  1  -0.00304094  0.60967925  -0.00215001  1
  O  O318  1  0.00582092  0.61270665  0.50540393  1
  O  O319  1  0.51234723  0.11348872  -0.00620054  1
  O  O320  1  0.51268486  0.11159347  0.49946609  1
  O  O321  1  0.50138333  0.61517408  -0.00380060  1
  O  O322  1  0.51481250  0.62687503  0.50580175  1
  O  O323  1  0.50859979  0.36386239  0.49593366  1
  O  O324  1  0.49222448  0.38281308  0.99383280  1
  O  O325  1  0.50155314  0.88811106  0.49266891  1
  O  O326  1  0.48859628  0.88105890  0.99698593  1
  O  O327  1  0.99852996  0.38539637  0.49725689  1
  O  O328  1  0.99703236  0.38252527  0.99393735  1
  O  O329  1  0.99482087  0.88254235  0.50183629  1
  O  O330  1  0.99612566  0.88311064  0.99098621  1
  O  O331  1  0.49640222  0.50116903  0.37318540  1
  O  O332  1  0.49389674  0.49094104  0.87727031  1
  O  O333  1  0.49880537  0.99657617  0.37752499  1
  O  O334  1  0.49102109  0.98981798  0.88784422  1
  O  O335  1  0.99289518  0.49721112  0.38230909  1
  O  O336  1  0.99475540  0.49453696  0.88202849  1
  O  O337  1  0.98945357  1.00546032  0.38540868  1
  O  O338  1  0.99424789  0.99505910  0.87651305  1
  O  O339  1  0.00685548  0.00854710  0.12075922  1
  O  O340  1  0.00597022  0.00489611  0.62157160  1
  O  O341  1  -0.00027302  0.49952740  0.10660359  1
  O  O342  1  0.00652993  0.50272430  0.61652801  1
  O  O343  1  0.51289330  -0.00605193  0.11453510  1
  O  O344  1  0.49570270  -0.00214543  0.61485742  1
  O  O345  1  0.50225437  0.50192839  0.11422267  1
  O  O346  1  0.50981859  0.51088268  0.62727980  1
  O  O347  1  0.24493665  0.38187084  0.24637445  1
  O  O348  1  0.23680622  0.37634620  0.74632279  1
  O  O349  1  0.24027612  0.88781840  0.24615093  1
  O  O350  1  0.25781499  0.88700097  0.73976331  1
  O  O351  1  0.74276895  0.38613502  0.23973480  1
  O  O352  1  0.73849395  0.37533738  0.75578964  1
  O  O353  1  0.75582601  0.87248032  0.25083626  1
  O  O354  1  0.74442081  0.87841671  0.74600065  1
  O  O355  1  0.26151099  0.12274814  0.26002485  1
  O  O356  1  0.24487172  0.11214682  0.76298185  1
  O  O357  1  0.25173071  0.61061462  0.25164315  1
  O  O358  1  0.26088971  0.61965533  0.75374238  1
  O  O359  1  0.76402419  0.11736936  0.24298154  1
  O  O360  1  0.75186716  0.11626945  0.75946324  1
  O  O361  1  0.76097864  0.61837133  0.26012437  1
  O  O362  1  0.75877826  0.62538448  0.76114788  1
  O  O363  1  0.37341937  0.11734611  0.36777797  1
  O  O364  1  0.35619561  0.11177513  0.89539867  1
  O  O365  1  0.37779448  0.60802192  0.37859851  1
  O  O366  1  0.36503529  0.61388544  0.86652043  1
  O  O367  1  0.87256590  0.11985101  0.36766591  1
  O  O368  1  0.86763345  0.11738024  0.87579460  1
  O  O369  1  0.86947219  0.61751291  0.37188446  1
  O  O370  1  0.86776448  0.61897824  0.86890086  1
  O  O371  1  0.13421237  0.36617238  0.13863886  1
  O  O372  1  0.12485416  0.38362633  0.62852385  1
  O  O373  1  0.12188926  0.88790766  0.13461123  1
  O  O374  1  0.13456864  0.88721047  0.62268546  1
  O  O375  1  0.62931938  0.38828184  0.12422466  1
  O  O376  1  0.62585605  0.38413086  0.63497363  1
  O  O377  1  0.62631955  0.88002326  0.12423528  1
  O  O378  1  0.63698167  0.86869159  0.63322313  1
  O  O379  1  0.12116329  0.25402759  0.25902062  1
  O  O380  1  0.12055423  0.25529769  0.75120625  1
  O  O381  1  0.11878914  0.76458783  0.25015930  1
  O  O382  1  0.11468197  0.74576482  0.74599403  1
  O  O383  1  0.61325203  0.26330503  0.23720438  1
  O  O384  1  0.62393220  0.26324987  0.75226436  1
  O  O385  1  0.62669494  0.74898487  0.26306914  1
  O  O386  1  0.62872880  0.76058413  0.74903453  1
  O  O387  1  0.38125580  0.24572783  0.24625040  1
  O  O388  1  0.37420527  0.25081745  0.73468819  1
  O  O389  1  0.37034715  0.75153724  0.24333624  1
  O  O390  1  0.36328620  0.73552337  0.72985171  1
  O  O391  1  0.88120330  0.24460708  0.24338045  1
  O  O392  1  0.88417906  0.25079251  0.73792033  1
  O  O393  1  0.88451244  0.73851461  0.25188147  1
  O  O394  1  0.88331944  0.73795948  0.74575941  1
  O  O395  1  0.37666651  0.49502175  0.48839550  1
  O  O396  1  0.38480522  0.48973598  0.98278253  1
  O  O397  1  0.39108683  1.00541453  0.49148034  1
  O  O398  1  0.38243774  0.99463985  1.00110038  1
  O  O399  1  0.88163060  0.49171431  0.49655375  1
  O  O400  1  0.88801899  0.48732352  0.98895638  1
  O  O401  1  0.88333053  0.99534814  0.49620057  1
  O  O402  1  0.88038537  0.99498847  0.98927151  1
  O  O403  1  0.12034719  0.00651422  0.01069883  1
  O  O404  1  0.11411500  -0.00568032  0.50560809  1
  O  O405  1  0.11608872  0.49541213  -0.00380437  1
  O  O406  1  0.11902247  0.50392805  0.50322426  1
  O  O407  1  0.61996887  0.00178638  0.00949993  1
  O  O408  1  0.61479899  0.00489522  0.50339216  1
  O  O409  1  0.61084105  0.50121025  0.00045064  1
  O  O410  1  0.62804040  0.50782006  0.51341090  1
  O  O411  1  0.36899407  0.37218897  0.11511378  1
  O  O412  1  0.37473309  0.36246617  0.61784813  1
  O  O413  1  0.37242545  0.87198431  0.11662761  1
  O  O414  1  0.37390010  0.86400230  0.62749761  1
  O  O415  1  0.87016759  0.37495953  0.11679264  1
  O  O416  1  0.87883427  0.36188366  0.61650086  1
  O  O417  1  0.87951719  0.87991312  0.10617834  1
  O  O418  1  0.86782275  0.86830920  0.62198130  1
  O  O419  1  0.13685961  0.13170402  0.36689524  1
  O  O420  1  0.13022696  0.12882035  0.88232163  1
  O  O421  1  0.12054369  0.62223995  0.38768059  1
  O  O422  1  0.13824070  0.62556227  0.86478130  1
  O  O423  1  0.62884941  0.12518811  0.39009777  1
  O  O424  1  0.64082080  0.12004500  0.88821637  1
  O  O425  1  0.63307282  0.63055713  0.38196462  1
  O  O426  1  0.63571824  0.61947250  0.87322736  1
