# generated using pymatgen
data_V85Zn86O256
_symmetry_space_group_name_H-M   'P 1'
_cell_length_a   16.91808068
_cell_length_b   16.91407350
_cell_length_c   16.90807799
_cell_angle_alpha   90.02140984
_cell_angle_beta   89.98508992
_cell_angle_gamma   89.99243615
_symmetry_Int_Tables_number   1
_chemical_formula_structural   V85Zn86O256
_chemical_formula_sum   'V85 Zn86 O256'
_cell_volume   4838.30785787
_cell_formula_units_Z   1
loop_
 _symmetry_equiv_pos_site_id
 _symmetry_equiv_pos_as_xyz
  1  'x, y, z'
loop_
 _atom_site_type_symbol
 _atom_site_label
 _atom_site_symmetry_multiplicity
 _atom_site_fract_x
 _atom_site_fract_y
 _atom_site_fract_z
 _atom_site_occupancy
  V  V0  1  0.87763875  0.87849676  0.50069076  1
  V  V1  1  0.62715579  0.00018861  0.62965036  1
  V  V2  1  0.76404093  0.12033248  0.87741298  1
  V  V3  1  0.76566602  0.37078259  0.62444496  1
  V  V4  1  0.11870212  0.62355833  0.50783642  1
  V  V5  1  0.24737740  0.75361526  0.00170715  1
  V  V6  1  0.37282745  0.37474497  0.00485591  1
  V  V7  1  0.74695842  -0.00788748  0.25308428  1
  V  V8  1  0.37465623  0.87141487  0.00337612  1
  V  V9  1  0.74903957  0.49548399  0.24498563  1
  V  V10  1  0.25160092  0.62707206  0.37133593  1
  V  V11  1  0.24977828  0.62497521  0.87470441  1
  V  V12  1  -0.00265867  0.11821001  0.13011861  1
  V  V13  1  0.12235474  0.11646492  0.00478863  1
  V  V14  1  0.74999971  0.87635729  0.11696544  1
  V  V15  1  0.12833251  0.89373713  0.74818128  1
  V  V16  1  0.62412275  0.62580145  0.49940890  1
  V  V17  1  0.62409777  0.12799093  0.49930085  1
  V  V18  1  0.11764041  0.50139736  0.11764196  1
  V  V19  1  0.75286182  0.12686892  0.36910482  1
  V  V20  1  0.25348688  0.50357725  0.24752036  1
  V  V21  1  0.49901034  0.00322879  0.00406735  1
  V  V22  1  0.76211577  0.25414251  0.50272633  1
  V  V23  1  0.48981072  0.24452673  0.23882798  1
  V  V24  1  0.62666112  0.75701067  0.37055644  1
  V  V25  1  0.12366345  0.24672223  0.37989021  1
  V  V26  1  0.37581876  0.50586306  0.37326177  1
  V  V27  1  0.49882251  0.37421107  0.37479569  1
  V  V28  1  0.12583112  0.75056236  0.37263680  1
  V  V29  1  0.49784883  0.62386197  0.12592339  1
  V  V30  1  0.12655907  0.87590666  0.23536933  1
  V  V31  1  0.12345181  0.37553189  0.25040229  1
  V  V32  1  -0.01428686  0.87952983  0.87250419  1
  V  V33  1  0.24886699  0.88755111  0.62597345  1
  V  V34  1  0.61866478  -0.00383376  0.13115775  1
  V  V35  1  0.62679538  0.37314502  0.24214373  1
  V  V36  1  0.87330559  0.38086678  0.00820006  1
  V  V37  1  -0.00313927  0.37728322  0.38353071  1
  V  V38  1  0.24742122  0.12351881  0.37728629  1
  V  V39  1  0.01663347  0.13503501  0.62292433  1
  V  V40  1  0.87734065  0.00433922  0.37194114  1
  V  V41  1  0.24922387  0.37417636  0.12264033  1
  V  V42  1  0.62313419  0.25039120  0.37470591  1
  V  V43  1  0.50235129  0.37478148  0.87685517  1
  V  V44  1  0.11599368  0.24789598  0.88089645  1
  V  V45  1  0.37407905  0.49910268  0.87508434  1
  V  V46  1  0.62757786  0.49883620  0.62471306  1
  V  V47  1  0.87370652  0.49770207  0.38068439  1
  V  V48  1  0.30411229  0.20684745  0.06005631  1
  V  V49  1  0.24751057  0.25129717  0.50657931  1
  V  V50  1  0.75048131  0.75196325  0.50072686  1
  V  V51  1  -0.00157222  0.38320850  0.87865515  1
  V  V52  1  0.01459793  0.00344379  0.50682349  1
  V  V53  1  0.37615020  0.75680184  0.62256762  1
  V  V54  1  0.36971198  0.37692018  0.50555675  1
  V  V55  1  0.50003841  0.25049712  0.74829113  1
  V  V56  1  0.49867807  0.12737955  0.62372416  1
  V  V57  1  0.49922922  0.87599361  0.37215796  1
  V  V58  1  0.37022987  0.12183220  0.74760597  1
  V  V59  1  0.24945816  0.49210679  0.74155815  1
  V  V60  1  0.37046195  -0.00270556  0.87018645  1
  V  V61  1  0.63220413  0.62445944  -0.00169454  1
  V  V62  1  0.62421654  0.12426561  0.00144487  1
  V  V63  1  0.87823020  0.12903918  0.73006849  1
  V  V64  1  0.62908256  0.37358617  0.74981129  1
  V  V65  1  0.37354762  -0.00163217  0.37217660  1
  V  V66  1  0.88357813  0.62353869  0.75282351  1
  V  V67  1  0.12376294  0.75278275  0.86968243  1
  V  V68  1  0.49507708  -0.00266986  0.49896842  1
  V  V69  1  0.50262387  0.74942207  0.24761042  1
  V  V70  1  0.86754271  0.24757979  0.12750200  1
  V  V71  1  0.87379232  0.62606377  0.25016432  1
  V  V72  1  0.37599912  0.62635492  0.74821459  1
  V  V73  1  0.88575418  0.74289922  0.62154029  1
  V  V74  1  0.25364585  0.75587532  0.50032758  1
  V  V75  1  -0.00044296  0.75073892  0.24823018  1
  V  V76  1  -0.01877370  -0.00508517  -0.00063885  1
  V  V77  1  0.75341775  0.50488794  0.75969294  1
  V  V78  1  0.24901381  0.13048776  0.87422609  1
  V  V79  1  -0.00756375  0.24526021  0.25251741  1
  V  V80  1  0.12413797  0.36763379  0.74591730  1
  V  V81  1  0.24441701  -0.00476989  0.23982170  1
  V  V82  1  0.37067270  0.74926106  0.13047104  1
  V  V83  1  0.63022231  0.74708921  0.87110289  1
  V  V84  1  0.87396861  0.75507000  0.11670277  1
  Zn  Zn85  1  0.50133746  0.62708887  0.62494729  1
  Zn  Zn86  1  -0.00522553  0.62086119  0.11626316  1
  Zn  Zn87  1  0.74777597  0.62420740  0.37312608  1
  Zn  Zn88  1  0.75472285  0.75097690  -0.00692351  1
  Zn  Zn89  1  0.37050866  0.25612025  0.62766628  1
  Zn  Zn90  1  0.37191622  0.12650558  0.23608882  1
  Zn  Zn91  1  0.11708840  0.62038926  -0.00719109  1
  Zn  Zn92  1  0.50230045  0.50022389  0.00231009  1
  Zn  Zn93  1  0.87685258  0.51105514  0.88641389  1
  Zn  Zn94  1  0.62656616  0.49813091  0.12249370  1
  Zn  Zn95  1  0.00476904  0.75073793  0.74378604  1
  Zn  Zn96  1  0.49967891  0.50092001  0.50050641  1
  Zn  Zn97  1  0.50145211  0.87378699  0.87244679  1
  Zn  Zn98  1  0.12206855  0.49704834  0.62663497  1
  Zn  Zn99  1  0.50049542  0.75299289  0.74961016  1
  Zn  Zn100  1  0.76106070  -0.00491226  0.75662149  1
  Zn  Zn101  1  0.74859287  0.25188544  0.00275988  1
  Zn  Zn102  1  0.62897949  0.24751624  0.87604230  1
  Zn  Zn103  1  -0.01311593  0.50236482  0.51420712  1
  Zn  Zn104  1  0.00404867  0.87955415  0.37333102  1
  Zn  Zn105  1  0.62533367  0.87461742  0.74893984  1
  Zn  Zn106  1  0.75128010  0.87764434  0.62650439  1
  Zn  Zn107  1  0.17609019  0.18049834  0.19581800  1
  Zn  Zn108  1  0.18618616  0.18809245  0.69189323  1
  Zn  Zn109  1  0.18689865  0.68586920  0.18581453  1
  Zn  Zn110  1  0.19186359  0.69078425  0.68811150  1
  Zn  Zn111  1  0.68312384  0.18189293  0.18886492  1
  Zn  Zn112  1  0.69187663  0.18639688  0.69006826  1
  Zn  Zn113  1  0.68698833  0.68790845  0.18622734  1
  Zn  Zn114  1  0.69375045  0.68612327  0.68703552  1
  Zn  Zn115  1  0.31138583  0.31521789  0.31417711  1
  Zn  Zn116  1  0.31074334  0.30892729  0.81708612  1
  Zn  Zn117  1  0.31454250  0.81569868  0.31113726  1
  Zn  Zn118  1  0.31002495  0.81461302  0.81020878  1
  Zn  Zn119  1  0.81258028  0.31359250  0.31432494  1
  Zn  Zn120  1  0.81649485  0.30781831  0.81464585  1
  Zn  Zn121  1  0.81370028  0.81618377  0.31246707  1
  Zn  Zn122  1  0.80769938  0.80829437  0.80566045  1
  Zn  Zn123  1  0.18642118  0.43775921  0.43746828  1
  Zn  Zn124  1  0.19080230  0.43336774  0.93593791  1
  Zn  Zn125  1  0.18846145  0.93340515  0.43250507  1
  Zn  Zn126  1  0.18704856  0.93728146  0.93547524  1
  Zn  Zn127  1  0.69000383  0.43569348  0.43613630  1
  Zn  Zn128  1  0.69014306  0.43658170  0.94030116  1
  Zn  Zn129  1  0.68539599  0.93808621  0.44103510  1
  Zn  Zn130  1  0.68700371  0.93680794  0.93601911  1
  Zn  Zn131  1  0.30474242  0.04400305  0.05849070  1
  Zn  Zn132  1  0.31325933  0.06656549  0.55820368  1
  Zn  Zn133  1  0.31195052  0.56553419  0.06084701  1
  Zn  Zn134  1  0.30939765  0.56625338  0.56126292  1
  Zn  Zn135  1  0.81017390  0.06529891  0.06711359  1
  Zn  Zn136  1  0.81177952  0.06371759  0.55805309  1
  Zn  Zn137  1  0.81205835  0.56286704  0.06608856  1
  Zn  Zn138  1  0.80877887  0.56444691  0.56692064  1
  Zn  Zn139  1  0.43738136  0.43690235  0.18795660  1
  Zn  Zn140  1  0.44090581  0.43988522  0.68721635  1
  Zn  Zn141  1  0.43522621  0.93415452  0.18803930  1
  Zn  Zn142  1  0.43928560  0.93611813  0.68843731  1
  Zn  Zn143  1  0.93664669  0.43391654  0.19241439  1
  Zn  Zn144  1  0.94468175  0.43641741  0.69263370  1
  Zn  Zn145  1  0.93630233  0.93757816  0.18755866  1
  Zn  Zn146  1  0.93791764  0.94209466  0.68748817  1
  Zn  Zn147  1  0.06343038  0.06241304  0.31455969  1
  Zn  Zn148  1  0.05288893  0.06566604  0.81354657  1
  Zn  Zn149  1  0.06234123  0.56320929  0.31182326  1
  Zn  Zn150  1  0.06252290  0.56096760  0.80975051  1
  Zn  Zn151  1  0.56148123  0.06620657  0.30909354  1
  Zn  Zn152  1  0.56018210  0.06272383  0.81609716  1
  Zn  Zn153  1  0.56243486  0.56579675  0.31047464  1
  Zn  Zn154  1  0.56327179  0.56361976  0.81317282  1
  Zn  Zn155  1  0.43275743  0.18696812  0.43358450  1
  Zn  Zn156  1  0.44343588  0.18406257  0.93353900  1
  Zn  Zn157  1  0.43793363  0.68856027  0.43864091  1
  Zn  Zn158  1  0.44300337  0.68733347  0.93737104  1
  Zn  Zn159  1  0.93924042  0.18367208  0.44245243  1
  Zn  Zn160  1  0.93831196  0.19039706  0.94212058  1
  Zn  Zn161  1  0.93858314  0.68724266  0.43373744  1
  Zn  Zn162  1  0.94202544  0.68820408  0.93501685  1
  Zn  Zn163  1  0.05981836  0.30850925  0.06163703  1
  Zn  Zn164  1  0.06179457  0.31516205  0.56233816  1
  Zn  Zn165  1  0.05853726  0.81195119  0.05769369  1
  Zn  Zn166  1  0.06679103  0.81729663  0.56196089  1
  Zn  Zn167  1  0.56120461  0.31016355  0.06192620  1
  Zn  Zn168  1  0.56469348  0.31389535  0.56200963  1
  Zn  Zn169  1  0.56450923  0.81471545  0.05913325  1
  Zn  Zn170  1  0.55968238  0.81570392  0.56107102  1
  O  O171  1  0.10887161  0.12828994  0.11832647  1
  O  O172  1  0.11587800  0.12449660  0.62796943  1
  O  O173  1  0.12516891  0.60969919  0.12461834  1
  O  O174  1  0.13162417  0.62908650  0.60986195  1
  O  O175  1  0.63158530  0.11081538  0.11227772  1
  O  O176  1  0.61858842  0.12034848  0.61895749  1
  O  O177  1  0.61364751  0.62625328  0.11887835  1
  O  O178  1  0.62677380  0.61810273  0.61718203  1
  O  O179  1  0.38043976  0.38550496  0.38172530  1
  O  O180  1  0.38089247  0.37728497  0.88526808  1
  O  O181  1  0.38132936  0.88929248  0.37182509  1
  O  O182  1  0.37368500  0.88158427  0.88280622  1
  O  O183  1  0.88358475  0.38607898  0.37007276  1
  O  O184  1  0.88605014  0.37476347  0.88385575  1
  O  O185  1  0.87888017  0.88123283  0.38597895  1
  O  O186  1  0.88690809  0.86925716  0.86455827  1
  O  O187  1  0.25675726  0.00565472  0.37143710  1
  O  O188  1  0.26330686  0.01258221  0.88507223  1
  O  O189  1  0.25554071  0.50748871  0.36848055  1
  O  O190  1  0.25588786  0.50611071  0.86883282  1
  O  O191  1  0.75389255  0.00532611  0.37170353  1
  O  O192  1  0.74243142  0.01586819  0.87362535  1
  O  O193  1  0.75662183  0.50111553  0.36538732  1
  O  O194  1  0.75482639  0.49474688  0.86273271  1
  O  O195  1  0.24453386  0.49673535  0.13179543  1
  O  O196  1  0.24705016  0.50300646  0.63807962  1
  O  O197  1  0.24353145  0.99792327  0.14059869  1
  O  O198  1  0.25661655  0.98644459  0.61432305  1
  O  O199  1  0.74761472  0.50095105  0.14039949  1
  O  O200  1  0.74197638  0.49116871  0.63071409  1
  O  O201  1  0.74564592  0.99438637  0.13449509  1
  O  O202  1  0.73845236  1.00149730  0.62164011  1
  O  O203  1  0.00514139  0.36641656  0.26024859  1
  O  O204  1  0.00895789  0.37293708  0.76836774  1
  O  O205  1  0.00726183  0.86890468  0.25125314  1
  O  O206  1  0.01178812  0.87682467  0.75396064  1
  O  O207  1  0.50292666  0.36752008  0.25937090  1
  O  O208  1  0.50541473  0.37014050  0.75662499  1
  O  O209  1  0.49650497  0.86501157  0.26152139  1
  O  O210  1  0.50614770  0.87198409  0.75356239  1
  O  O211  1  0.49423330  0.13959087  0.25072983  1
  O  O212  1  0.49000380  0.13127414  0.74704268  1
  O  O213  1  0.50148970  0.63950043  0.24331706  1
  O  O214  1  0.48610688  0.62362227  0.74766979  1
  O  O215  1  1.00389272  0.13209459  0.24353075  1
  O  O216  1  0.99178968  0.12073187  0.73207609  1
  O  O217  1  0.99273880  0.63298444  0.24581933  1
  O  O218  1  0.98874494  0.62818625  0.74950198  1
  O  O219  1  0.37550378  0.25521982  -0.00192596  1
  O  O220  1  0.36614243  0.25928166  0.49771420  1
  O  O221  1  0.37015680  0.75472481  0.00550730  1
  O  O222  1  0.36534944  0.74608080  0.50797893  1
  O  O223  1  0.87407079  0.25838023  0.01152569  1
  O  O224  1  0.86117343  0.25069546  0.49246240  1
  O  O225  1  0.87318299  0.74617089  0.01303239  1
  O  O226  1  0.87037723  0.75473405  0.50160535  1
  O  O227  1  0.13248931  0.25808643  0.48724034  1
  O  O228  1  0.11930369  0.23467626  0.99313893  1
  O  O229  1  0.13048097  0.74182608  0.49359931  1
  O  O230  1  0.13241793  0.75333479  0.98722449  1
  O  O231  1  0.62864498  0.24495220  0.49206157  1
  O  O232  1  0.62722594  0.23967468  1.00159187  1
  O  O233  1  0.63205997  0.74554816  0.49535175  1
  O  O234  1  0.62680006  0.74361791  0.99015100  1
  O  O235  1  0.49792413  0.25396396  0.14038638  1
  O  O236  1  0.49747676  0.24488658  0.63038541  1
  O  O237  1  0.49546709  0.74780743  0.13119287  1
  O  O238  1  0.49077067  0.74851450  0.62508589  1
  O  O239  1  0.99243668  0.24299604  0.13538243  1
  O  O240  1  1.00277468  0.23411188  0.61578097  1
  O  O241  1  0.99175409  0.75126798  0.13419715  1
  O  O242  1  0.98950915  0.75483649  0.62232537  1
  O  O243  1  0.00431359  0.25414122  0.37293759  1
  O  O244  1  0.00951133  0.25617333  0.87872962  1
  O  O245  1  0.00482291  0.75148132  0.36183409  1
  O  O246  1  0.00916464  0.76188895  0.87132895  1
  O  O247  1  0.50297510  0.25807299  0.36900679  1
  O  O248  1  0.50176962  0.26091784  0.86852530  1
  O  O249  1  0.50411939  0.75647983  0.36939447  1
  O  O250  1  0.51226488  0.75143849  0.87217597  1
  O  O251  1  0.25576694  0.13446245  0.48510759  1
  O  O252  1  0.24498723  0.13056907  0.99962889  1
  O  O253  1  0.24270764  0.63458179  0.48980020  1
  O  O254  1  0.24662126  0.63605449  0.99195486  1
  O  O255  1  0.74268231  0.13184617  0.48973225  1
  O  O256  1  0.74411974  0.12528846  0.99210105  1
  O  O257  1  0.74007524  0.63310082  0.49666930  1
  O  O258  1  0.73646548  0.62832013  1.00862859  1
  O  O259  1  0.25923107  0.37198809  0.00746203  1
  O  O260  1  0.25871026  0.36591332  0.49193944  1
  O  O261  1  0.25736261  0.86237348  -0.00534286  1
  O  O262  1  0.24215990  0.86230423  0.50654578  1
  O  O263  1  0.76778226  0.36968971  -0.00464766  1
  O  O264  1  0.74455868  0.36605530  0.51031094  1
  O  O265  1  0.74869247  0.87477499  0.01278990  1
  O  O266  1  0.75903486  0.86869547  0.50026462  1
  O  O267  1  0.13562758  0.49620441  0.24415963  1
  O  O268  1  0.13417007  0.48978826  0.75268227  1
  O  O269  1  0.13602831  0.99110870  0.25727754  1
  O  O270  1  0.12493861  0.99195241  0.75592576  1
  O  O271  1  0.63136321  0.49165817  0.25217289  1
  O  O272  1  0.63391990  0.49741248  0.74385512  1
  O  O273  1  0.63165435  1.00425166  0.24220093  1
  O  O274  1  0.62140020  1.00472611  0.73634372  1
  O  O275  1  0.36293759  0.00206415  0.25236387  1
  O  O276  1  0.37926157  0.00891230  0.75869360  1
  O  O277  1  0.36173229  0.49470479  0.25717854  1
  O  O278  1  0.36871309  0.50398708  0.75414208  1
  O  O279  1  0.86767620  -0.00471299  0.26504375  1
  O  O280  1  0.87559319  0.01879562  0.74629240  1
  O  O281  1  0.86909863  0.50644248  0.25607814  1
  O  O282  1  0.87162391  0.51073922  0.75222603  1
  O  O283  1  0.11882614  0.37011315  0.36841651  1
  O  O284  1  0.11489894  0.36730456  0.87794238  1
  O  O285  1  0.12378192  0.86488245  0.36502190  1
  O  O286  1  0.12294406  0.87107243  0.86302326  1
  O  O287  1  0.61542345  0.37116198  0.36768194  1
  O  O288  1  0.61796642  0.37302368  0.87023466  1
  O  O289  1  0.61799427  0.86436292  0.37923976  1
  O  O290  1  0.62353455  0.86133767  0.87502150  1
  O  O291  1  0.35637025  0.13371646  0.11648967  1
  O  O292  1  0.38007159  0.12772580  0.63240592  1
  O  O293  1  0.38791892  0.63479462  0.11792443  1
  O  O294  1  0.37419683  0.63437132  0.63148209  1
  O  O295  1  0.88724535  0.13281247  0.12201534  1
  O  O296  1  0.87782747  0.12911518  0.62676560  1
  O  O297  1  0.87426233  0.63265121  0.13673105  1
  O  O298  1  0.87393289  0.63269229  0.63268242  1
  O  O299  1  0.24116195  0.25596257  0.12996497  1
  O  O300  1  0.25031199  0.24340934  0.61016312  1
  O  O301  1  0.25912905  0.74206104  0.11551730  1
  O  O302  1  0.25683475  0.75733038  0.61715031  1
  O  O303  1  0.76378968  0.24124213  0.12984523  1
  O  O304  1  0.74393557  0.25885836  0.61536802  1
  O  O305  1  0.75624041  0.76020684  0.12728371  1
  O  O306  1  0.75898649  0.75149786  0.61177074  1
  O  O307  1  0.24240135  0.24313340  0.37728709  1
  O  O308  1  0.24330601  0.23622124  0.87951502  1
  O  O309  1  0.24935006  0.74480977  0.37960033  1
  O  O310  1  0.24457436  0.74499668  0.87990167  1
  O  O311  1  0.74363267  0.24352529  0.37817296  1
  O  O312  1  0.74761971  0.23466504  0.87771965  1
  O  O313  1  0.74368281  0.75137676  0.38351019  1
  O  O314  1  0.73641773  0.74967378  0.87596562  1
  O  O315  1  0.00347720  0.11209147  0.00531980  1
  O  O316  1  -0.00036782  0.11331466  0.51016437  1
  O  O317  1  0.00471788  0.62724373  0.00378924  1
  O  O318  1  0.01571161  0.62315751  0.49192969  1
  O  O319  1  0.50584046  0.11188413  -0.00147806  1
  O  O320  1  0.50421848  0.12050052  0.50203914  1
  O  O321  1  0.50997700  0.62306023  0.00841560  1
  O  O322  1  0.51263613  0.62375331  0.50109292  1
  O  O323  1  0.49474076  0.37712788  0.48771335  1
  O  O324  1  0.49384239  0.37625210  0.99306630  1
  O  O325  1  0.50189796  0.88456718  0.48535653  1
  O  O326  1  0.49183810  0.88408784  0.99654802  1
  O  O327  1  1.00489772  0.38099742  0.48700109  1
  O  O328  1  0.98817631  0.36997922  0.99073276  1
  O  O329  1  0.99593257  0.88639464  0.49772528  1
  O  O330  1  1.00312751  0.88850857  0.99115497  1
  O  O331  1  0.49179229  0.49444949  0.37325881  1
  O  O332  1  0.49409010  0.48776961  0.87340934  1
  O  O333  1  0.49506594  0.99501425  0.37583340  1
  O  O334  1  0.48676619  0.99955516  0.88388413  1
  O  O335  1  0.99152408  0.49318590  0.37382234  1
  O  O336  1  0.99918092  0.48702793  0.87649153  1
  O  O337  1  0.99222065  1.00305464  0.38493052  1
  O  O338  1  1.00091974  0.99478323  0.88943041  1
  O  O339  1  -0.00487119  0.00482883  0.11353410  1
  O  O340  1  -0.00052039  0.00663537  0.61048591  1
  O  O341  1  0.01527253  0.49835103  0.13422784  1
  O  O342  1  0.00856497  0.49494628  0.62337768  1
  O  O343  1  0.50625966  -0.00511545  0.11924036  1
  O  O344  1  0.50290744  0.00597565  0.61472166  1
  O  O345  1  0.50181739  0.51063811  0.12721852  1
  O  O346  1  0.51497537  0.50230401  0.62287396  1
  O  O347  1  0.24401845  0.38243369  0.24417942  1
  O  O348  1  0.24082156  0.38263686  0.76149658  1
  O  O349  1  0.24329081  0.88719722  0.25440856  1
  O  O350  1  0.23782086  0.87638143  0.74262478  1
  O  O351  1  0.73803587  0.38092670  0.25661419  1
  O  O352  1  0.74686768  0.37844468  0.74507455  1
  O  O353  1  0.74939498  0.88719484  0.24593297  1
  O  O354  1  0.74441858  0.88048471  0.74411293  1
  O  O355  1  0.24861789  0.11336576  0.25856377  1
  O  O356  1  0.26202343  0.12835076  0.75791197  1
  O  O357  1  0.24702770  0.61940063  0.26247995  1
  O  O358  1  0.25978999  0.61806957  0.75463090  1
  O  O359  1  0.74508543  0.11468726  0.26325057  1
  O  O360  1  0.76023796  0.12137159  0.75904478  1
  O  O361  1  0.75664686  0.61876562  0.25265307  1
  O  O362  1  0.76356624  0.61361783  0.74323004  1
  O  O363  1  0.36785563  0.11416715  0.36775359  1
  O  O364  1  0.36848281  0.11980074  0.86916852  1
  O  O365  1  0.36876502  0.61409281  0.37977107  1
  O  O366  1  0.37131249  0.62062659  0.86820372  1
  O  O367  1  0.86522491  0.11668553  0.38046776  1
  O  O368  1  0.86489511  0.12325219  0.88084487  1
  O  O369  1  0.87352554  0.62024738  0.36315002  1
  O  O370  1  0.87593886  0.62763316  0.85911237  1
  O  O371  1  0.12736525  0.38269467  0.12941040  1
  O  O372  1  0.12466058  0.36948087  0.64236287  1
  O  O373  1  0.12389780  0.86711412  0.13594769  1
  O  O374  1  0.13242942  0.87254363  0.63985987  1
  O  O375  1  0.61889470  0.37666154  0.13820056  1
  O  O376  1  0.62916766  0.38298420  0.63202652  1
  O  O377  1  0.63220085  0.88708067  0.12290974  1
  O  O378  1  0.62646923  0.88673640  0.62185169  1
  O  O379  1  0.11356395  0.25519222  0.26098613  1
  O  O380  1  0.13310423  0.25708768  0.76690391  1
  O  O381  1  0.11833741  0.75377452  0.25192934  1
  O  O382  1  0.12606738  0.75448849  0.75938635  1
  O  O383  1  0.61553322  0.25465079  0.25475602  1
  O  O384  1  0.61659539  0.25414738  0.75129817  1
  O  O385  1  0.61734499  0.74821897  0.25956838  1
  O  O386  1  0.62461176  0.74499726  0.75933633  1
  O  O387  1  0.38546179  0.24987223  0.25380007  1
  O  O388  1  0.38173951  0.24418616  0.74903023  1
  O  O389  1  0.38059014  0.75514847  0.23676316  1
  O  O390  1  0.37336859  0.74173576  0.74280571  1
  O  O391  1  0.88577590  0.25470998  0.24614892  1
  O  O392  1  0.87525824  0.22658847  0.75782725  1
  O  O393  1  0.88097046  0.74419535  0.24681518  1
  O  O394  1  0.87586428  0.73928004  0.73874323  1
  O  O395  1  0.37446621  0.49544347  0.49259281  1
  O  O396  1  0.37666532  0.49276826  0.99299149  1
  O  O397  1  0.38829811  1.00681389  0.48936068  1
  O  O398  1  0.38037966  0.98988760  0.99525920  1
  O  O399  1  0.87176302  0.51114287  0.48499869  1
  O  O400  1  0.87226357  0.48723065  1.00298603  1
  O  O401  1  0.87970967  0.99355820  0.49153138  1
  O  O402  1  0.88288445  0.99871035  1.00230636  1
  O  O403  1  0.12547801  0.01305577  -0.00306481  1
  O  O404  1  0.11247483  -0.00320219  0.49345595  1
  O  O405  1  0.13226840  0.49796069  0.01490543  1
  O  O406  1  0.13114101  0.51593495  0.50132115  1
  O  O407  1  0.61554195  0.00288158  0.00593055  1
  O  O408  1  0.61434377  0.00771276  0.50514259  1
  O  O409  1  0.62363711  0.50696734  0.00214463  1
  O  O410  1  0.62689261  0.50812773  0.50564128  1
  O  O411  1  0.37096075  0.37787262  0.11250305  1
  O  O412  1  0.38147450  0.37657102  0.60981313  1
  O  O413  1  0.37675054  0.86595300  0.11194436  1
  O  O414  1  0.36626964  0.86385869  0.63128802  1
  O  O415  1  0.88193408  0.36710384  0.11491647  1
  O  O416  1  0.86448652  0.37687816  0.63147292  1
  O  O417  1  0.86413973  0.86562321  0.13320126  1
  O  O418  1  0.87547751  0.86991591  0.61277132  1
  O  O419  1  0.13331741  0.13511849  0.37194909  1
  O  O420  1  0.12984007  0.12939852  0.87978510  1
  O  O421  1  0.13337746  0.63049295  0.38075518  1
  O  O422  1  0.13144682  0.63344294  0.87206409  1
  O  O423  1  0.63056093  0.13026644  0.37998114  1
  O  O424  1  0.62805225  0.12523589  0.88782177  1
  O  O425  1  0.62497091  0.63702798  0.38195843  1
  O  O426  1  0.62049193  0.63495054  0.88374258  1
