# generated using pymatgen
data_V85Zn86O256
_symmetry_space_group_name_H-M   'P 1'
_cell_length_a   16.94815652
_cell_length_b   16.94395428
_cell_length_c   16.93882543
_cell_angle_alpha   89.93507666
_cell_angle_beta   89.92427652
_cell_angle_gamma   89.96157510
_symmetry_Int_Tables_number   1
_chemical_formula_structural   V85Zn86O256
_chemical_formula_sum   'V85 Zn86 O256'
_cell_volume   4864.29352636
_cell_formula_units_Z   1
loop_
 _symmetry_equiv_pos_site_id
 _symmetry_equiv_pos_as_xyz
  1  'x, y, z'
loop_
 _atom_site_type_symbol
 _atom_site_label
 _atom_site_symmetry_multiplicity
 _atom_site_fract_x
 _atom_site_fract_y
 _atom_site_fract_z
 _atom_site_occupancy
  V  V0  1  0.37579333  0.50360767  0.87431013  1
  V  V1  1  0.61448625  0.75204719  0.88047700  1
  V  V2  1  0.50752054  0.49468300  0.00343075  1
  V  V3  1  0.62409201  0.62561288  0.49912692  1
  V  V4  1  0.74274533  0.62743892  0.88060269  1
  V  V5  1  0.50172160  0.11043607  0.62066585  1
  V  V6  1  0.51357280  0.62115024  0.11902482  1
  V  V7  1  0.87168999  0.25072655  0.12787957  1
  V  V8  1  0.12632333  0.12151515  0.50629592  1
  V  V9  1  -0.00192038  0.74872918  0.24964384  1
  V  V10  1  0.24663656  0.50011129  0.24974311  1
  V  V11  1  0.25518190  0.62412030  0.85865856  1
  V  V12  1  0.00172845  0.50015782  0.00001301  1
  V  V13  1  0.25267527  0.11501141  0.87504095  1
  V  V14  1  0.12442593  0.75354111  0.37661041  1
  V  V15  1  0.74541588  0.12597735  0.87217004  1
  V  V16  1  0.62232038  0.38437392  0.24975390  1
  V  V17  1  0.74939082  0.26066355  0.50052469  1
  V  V18  1  0.75897807  0.73895940  0.49779688  1
  V  V19  1  0.75185013  0.11063743  0.37625391  1
  V  V20  1  0.37395068  0.76577398  0.62501888  1
  V  V21  1  0.12503138  0.62038871  0.50875123  1
  V  V22  1  0.12511836  0.62539887  -0.00176531  1
  V  V23  1  0.50249872  0.24937117  0.24991967  1
  V  V24  1  0.49989006  0.87553950  0.38756421  1
  V  V25  1  0.50162052  0.24826233  0.74512598  1
  V  V26  1  0.25112111  0.74873271  -0.00274955  1
  V  V27  1  0.37558746  0.62344854  0.24936901  1
  V  V28  1  0.12670048  0.87616006  0.25234794  1
  V  V29  1  0.37471549  0.74664317  0.12473470  1
  V  V30  1  0.12364526  0.24682488  0.87365747  1
  V  V31  1  0.75001434  0.86502347  0.62649756  1
  V  V32  1  0.37921679  -0.00302990  0.38765645  1
  V  V33  1  0.74273279  0.25247089  0.00151599  1
  V  V34  1  0.86891565  0.62915750  0.74441372  1
  V  V35  1  0.49370301  0.37378664  0.37773932  1
  V  V36  1  0.62947067  0.48995933  0.62932197  1
  V  V37  1  0.12621781  0.12240439  0.00133501  1
  V  V38  1  0.25325128  0.87386457  0.12543276  1
  V  V39  1  0.74664895  0.88836411  0.12776604  1
  V  V40  1  0.62627398  0.12032937  0.00096779  1
  V  V41  1  0.86962230  0.11364224  0.25514210  1
  V  V42  1  -0.01055126  0.37317405  0.37908616  1
  V  V43  1  0.24350577  -0.00108501  0.73180942  1
  V  V44  1  0.49462646  0.36545239  0.88066243  1
  V  V45  1  0.74473624  0.38446719  0.12821529  1
  V  V46  1  0.87315706  0.50280401  0.87514249  1
  V  V47  1  0.37327880  0.37513290  0.52136589  1
  V  V48  1  -0.00123948  0.87552657  0.87163376  1
  V  V49  1  0.00352106  0.25314436  0.74434133  1
  V  V50  1  0.62669834  0.88837486  0.24790020  1
  V  V51  1  0.50240145  -0.00781129  -0.00613470  1
  V  V52  1  0.49003376  0.62450130  0.63055894  1
  V  V53  1  0.61352273  0.87411009  0.74843092  1
  V  V54  1  -0.00517916  0.49524234  0.50396163  1
  V  V55  1  -0.00123408  0.12533119  0.12689972  1
  V  V56  1  0.12374298  0.75367448  0.86950539  1
  V  V57  1  0.13132123  0.25146144  0.37458048  1
  V  V58  1  0.87078935  0.26261824  0.62069110  1
  V  V59  1  0.12401158  0.50068820  0.12353032  1
  V  V60  1  0.50373250  0.75058857  0.25075296  1
  V  V61  1  0.24847037  0.62329694  0.37570758  1
  V  V62  1  0.12700479  -0.00023270  0.12617531  1
  V  V63  1  0.25513714  -0.00044070  0.25440215  1
  V  V64  1  0.12503058  0.37699170  0.24992755  1
  V  V65  1  -0.00039363  0.11812231  0.62196266  1
  V  V66  1  0.37283518  0.12736646  0.74586738  1
  V  V67  1  0.62396548  0.11053588  0.50261919  1
  V  V68  1  0.00025383  0.00021161  -0.00159406  1
  V  V69  1  0.66668867  0.30964544  0.82001504  1
  V  V70  1  0.87120185  0.87511597  -0.00076082  1
  V  V71  1  0.25597410  0.76384112  0.50021903  1
  V  V72  1  0.74348330  -0.00255559  0.74127997  1
  V  V73  1  0.50733225  0.11696891  0.12602738  1
  V  V74  1  -0.00143471  0.24946732  0.25115645  1
  V  V75  1  0.87288106  0.00051951  0.87260008  1
  V  V76  1  0.00521509  0.37674984  0.87548926  1
  V  V77  1  0.25701506  0.25506152  0.00064070  1
  V  V78  1  0.87391702  0.12298042  0.74627987  1
  V  V79  1  -0.00656661  0.88281349  0.37409694  1
  V  V80  1  0.25281784  0.25535733  0.51543823  1
  V  V81  1  0.87078718  0.88227392  0.49906212  1
  V  V82  1  0.37815193  0.12355704  0.24887992  1
  V  V83  1  -0.00626640  0.75235977  0.73924433  1
  V  V84  1  0.87148565  0.75002591  0.12445513  1
  Zn  Zn85  1  0.25315372  0.12668330  0.37590703  1
  Zn  Zn86  1  0.62487153  0.24733145  0.37831674  1
  Zn  Zn87  1  0.74373853  0.48974919  0.75198549  1
  Zn  Zn88  1  0.48930665  0.75058240  0.75578595  1
  Zn  Zn89  1  0.86566937  0.50692872  0.37809054  1
  Zn  Zn90  1  0.74307640  0.74888414  0.00195576  1
  Zn  Zn91  1  0.37399553  0.49742006  0.37682525  1
  Zn  Zn92  1  -0.00313831  0.62578550  0.12244892  1
  Zn  Zn93  1  0.74597611  0.51274289  0.25815352  1
  Zn  Zn94  1  0.38064138  -0.00966584  0.86739821  1
  Zn  Zn95  1  0.00234721  -0.00207475  0.49953537  1
  Zn  Zn96  1  0.29736562  0.45352421  0.69932131  1
  Zn  Zn97  1  -0.00364404  0.62208974  0.62588399  1
  Zn  Zn98  1  0.86164419  0.62788464  0.25982765  1
  Zn  Zn99  1  0.38179287  0.87117615  -0.00662037  1
  Zn  Zn100  1  0.12974988  0.48001180  0.64501226  1
  Zn  Zn101  1  0.49827918  0.50049016  0.50033385  1
  Zn  Zn102  1  0.87453725  0.37528912  0.00316324  1
  Zn  Zn103  1  0.25614640  0.38085833  0.11451965  1
  Zn  Zn104  1  0.38158093  0.25577083  0.11758824  1
  Zn  Zn105  1  0.12444054  0.87940597  0.73220873  1
  Zn  Zn106  1  0.63199318  0.74390694  0.37256720  1
  Zn  Zn107  1  0.18925546  0.18729387  0.18737565  1
  Zn  Zn108  1  0.18772444  0.30469366  0.69352393  1
  Zn  Zn109  1  0.18482411  0.68598123  0.18715318  1
  Zn  Zn110  1  0.18878677  0.69437164  0.68384255  1
  Zn  Zn111  1  0.68639352  0.18633115  0.18987451  1
  Zn  Zn112  1  0.68746985  0.18186294  0.67796779  1
  Zn  Zn113  1  0.68928265  0.69274132  0.18668169  1
  Zn  Zn114  1  0.68259743  0.68588990  0.68851805  1
  Zn  Zn115  1  0.31403899  0.31299247  0.30829043  1
  Zn  Zn116  1  0.32294402  0.30431800  0.82597754  1
  Zn  Zn117  1  0.31694813  0.81336957  0.31600469  1
  Zn  Zn118  1  0.31280458  0.81807606  0.80980375  1
  Zn  Zn119  1  0.80631104  0.31194157  0.31488134  1
  Zn  Zn120  1  0.83071592  0.31349774  0.81157261  1
  Zn  Zn121  1  0.81002616  0.81266080  0.31394466  1
  Zn  Zn122  1  0.80749743  0.81088246  0.81362962  1
  Zn  Zn123  1  0.18546912  0.43669690  0.44349503  1
  Zn  Zn124  1  0.18689090  0.43906676  0.83302522  1
  Zn  Zn125  1  0.18859456  0.93942254  0.55677856  1
  Zn  Zn126  1  0.18930322  0.93291357  0.93620123  1
  Zn  Zn127  1  0.68065604  0.43945350  0.43706436  1
  Zn  Zn128  1  0.68803200  0.44633600  0.94709366  1
  Zn  Zn129  1  0.68477429  0.93102753  0.43773940  1
  Zn  Zn130  1  0.68459656  0.93601692  0.93465077  1
  Zn  Zn131  1  0.31791312  0.06309819  0.06342089  1
  Zn  Zn132  1  0.31780850  0.07808689  0.56248797  1
  Zn  Zn133  1  0.31587909  0.56065573  0.05596651  1
  Zn  Zn134  1  0.31185281  0.56356528  0.55871020  1
  Zn  Zn135  1  0.81261011  0.06467060  0.06207182  1
  Zn  Zn136  1  0.81167909  0.06250189  0.56170845  1
  Zn  Zn137  1  0.81227341  0.56546751  0.06357978  1
  Zn  Zn138  1  0.80965111  0.55531912  0.56462575  1
  Zn  Zn139  1  0.43303191  0.43685908  0.18438700  1
  Zn  Zn140  1  0.46242010  0.43601980  0.69592220  1
  Zn  Zn141  1  0.44038341  0.93588754  0.18511829  1
  Zn  Zn142  1  0.43269444  0.93876353  0.68561463  1
  Zn  Zn143  1  0.93420537  0.43947183  0.19252530  1
  Zn  Zn144  1  0.94239359  0.44049552  0.68938886  1
  Zn  Zn145  1  0.93672275  0.93553745  0.18630072  1
  Zn  Zn146  1  0.93334950  0.93475433  0.68321531  1
  Zn  Zn147  1  0.06465402  0.06480033  0.31520745  1
  Zn  Zn148  1  0.06414328  0.06447507  0.80832811  1
  Zn  Zn149  1  0.04518563  0.56888796  0.32046925  1
  Zn  Zn150  1  0.06050889  0.56969066  0.81045546  1
  Zn  Zn151  1  0.56331556  0.06090196  0.31930940  1
  Zn  Zn152  1  0.56522702  0.06419221  0.81309240  1
  Zn  Zn153  1  0.56143441  0.56205778  0.31520345  1
  Zn  Zn154  1  0.56089948  0.56380468  0.81230636  1
  Zn  Zn155  1  0.43578825  0.18844012  0.43948574  1
  Zn  Zn156  1  0.43973721  0.18106024  0.93347037  1
  Zn  Zn157  1  0.43819556  0.68745000  0.43862174  1
  Zn  Zn158  1  0.43615827  0.68296214  0.93866805  1
  Zn  Zn159  1  0.93374488  0.18819345  0.43780251  1
  Zn  Zn160  1  0.93417433  0.18740581  0.93888863  1
  Zn  Zn161  1  0.93720459  0.68850571  0.44120133  1
  Zn  Zn162  1  0.93562422  0.68817762  0.93495462  1
  Zn  Zn163  1  0.06617452  0.31409683  0.06103619  1
  Zn  Zn164  1  0.05935080  0.31010630  0.55893165  1
  Zn  Zn165  1  0.06240749  0.81419176  0.06159670  1
  Zn  Zn166  1  0.05892226  0.80917483  0.55849822  1
  Zn  Zn167  1  0.56333682  0.31128543  0.06511544  1
  Zn  Zn168  1  0.56385687  0.30654584  0.56094026  1
  Zn  Zn169  1  0.56513673  0.81124897  0.06707387  1
  Zn  Zn170  1  0.56869526  0.80797296  0.56708063  1
  O  O171  1  0.11935417  0.11816959  0.12181050  1
  O  O172  1  0.11405339  0.13510375  0.60706607  1
  O  O173  1  0.12302349  0.61914602  0.11562350  1
  O  O174  1  0.12375381  0.63176128  0.61230915  1
  O  O175  1  0.62176076  0.12652986  0.11350024  1
  O  O176  1  0.61180572  0.12160756  0.61830291  1
  O  O177  1  0.61113550  0.63053707  0.12434644  1
  O  O178  1  0.61498608  0.62147960  0.61638201  1
  O  O179  1  0.38516678  0.37330364  0.37691195  1
  O  O180  1  0.39037574  0.37994433  0.88234760  1
  O  O181  1  0.39081276  0.88181043  0.37108684  1
  O  O182  1  0.37140268  0.87866987  0.88108439  1
  O  O183  1  0.88845630  0.37042692  0.36940373  1
  O  O184  1  0.88655858  0.38334979  0.88132744  1
  O  O185  1  0.88257425  0.87061767  0.38266708  1
  O  O186  1  0.87800880  0.88085722  0.87962930  1
  O  O187  1  0.26074782  0.00380913  0.35892436  1
  O  O188  1  0.24795174  0.00897214  0.87392669  1
  O  O189  1  0.24717587  0.50905638  0.37072617  1
  O  O190  1  0.26178159  0.51292450  0.88106925  1
  O  O191  1  0.74798601  0.01163043  0.37759392  1
  O  O192  1  0.75609891  0.00450295  0.86680132  1
  O  O193  1  0.75481102  0.48445150  0.37038893  1
  O  O194  1  0.75620188  0.50571481  0.87402029  1
  O  O195  1  0.23848270  0.50248602  0.12635390  1
  O  O196  1  0.24107591  0.50399188  0.61993975  1
  O  O197  1  0.24842215  0.99505847  0.13338422  1
  O  O198  1  0.25246413  1.00725059  0.62827312  1
  O  O199  1  0.75432531  0.48641142  0.12467079  1
  O  O200  1  0.73519140  0.49794564  0.63079560  1
  O  O201  1  0.75654723  0.98789906  0.12461288  1
  O  O202  1  0.75315908  0.99355440  0.63735811  1
  O  O203  1  0.00736100  0.36777439  0.25523034  1
  O  O204  1  -0.00797959  0.35967046  0.76091947  1
  O  O205  1  0.00425123  0.86780726  0.25483211  1
  O  O206  1  -0.00086613  0.87006469  0.75516661  1
  O  O207  1  0.50356331  0.36721106  0.25455112  1
  O  O208  1  0.50845961  0.36001634  0.76593224  1
  O  O209  1  0.50964957  0.86767305  0.25116132  1
  O  O210  1  0.51002498  0.87406910  0.74257301  1
  O  O211  1  0.49910608  0.12848466  0.24484528  1
  O  O212  1  0.49570856  0.12572495  0.74225896  1
  O  O213  1  0.49659122  0.62981838  0.24133432  1
  O  O214  1  0.50294946  0.63109359  0.73386186  1
  O  O215  1  0.99346191  0.13089152  0.24652940  1
  O  O216  1  0.99680532  0.13378667  0.74197136  1
  O  O217  1  1.00908474  0.64365263  0.24036833  1
  O  O218  1  0.98863670  0.63627933  0.75139917  1
  O  O219  1  0.36082667  0.23821366  -0.00195572  1
  O  O220  1  0.35994420  0.25721748  0.49737883  1
  O  O221  1  0.36666126  0.74868697  0.00627087  1
  O  O222  1  0.36158887  0.74743596  0.50405110  1
  O  O223  1  0.86195528  0.24883789  0.00794520  1
  O  O224  1  0.86102709  0.24694411  0.50737235  1
  O  O225  1  0.87513505  0.75968034  0.00615711  1
  O  O226  1  0.86383165  0.75633383  0.50063517  1
  O  O227  1  0.13636935  0.24662983  0.49179246  1
  O  O228  1  0.12983341  0.24097648  0.99149552  1
  O  O229  1  0.13455329  0.74342819  0.49217000  1
  O  O230  1  0.13002498  0.74668832  0.99236105  1
  O  O231  1  0.63663930  0.23800932  0.50203826  1
  O  O232  1  0.63733385  0.24227405  1.00454370  1
  O  O233  1  0.63739476  0.74171402  0.49944540  1
  O  O234  1  0.62335681  0.75553639  0.98505828  1
  O  O235  1  0.50048890  0.23717838  0.13124254  1
  O  O236  1  0.50746437  0.24380913  0.64185269  1
  O  O237  1  0.49486618  0.73945400  0.12961410  1
  O  O238  1  0.48679012  0.74300720  0.62241158  1
  O  O239  1  0.99274633  0.24489881  0.12826232  1
  O  O240  1  0.99157876  0.24056838  0.63009075  1
  O  O241  1  0.99117506  0.75577857  0.13219862  1
  O  O242  1  0.99755330  0.74699337  0.63666874  1
  O  O243  1  0.00746252  0.25484901  0.37138904  1
  O  O244  1  0.00483967  0.25381262  0.87120997  1
  O  O245  1  0.00754835  0.75875320  0.36806503  1
  O  O246  1  0.00708882  0.75591106  0.86796290  1
  O  O247  1  0.50100274  0.25370307  0.36714158  1
  O  O248  1  0.50227171  0.25469844  0.87037541  1
  O  O249  1  0.49909634  0.75941165  0.36673152  1
  O  O250  1  0.50993249  0.74422235  0.87327607  1
  O  O251  1  0.24236656  0.13837772  0.49702222  1
  O  O252  1  0.24354351  0.12457645  0.99405690  1
  O  O253  1  0.24374445  0.63162286  0.48716906  1
  O  O254  1  0.24431459  0.63674479  0.99505416  1
  O  O255  1  0.74437923  0.12657002  0.49136476  1
  O  O256  1  0.74527475  0.13155243  0.99415296  1
  O  O257  1  0.74557765  0.63417133  0.50655844  1
  O  O258  1  0.75392986  0.62708927  0.98557424  1
  O  O259  1  0.24656859  0.35294834  -0.00618432  1
  O  O260  1  0.25804992  0.36320429  0.49721722  1
  O  O261  1  0.24771394  0.86163783  0.00724311  1
  O  O262  1  0.24728847  0.86157101  0.49099812  1
  O  O263  1  0.75045796  0.36850536  0.00864391  1
  O  O264  1  0.74037417  0.35855333  0.50062857  1
  O  O265  1  0.75535093  0.87595225  0.00733269  1
  O  O266  1  0.75322621  0.86602764  0.50674786  1
  O  O267  1  0.12602477  0.49920016  0.24184214  1
  O  O268  1  0.12659591  0.49922457  0.75919255  1
  O  O269  1  0.13474249  0.99696317  0.24657054  1
  O  O270  1  0.14023520  1.00391231  0.74810315  1
  O  O271  1  0.62256454  0.48720762  0.25149232  1
  O  O272  1  0.62394542  0.50377607  0.73560187  1
  O  O273  1  0.62075909  0.98674291  0.25049771  1
  O  O274  1  0.63402532  0.98837592  0.75961437  1
  O  O275  1  0.37210810  0.00581281  0.25157516  1
  O  O276  1  0.36483076  0.00867807  0.74759690  1
  O  O277  1  0.36510025  0.50773685  0.25231696  1
  O  O278  1  0.38503379  0.49036227  0.76666244  1
  O  O279  1  0.87893285  0.01493263  0.24450233  1
  O  O280  1  0.86739245  0.00442735  0.75427540  1
  O  O281  1  0.86948254  0.50677517  0.25156164  1
  O  O282  1  0.87194199  0.50416033  0.76255483  1
  O  O283  1  0.11935128  0.36499690  0.37011580  1
  O  O284  1  0.11174383  0.36313510  0.88065939  1
  O  O285  1  0.11666911  0.86194803  0.36828907  1
  O  O286  1  0.11964755  0.86450071  0.87228688  1
  O  O287  1  0.60959759  0.36897046  0.36933717  1
  O  O288  1  0.61699421  0.37414709  0.88502212  1
  O  O289  1  0.61614813  0.87110107  0.36408210  1
  O  O290  1  0.62946755  0.85996307  0.86504615  1
  O  O291  1  0.38465950  0.12786084  0.13633199  1
  O  O292  1  0.39078750  0.12918031  0.63211803  1
  O  O293  1  0.37782395  0.63093827  0.13159153  1
  O  O294  1  0.38779778  0.63092944  0.61762930  1
  O  O295  1  0.87678805  0.13527603  0.13113248  1
  O  O296  1  0.88101124  0.13106797  0.62897184  1
  O  O297  1  0.87666415  0.64092867  0.12360484  1
  O  O298  1  0.87352772  0.61627877  0.64162610  1
  O  O299  1  0.24762445  0.24603455  0.10811668  1
  O  O300  1  0.25047873  0.24665310  0.61344128  1
  O  O301  1  0.25408161  0.75248068  0.11825328  1
  O  O302  1  0.26176627  0.74731179  0.61021818  1
  O  O303  1  0.75610600  0.25414955  0.11931553  1
  O  O304  1  0.75794298  0.24317807  0.61224324  1
  O  O305  1  0.75716161  0.76155423  0.12021504  1
  O  O306  1  0.74707259  0.75485479  0.61406701  1
  O  O307  1  0.24139143  0.24783195  0.37440237  1
  O  O308  1  0.24296392  0.23511582  0.88375787  1
  O  O309  1  0.24517141  0.74555540  0.38139103  1
  O  O310  1  0.24299526  0.74682463  0.87966170  1
  O  O311  1  0.74778868  0.24224028  0.38877581  1
  O  O312  1  0.74419336  0.25163681  0.87865130  1
  O  O313  1  0.74877079  0.75341430  0.39318630  1
  O  O314  1  0.73917853  0.74305872  0.87850851  1
  O  O315  1  0.00469317  0.11989538  0.00620371  1
  O  O316  1  0.00721971  0.12439704  0.50351702  1
  O  O317  1  0.00643825  0.61966749  -0.00082242  1
  O  O318  1  0.01010338  0.61952243  0.50452539  1
  O  O319  1  0.50895120  0.11886186  0.00664778  1
  O  O320  1  0.50702307  0.13260340  0.51328805  1
  O  O321  1  0.49684633  0.61809898  0.01426552  1
  O  O322  1  0.50619531  0.62577266  0.51074960  1
  O  O323  1  0.48894315  0.36918060  0.49459100  1
  O  O324  1  0.50437564  0.38629560  0.99896583  1
  O  O325  1  0.50969575  0.86775173  0.48525497  1
  O  O326  1  0.50290175  0.88975989  1.00904369  1
  O  O327  1  1.00176257  0.38077539  0.49003453  1
  O  O328  1  0.99782019  0.38118962  0.99390409  1
  O  O329  1  0.98899217  0.87365059  0.49070253  1
  O  O330  1  0.99354849  0.88176059  0.99270160  1
  O  O331  1  0.49642444  0.48900906  0.37893611  1
  O  O332  1  0.49825971  0.49507857  0.88556475  1
  O  O333  1  0.49405192  0.98508443  0.37276710  1
  O  O334  1  0.50016154  1.00532133  0.89038363  1
  O  O335  1  1.00464087  0.48426819  0.38428328  1
  O  O336  1  0.99364649  0.49338674  0.87949677  1
  O  O337  1  1.00531838  0.98590383  0.37479697  1
  O  O338  1  0.99447768  0.99608431  0.87670505  1
  O  O339  1  0.00566230  0.00559496  0.11995177  1
  O  O340  1  -0.00515546  0.01413899  0.62365264  1
  O  O341  1  0.00883881  0.50002539  0.12031985  1
  O  O342  1  0.00744624  0.50190351  0.61928040  1
  O  O343  1  0.49888886  0.01208628  0.11732967  1
  O  O344  1  0.49704320  0.01214812  0.62328044  1
  O  O345  1  0.49499793  0.51081277  0.11601179  1
  O  O346  1  0.50644600  0.51304945  0.62313651  1
  O  O347  1  0.24071233  0.38424700  0.25138824  1
  O  O348  1  0.25230769  0.36825837  0.76444776  1
  O  O349  1  0.24789914  0.88100645  0.24626633  1
  O  O350  1  0.24700393  0.89595795  0.74977633  1
  O  O351  1  0.73689412  0.36780747  0.24187343  1
  O  O352  1  0.73721299  0.36705867  0.76751056  1
  O  O353  1  0.73458190  0.87014410  0.24562853  1
  O  O354  1  0.74469993  0.87917535  0.74301881  1
  O  O355  1  0.26107352  0.11842413  0.24889767  1
  O  O356  1  0.25906147  0.11334523  0.75829908  1
  O  O357  1  0.25179079  0.62239097  0.26035638  1
  O  O358  1  0.24716801  0.63225537  0.76006478  1
  O  O359  1  0.75498394  0.13070357  0.26604542  1
  O  O360  1  0.75127293  0.11619514  0.75293790  1
  O  O361  1  0.74785253  0.62776690  0.25179178  1
  O  O362  1  0.75494581  0.62502904  0.76152024  1
  O  O363  1  0.37899934  0.11695055  0.36374346  1
  O  O364  1  0.36768568  0.11629804  0.86705798  1
  O  O365  1  0.36553592  0.62477544  0.36876790  1
  O  O366  1  0.36690160  0.61875613  0.87353622  1
  O  O367  1  0.86186994  0.12650343  0.36966095  1
  O  O368  1  0.86696832  0.12171001  0.86725293  1
  O  O369  1  0.90908799  0.61510344  0.36401007  1
  O  O370  1  0.86834073  0.61819575  0.86824542  1
  O  O371  1  0.13000036  0.38369721  0.12998144  1
  O  O372  1  0.11704786  0.36598983  0.63390958  1
  O  O373  1  0.13154475  0.88071145  0.13194656  1
  O  O374  1  0.12134263  0.87708091  0.61946764  1
  O  O375  1  0.63316220  0.36986400  0.13555687  1
  O  O376  1  0.61197139  0.39200815  0.62270029  1
  O  O377  1  0.63182331  0.87188608  0.13872731  1
  O  O378  1  0.63695894  0.87126997  0.63482476  1
  O  O379  1  0.12008452  0.25360204  0.25564357  1
  O  O380  1  0.11673012  0.24246782  0.76543443  1
  O  O381  1  0.12092511  0.75695281  0.25573762  1
  O  O382  1  0.11607993  0.75408128  0.75528750  1
  O  O383  1  0.61248243  0.25367466  0.25202617  1
  O  O384  1  0.62160065  0.24042531  0.75547381  1
  O  O385  1  0.61220450  0.75491857  0.25239160  1
  O  O386  1  0.62065023  0.75822645  0.75864958  1
  O  O387  1  0.38686572  0.23986984  0.25055221  1
  O  O388  1  0.38562357  0.23447673  0.75805383  1
  O  O389  1  0.38549335  0.74537184  0.24538765  1
  O  O390  1  0.37130322  0.75606644  0.73056324  1
  O  O391  1  0.87881697  0.24304982  0.24324915  1
  O  O392  1  0.88334749  0.24019516  0.74292298  1
  O  O393  1  0.88249516  0.75231130  0.24244723  1
  O  O394  1  0.88183321  0.74158205  0.75818521  1
  O  O395  1  0.37632593  0.48730346  0.49637550  1
  O  O396  1  0.38973901  0.50535661  0.98717379  1
  O  O397  1  0.36714167  1.00838243  0.48564126  1
  O  O398  1  0.39195237  1.00107354  1.00078006  1
  O  O399  1  0.89045051  0.50460825  0.50119582  1
  O  O400  1  0.88211184  0.50134206  0.99064947  1
  O  O401  1  0.87655363  0.98627605  0.50218748  1
  O  O402  1  0.88125707  0.99639455  0.99364636  1
  O  O403  1  0.11990809  0.00242792  0.00582424  1
  O  O404  1  0.12645245  0.01808960  0.49532783  1
  O  O405  1  0.11644786  0.50790222  0.00895411  1
  O  O406  1  0.11498117  0.50903107  0.49848130  1
  O  O407  1  0.61518618  0.00638692  -0.00156880  1
  O  O408  1  0.62738893  0.01078825  0.49695855  1
  O  O409  1  0.60709654  0.50634103  0.00037610  1
  O  O410  1  0.62192174  0.50727292  0.51210889  1
  O  O411  1  0.36685682  0.36712895  0.13008409  1
  O  O412  1  0.38068015  0.38348603  0.62259821  1
  O  O413  1  0.36995940  0.86525716  0.12172469  1
  O  O414  1  0.37867869  0.86415915  0.61558159  1
  O  O415  1  0.86867546  0.36283346  0.12569443  1
  O  O416  1  0.87698772  0.36118203  0.63463048  1
  O  O417  1  0.86835349  0.86798127  0.12090037  1
  O  O418  1  0.86060516  0.87528564  0.61670922  1
  O  O419  1  0.12516428  0.13696394  0.38314308  1
  O  O420  1  0.13000102  0.12900225  0.88153118  1
  O  O421  1  0.12876496  0.63653817  0.38017273  1
  O  O422  1  0.13073340  0.63809552  0.88079758  1
  O  O423  1  0.63433034  0.12629764  0.38190659  1
  O  O424  1  0.63270710  0.12283376  0.88905125  1
  O  O425  1  0.61529466  0.62606620  0.39342539  1
  O  O426  1  0.63066739  0.63899397  0.86884218  1
