# generated using pymatgen
data_V85Zn86O256
_symmetry_space_group_name_H-M   'P 1'
_cell_length_a   16.97065419
_cell_length_b   16.97431119
_cell_length_c   16.95800302
_cell_angle_alpha   89.94261712
_cell_angle_beta   89.93577118
_cell_angle_gamma   90.00561731
_symmetry_Int_Tables_number   1
_chemical_formula_structural   V85Zn86O256
_chemical_formula_sum   'V85 Zn86 O256'
_cell_volume   4885.00440253
_cell_formula_units_Z   1
loop_
 _symmetry_equiv_pos_site_id
 _symmetry_equiv_pos_as_xyz
  1  'x, y, z'
loop_
 _atom_site_type_symbol
 _atom_site_label
 _atom_site_symmetry_multiplicity
 _atom_site_fract_x
 _atom_site_fract_y
 _atom_site_fract_z
 _atom_site_occupancy
  V  V0  1  0.49877330  0.24958753  0.75043799  1
  V  V1  1  0.87437516  -0.00401612  0.37384367  1
  V  V2  1  0.74947575  0.62203342  0.88232519  1
  V  V3  1  0.87467002  0.62993807  0.75501997  1
  V  V4  1  0.87199870  0.24563396  0.11733131  1
  V  V5  1  0.37843996  0.74625192  0.64031272  1
  V  V6  1  0.74819887  0.25234728  0.49556289  1
  V  V7  1  0.12734354  0.12904559  0.50050401  1
  V  V8  1  0.37132919  0.51810503  0.87829387  1
  V  V9  1  0.37478325  0.12413996  0.24781973  1
  V  V10  1  0.62443914  0.49966349  0.12393629  1
  V  V11  1  0.49971997  0.86954834  0.37752264  1
  V  V12  1  -0.00161373  0.87059055  0.88168498  1
  V  V13  1  0.49704908  0.49461971  0.49923439  1
  V  V14  1  0.87376150  0.12635559  0.75132355  1
  V  V15  1  0.50082397  0.12567692  0.62539394  1
  V  V16  1  0.87719482  0.48956940  0.87542435  1
  V  V17  1  0.37716224  0.25427659  0.11909801  1
  V  V18  1  0.13201383  0.00352402  0.63419862  1
  V  V19  1  -0.00830800  0.62770991  0.62747171  1
  V  V20  1  0.25353862  0.87865141  0.63043200  1
  V  V21  1  0.49939540  0.12335755  0.12452125  1
  V  V22  1  0.25067446  0.75205127  0.50107825  1
  V  V23  1  0.37170033  0.12108586  0.74824798  1
  V  V24  1  0.50219232  -0.00031121  0.50054380  1
  V  V25  1  0.37909199  0.87228799  0.50292748  1
  V  V26  1  0.13071615  0.87837307  0.75430166  1
  V  V27  1  0.62778798  0.25376662  0.87928801  1
  V  V28  1  0.62495000  0.13049669  0.49251700  1
  V  V29  1  0.63836058  0.74006552  0.37651648  1
  V  V30  1  0.24993445  0.87591481  0.11323202  1
  V  V31  1  0.36778081  -0.00298813  0.87607727  1
  V  V32  1  0.38329783  0.62511190  0.24955762  1
  V  V33  1  0.12243262  -0.00113144  0.12874505  1
  V  V34  1  0.75697835  0.86743686  0.62382540  1
  V  V35  1  0.12203086  0.37386294  0.25268371  1
  V  V36  1  0.12462329  0.50612756  0.11650306  1
  V  V37  1  -0.00261703  0.25685432  0.75591865  1
  V  V38  1  0.87329960  -0.00466774  0.88108647  1
  V  V39  1  0.48353488  0.37178002  0.88080342  1
  V  V40  1  0.25571215  0.37523635  0.62242684  1
  V  V41  1  0.62304724  0.74714417  0.87155422  1
  V  V42  1  0.12244541  0.25377318  0.88013542  1
  V  V43  1  -0.00076796  -0.00178038  0.50154361  1
  V  V44  1  0.62586902  0.87469623  0.24798137  1
  V  V45  1  0.87900163  0.76413217  0.13305346  1
  V  V46  1  0.61922061  0.87077188  0.74791130  1
  V  V47  1  0.62952035  -0.00638489  0.12201381  1
  V  V48  1  0.49383073  -0.00683511  -0.00023513  1
  V  V49  1  0.25203132  0.73383341  -0.00361213  1
  V  V50  1  0.74600958  0.36913243  0.11280872  1
  V  V51  1  0.24908918  0.12874610  0.37206779  1
  V  V52  1  0.37338265  0.48885706  0.38165584  1
  V  V53  1  0.75530026  0.76841499  0.00186454  1
  V  V54  1  0.12225749  0.37912258  0.75599518  1
  V  V55  1  -0.04235450  0.54797705  0.44863243  1
  V  V56  1  0.49493962  0.86925842  0.87376856  1
  V  V57  1  0.00682972  0.49882242  -0.01212549  1
  V  V58  1  0.62482023  0.37692758  0.74896705  1
  V  V59  1  0.49771854  0.62561433  0.63800781  1
  V  V60  1  0.00111924  0.75244466  0.74876231  1
  V  V61  1  0.49547081  0.74920971  0.25029395  1
  V  V62  1  0.62766378  0.12713166  0.00008963  1
  V  V63  1  -0.00276893  0.24829668  0.25551193  1
  V  V64  1  0.25447373  0.51247888  0.75303402  1
  V  V65  1  0.24636787  -0.01067855  0.25197253  1
  V  V66  1  0.63289367  0.37389168  0.25962744  1
  V  V67  1  0.37865214  -0.00029070  0.37445492  1
  V  V68  1  0.37639645  0.75564664  0.12185654  1
  V  V69  1  -0.00021940  0.12574330  0.62868931  1
  V  V70  1  0.74902593  0.00037222  0.74982546  1
  V  V71  1  -0.00009157  0.00077839  0.00067579  1
  V  V72  1  0.25367014  0.63187161  0.37359468  1
  V  V73  1  0.62578528  0.00026312  0.62499071  1
  V  V74  1  0.13006846  0.62590755  0.49857725  1
  V  V75  1  0.12740550  0.73846669  0.88072209  1
  V  V76  1  0.74918497  0.00111760  0.24934309  1
  V  V77  1  0.75406182  0.38094729  0.62322712  1
  V  V78  1  0.89257049  0.36899912  0.48824637  1
  V  V79  1  0.24788795  0.12415973  0.87205135  1
  V  V80  1  0.25300627  0.49735532  0.24872087  1
  V  V81  1  0.12091253  0.50231547  0.62425979  1
  V  V82  1  0.74757379  0.12656250  0.87629297  1
  V  V83  1  0.25297439  0.37309532  0.11705579  1
  V  V84  1  0.50554088  0.24966978  0.25711906  1
  Zn  Zn85  1  0.87761672  0.87329454  0.50369373  1
  Zn  Zn86  1  0.88001933  0.37110974  -0.00356502  1
  Zn  Zn87  1  0.75074737  0.50131196  0.75054051  1
  Zn  Zn88  1  0.02273063  0.75883720  0.25000827  1
  Zn  Zn89  1  0.49796543  0.36603773  0.38305253  1
  Zn  Zn90  1  0.87518580  0.12423153  0.24934974  1
  Zn  Zn91  1  0.74890493  0.12819078  0.37354277  1
  Zn  Zn92  1  0.62361883  0.62206730  0.49911590  1
  Zn  Zn93  1  0.37807975  0.25534025  0.61934751  1
  Zn  Zn94  1  0.61984916  0.62377414  -0.00094170  1
  Zn  Zn95  1  0.25559095  0.25958226  0.49399878  1
  Zn  Zn96  1  0.87521471  0.25195492  0.62547393  1
  Zn  Zn97  1  0.11870481  0.25663743  0.37818671  1
  Zn  Zn98  1  -0.04121706  0.59871837  0.16756580  1
  Zn  Zn99  1  -0.00058629  0.12495878  0.12558209  1
  Zn  Zn100  1  0.02440672  0.87955819  0.36383912  1
  Zn  Zn101  1  0.62529875  0.50225196  0.62388271  1
  Zn  Zn102  1  0.25892990  0.25175139  -0.00522383  1
  Zn  Zn103  1  0.49523407  0.49606871  0.00193503  1
  Zn  Zn104  1  0.12599204  0.12662596  0.00072830  1
  Zn  Zn105  1  0.76805455  0.73201145  0.50617337  1
  Zn  Zn106  1  0.49766811  0.62121589  0.11963514  1
  Zn  Zn107  1  0.18557352  0.18646601  0.18654024  1
  Zn  Zn108  1  0.18746109  0.19150267  0.69222536  1
  Zn  Zn109  1  0.18787501  0.68115879  0.18419391  1
  Zn  Zn110  1  0.18566104  0.69150906  0.68613935  1
  Zn  Zn111  1  0.68723211  0.18803120  0.18592642  1
  Zn  Zn112  1  0.68758350  0.19203190  0.68406880  1
  Zn  Zn113  1  0.68087230  0.69522130  0.17722424  1
  Zn  Zn114  1  0.68666792  0.68363486  0.68731352  1
  Zn  Zn115  1  0.31129968  0.31001191  0.30504448  1
  Zn  Zn116  1  0.30752663  0.31029737  0.80409685  1
  Zn  Zn117  1  0.18217285  0.81287321  0.31686957  1
  Zn  Zn118  1  0.31034204  0.81228345  0.81665201  1
  Zn  Zn119  1  0.81300727  0.31382854  0.31252823  1
  Zn  Zn120  1  0.80832094  0.31096461  0.81248050  1
  Zn  Zn121  1  0.81402070  0.81756691  0.30781063  1
  Zn  Zn122  1  0.81163626  0.81115888  0.81408282  1
  Zn  Zn123  1  0.18354617  0.44259111  0.43694956  1
  Zn  Zn124  1  0.19380154  0.43668285  0.93634003  1
  Zn  Zn125  1  0.19581622  0.94906150  0.45011995  1
  Zn  Zn126  1  0.18527655  0.93707771  0.93932062  1
  Zn  Zn127  1  0.67964683  0.42878120  0.44225364  1
  Zn  Zn128  1  0.68622866  0.43865113  0.93856918  1
  Zn  Zn129  1  0.68771144  0.93601161  0.43731454  1
  Zn  Zn130  1  0.68114109  0.93949018  0.93306773  1
  Zn  Zn131  1  0.30979591  0.06448933  0.05993262  1
  Zn  Zn132  1  0.31342971  0.06590864  0.56116271  1
  Zn  Zn133  1  0.31469724  0.56096925  0.06278992  1
  Zn  Zn134  1  0.31520229  0.56198396  0.56636074  1
  Zn  Zn135  1  0.81105577  0.06053461  0.06238465  1
  Zn  Zn136  1  0.81203062  0.06243409  0.56323107  1
  Zn  Zn137  1  0.80474558  0.56832380  0.16240764  1
  Zn  Zn138  1  0.79510964  0.55853737  0.45387626  1
  Zn  Zn139  1  0.44122271  0.43489982  0.19256539  1
  Zn  Zn140  1  0.43707023  0.44173474  0.69205845  1
  Zn  Zn141  1  0.43624823  0.93486053  0.18801778  1
  Zn  Zn142  1  0.43717755  0.93875577  0.69063333  1
  Zn  Zn143  1  0.93747762  0.42690187  0.18544315  1
  Zn  Zn144  1  0.93536010  0.44073312  0.68434813  1
  Zn  Zn145  1  0.93316358  0.92916711  0.18329773  1
  Zn  Zn146  1  0.93940346  0.94016463  0.69278777  1
  Zn  Zn147  1  0.06153593  0.06161394  0.31258763  1
  Zn  Zn148  1  0.06050622  0.06459291  0.81490266  1
  Zn  Zn149  1  0.07128677  0.57112924  0.30630529  1
  Zn  Zn150  1  0.06209296  0.56303730  0.81466635  1
  Zn  Zn151  1  0.56293706  0.06256460  0.31218139  1
  Zn  Zn152  1  0.55949421  0.06016335  0.81342317  1
  Zn  Zn153  1  0.69332914  0.55559699  0.30489541  1
  Zn  Zn154  1  0.55879456  0.55879974  0.81492279  1
  Zn  Zn155  1  0.43317557  0.18872686  0.44070299  1
  Zn  Zn156  1  0.44033454  0.18345274  0.93701544  1
  Zn  Zn157  1  0.43948678  0.68219242  0.44132388  1
  Zn  Zn158  1  0.43765037  0.68805345  0.94112165  1
  Zn  Zn159  1  0.93471172  0.18387914  0.43560097  1
  Zn  Zn160  1  0.93766921  0.18533988  0.93755995  1
  Zn  Zn161  1  0.93888324  0.72038115  0.42305085  1
  Zn  Zn162  1  0.90224172  0.64948077  0.98707469  1
  Zn  Zn163  1  0.05911372  0.31593492  0.06655343  1
  Zn  Zn164  1  0.06755340  0.31074901  0.57025205  1
  Zn  Zn165  1  0.06661846  0.81246504  0.06561857  1
  Zn  Zn166  1  0.06488840  0.81285613  0.56255509  1
  Zn  Zn167  1  0.55934696  0.31266710  0.06281060  1
  Zn  Zn168  1  0.56225030  0.31314998  0.56368435  1
  Zn  Zn169  1  0.56274244  0.81087483  0.05835313  1
  Zn  Zn170  1  0.56496305  0.80653134  0.56376591  1
  O  O171  1  0.12515130  0.11310193  0.11977358  1
  O  O172  1  0.12310133  0.12099375  0.62292486  1
  O  O173  1  0.14414407  0.60268378  0.11453158  1
  O  O174  1  0.12049247  0.62045205  0.61832655  1
  O  O175  1  0.61836541  0.11744818  0.11699603  1
  O  O176  1  0.61891384  0.11966063  0.61941113  1
  O  O177  1  0.61914469  0.61232112  0.12156922  1
  O  O178  1  0.60939214  0.62249792  0.62823150  1
  O  O179  1  0.37286618  0.38612126  0.36815905  1
  O  O180  1  0.38196904  0.37105498  0.86795083  1
  O  O181  1  0.39104821  0.88185613  0.38406649  1
  O  O182  1  0.38340445  0.88556963  0.86678034  1
  O  O183  1  0.87840425  0.36998545  0.38963428  1
  O  O184  1  0.86779081  0.38554522  0.87457434  1
  O  O185  1  0.86977871  0.88973188  0.37993083  1
  O  O186  1  0.88633406  0.88472381  0.86437116  1
  O  O187  1  0.25929994  0.01150136  0.36884618  1
  O  O188  1  0.26034840  0.00614657  0.87945682  1
  O  O189  1  0.25742588  0.50974105  0.37214211  1
  O  O190  1  0.26010932  0.49792975  0.86401881  1
  O  O191  1  0.75373273  0.00220217  0.36727481  1
  O  O192  1  0.75538684  0.00409633  0.86919378  1
  O  O193  1  0.74606044  0.49244409  0.37941051  1
  O  O194  1  0.75630883  0.50613184  0.87253863  1
  O  O195  1  0.24866947  0.48903318  0.12681591  1
  O  O196  1  0.24420329  0.49440171  0.63557334  1
  O  O197  1  0.24551240  0.99557211  0.13039715  1
  O  O198  1  0.24046363  0.99514511  0.62114867  1
  O  O199  1  0.73488766  0.48076859  0.12412551  1
  O  O200  1  0.74595136  0.48387642  0.63099010  1
  O  O201  1  0.73570351  1.00202100  0.13061890  1
  O  O202  1  0.74308779  0.99399424  0.63259850  1
  O  O203  1  0.01160134  0.36281649  0.24288632  1
  O  O204  1  0.00825713  0.36755229  0.74440520  1
  O  O205  1  -0.00423406  0.87265346  0.25339220  1
  O  O206  1  0.00971656  0.87053932  0.75561474  1
  O  O207  1  0.50992588  0.36351028  0.25288130  1
  O  O208  1  0.50553932  0.36850620  0.75610315  1
  O  O209  1  0.50682230  0.87220875  0.25927848  1
  O  O210  1  0.51179184  0.88057921  0.75779342  1
  O  O211  1  0.49678101  0.12942597  0.24349830  1
  O  O212  1  0.49364498  0.13009925  0.74675123  1
  O  O213  1  0.48681920  0.62817673  0.24674751  1
  O  O214  1  0.49667697  0.61739218  0.73688221  1
  O  O215  1  0.99806455  0.13210474  0.24570381  1
  O  O216  1  0.99351173  0.13218767  0.74734639  1
  O  O217  1  1.03204593  0.64407810  0.23545000  1
  O  O218  1  0.99748732  0.63476366  0.74760339  1
  O  O219  1  0.37903899  0.24216183  0.01468863  1
  O  O220  1  0.36652362  0.24385365  0.50800417  1
  O  O221  1  0.36263244  0.74853841  0.00637607  1
  O  O222  1  0.36660744  0.75423851  0.50636721  1
  O  O223  1  0.88085717  0.25085720  0.01216696  1
  O  O224  1  0.87097225  0.25684848  0.50314606  1
  O  O225  1  0.85690493  0.75624668  -0.01092291  1
  O  O226  1  0.87594657  0.76058628  0.50281595  1
  O  O227  1  0.12900636  0.23963693  0.49961704  1
  O  O228  1  0.12077211  0.25093916  0.98737764  1
  O  O229  1  0.14248567  0.74293133  0.51141500  1
  O  O230  1  0.14047664  0.75653139  0.99405564  1
  O  O231  1  0.63307476  0.24126983  0.50565116  1
  O  O232  1  0.61574292  0.23850493  0.99096167  1
  O  O233  1  0.62319560  0.75022804  0.48178417  1
  O  O234  1  0.63172034  0.75010711  0.98642120  1
  O  O235  1  0.49401228  0.24331309  0.13280639  1
  O  O236  1  0.49933038  0.24356280  0.63372652  1
  O  O237  1  0.49231538  0.74977730  0.12876267  1
  O  O238  1  0.49274280  0.73581543  0.62132226  1
  O  O239  1  0.99053253  0.24671116  0.13316354  1
  O  O240  1  1.00159448  0.24264513  0.63933358  1
  O  O241  1  0.98303544  0.76116883  0.11965266  1
  O  O242  1  1.01085082  0.74379866  0.64037847  1
  O  O243  1  0.00089270  0.24298379  0.36088415  1
  O  O244  1  0.00660690  0.24518651  0.86402985  1
  O  O245  1  0.02151269  0.76312124  0.36946556  1
  O  O246  1  0.01127327  0.76066840  0.86488632  1
  O  O247  1  0.49242948  0.24742305  0.36105254  1
  O  O248  1  0.50611965  0.25465604  0.86939138  1
  O  O249  1  0.50336856  0.75569703  0.36993024  1
  O  O250  1  0.50449325  0.76259758  0.88037394  1
  O  O251  1  0.24141721  0.12340631  0.49078377  1
  O  O252  1  0.24820803  0.13017035  0.98560272  1
  O  O253  1  0.24838414  0.63266661  0.49746547  1
  O  O254  1  0.25231984  0.63586105  0.99814994  1
  O  O255  1  0.74099731  0.13241771  0.50308900  1
  O  O256  1  0.73450623  0.11683276  0.99314555  1
  O  O257  1  0.73617591  0.62582751  0.51699014  1
  O  O258  1  0.74367699  0.63506398  0.98392180  1
  O  O259  1  0.24907256  0.36900780  0.01229689  1
  O  O260  1  0.23936525  0.37780280  0.51853626  1
  O  O261  1  0.25467146  0.87821353  0.01118119  1
  O  O262  1  0.25922751  0.86976206  0.50953700  1
  O  O263  1  0.75010030  0.37130890  0.01040989  1
  O  O264  1  0.75646631  0.36736636  0.50772093  1
  O  O265  1  0.74453587  0.86655490  -0.00937348  1
  O  O266  1  0.74798105  0.87883498  0.51881613  1
  O  O267  1  0.13363908  0.49238520  0.23608459  1
  O  O268  1  0.13409035  0.49540565  0.74823791  1
  O  O269  1  0.13546808  1.00769623  0.24060280  1
  O  O270  1  0.11902135  0.99476409  0.74195464  1
  O  O271  1  0.62236727  0.47880340  0.24162788  1
  O  O272  1  0.62477824  0.48592447  0.75127172  1
  O  O273  1  0.62652491  0.99409594  0.24159337  1
  O  O274  1  0.62965447  0.99297982  0.74648968  1
  O  O275  1  0.36984710  0.00583969  0.25453315  1
  O  O276  1  0.38060243  0.01308036  0.76053992  1
  O  O277  1  0.37113135  0.50657997  0.25685116  1
  O  O278  1  0.36069341  0.49760761  0.75990493  1
  O  O279  1  0.86326310  -0.00034635  0.25439143  1
  O  O280  1  0.87026777  0.00707590  0.76123880  1
  O  O281  1  0.89092581  0.51971910  0.21780149  1
  O  O282  1  0.87792612  0.51178718  0.75864925  1
  O  O283  1  0.13605880  0.37407496  0.35820276  1
  O  O284  1  0.13143737  0.36841824  0.86400963  1
  O  O285  1  0.13741095  0.89374168  0.37632744  1
  O  O286  1  0.11828012  0.87334418  0.86813522  1
  O  O287  1  0.61993858  0.36898068  0.36204355  1
  O  O288  1  0.61942784  0.36751708  0.86910604  1
  O  O289  1  0.61485493  0.87092844  0.36908159  1
  O  O290  1  0.61565207  0.86981625  0.86623464  1
  O  O291  1  0.38070339  0.12791821  0.13020918  1
  O  O292  1  0.38201834  0.12139897  0.63432671  1
  O  O293  1  0.37305171  0.63352562  0.13266282  1
  O  O294  1  0.38577172  0.63396475  0.62238822  1
  O  O295  1  0.87314559  0.13153507  0.12748265  1
  O  O296  1  0.88123718  0.12627093  0.63335035  1
  O  O297  1  0.87404900  0.64941296  0.10361407  1
  O  O298  1  0.89145913  0.62168124  0.63877460  1
  O  O299  1  0.25933202  0.25471966  0.12399403  1
  O  O300  1  0.24663595  0.26763790  0.62911002  1
  O  O301  1  0.25678349  0.75703060  0.11119867  1
  O  O302  1  0.25882079  0.75756753  0.62093995  1
  O  O303  1  0.75587955  0.25834543  0.12553069  1
  O  O304  1  0.75307006  0.25925193  0.61607453  1
  O  O305  1  0.75099095  0.75416347  0.10569883  1
  O  O306  1  0.74404534  0.76575514  0.62839297  1
  O  O307  1  0.24779462  0.23817969  0.37269266  1
  O  O308  1  0.24118986  0.24357092  0.87439220  1
  O  O309  1  0.25159977  0.73881911  0.38442814  1
  O  O310  1  0.24404423  0.75645757  0.88982977  1
  O  O311  1  0.75514270  0.24716675  0.39045687  1
  O  O312  1  0.73490353  0.24361964  0.87233279  1
  O  O313  1  0.73917778  0.75837197  0.37711244  1
  O  O314  1  0.74033397  0.74515657  0.87772336  1
  O  O315  1  0.00213330  0.11138532  -0.00013735  1
  O  O316  1  0.00701579  0.11775259  0.50651715  1
  O  O317  1  0.00510623  0.60073215  -0.00175383  1
  O  O318  1  0.01093466  0.62130881  0.50877500  1
  O  O319  1  0.50955253  0.11295243  0.00203654  1
  O  O320  1  0.50739981  0.12024275  0.50531908  1
  O  O321  1  0.50143073  0.61728873  0.00131810  1
  O  O322  1  0.50323329  0.61203126  0.50748163  1
  O  O323  1  0.49920280  0.38678185  0.50236201  1
  O  O324  1  0.50180303  0.37530881  0.98476685  1
  O  O325  1  0.49975745  0.87866575  0.49581375  1
  O  O326  1  0.50394472  0.88616879  0.98998635  1
  O  O327  1  0.99135638  0.36361033  0.50272472  1
  O  O328  1  0.99578679  0.39029146  1.00813350  1
  O  O329  1  1.00410933  0.89177227  0.50580748  1
  O  O330  1  1.00595383  0.88524733  0.98696534  1
  O  O331  1  0.48878979  0.49503397  0.39194791  1
  O  O332  1  0.48229528  0.49035037  0.87108454  1
  O  O333  1  0.49808427  0.99280691  0.38068577  1
  O  O334  1  0.49187490  0.99238739  0.88190811  1
  O  O335  1  1.01498073  0.50200608  0.38208612  1
  O  O336  1  0.99665562  0.49544096  0.87963914  1
  O  O337  1  0.99288444  0.99980550  0.38497757  1
  O  O338  1  0.99229166  0.99446721  0.88026558  1
  O  O339  1  0.00519810  -0.00100036  0.11625102  1
  O  O340  1  0.00790456  0.00734725  0.62210190  1
  O  O341  1  0.01868531  0.49910723  0.11628166  1
  O  O342  1  0.01405179  0.51105010  0.63471823  1
  O  O343  1  0.50510602  0.00271447  0.11729177  1
  O  O344  1  0.50623003  0.00502874  0.62018766  1
  O  O345  1  0.51087623  0.49380186  0.12314593  1
  O  O346  1  0.49487506  0.50848995  0.61802352  1
  O  O347  1  0.24541009  0.37973517  0.23920105  1
  O  O348  1  0.24022169  0.38386331  0.74126280  1
  O  O349  1  0.25661743  0.88939543  0.24014968  1
  O  O350  1  0.23779431  0.87408103  0.74734381  1
  O  O351  1  0.73577526  0.36361122  0.24191105  1
  O  O352  1  0.74093349  0.37303578  0.74276174  1
  O  O353  1  0.73362758  0.88734037  0.25457810  1
  O  O354  1  0.73968167  0.87982805  0.74345838  1
  O  O355  1  0.25501618  0.11874558  0.25622831  1
  O  O356  1  0.25756731  0.12800205  0.76115869  1
  O  O357  1  0.25852249  0.61845542  0.25829369  1
  O  O358  1  0.24535655  0.61043289  0.74383397  1
  O  O359  1  0.74489139  0.11225051  0.25217922  1
  O  O360  1  0.75267714  0.12089891  0.75510690  1
  O  O361  1  0.74311571  0.62648997  0.23753017  1
  O  O362  1  0.75960479  0.62540964  0.75818768  1
  O  O363  1  0.36866115  0.11880666  0.36838429  1
  O  O364  1  0.36879648  0.11923380  0.86861349  1
  O  O365  1  0.36943142  0.61867286  0.36874796  1
  O  O366  1  0.37691197  0.61580309  0.87138216  1
  O  O367  1  0.87009411  0.11067061  0.37264284  1
  O  O368  1  0.86670778  0.11875943  0.87115483  1
  O  O369  1  0.89433427  0.61079795  0.39861248  1
  O  O370  1  0.86679678  0.61394668  0.87290195  1
  O  O371  1  0.13568128  0.37914599  0.13294805  1
  O  O372  1  0.13052113  0.38488621  0.63582545  1
  O  O373  1  0.13509764  0.89165356  0.11683968  1
  O  O374  1  0.13116407  0.88467829  0.63395008  1
  O  O375  1  0.63260796  0.37358901  0.12874635  1
  O  O376  1  0.63154079  0.37433552  0.63470453  1
  O  O377  1  0.61532070  0.88307448  0.13474516  1
  O  O378  1  0.62898456  0.87900275  0.63229354  1
  O  O379  1  0.11741844  0.25662895  0.24960873  1
  O  O380  1  0.11795903  0.25874475  0.75982425  1
  O  O381  1  0.13871721  0.76701388  0.22759533  1
  O  O382  1  0.12226778  0.75957978  0.75784966  1
  O  O383  1  0.61509014  0.25850873  0.24307953  1
  O  O384  1  0.61865657  0.25773712  0.75757515  1
  O  O385  1  0.61781509  0.75917502  0.25853630  1
  O  O386  1  0.62746210  0.75812596  0.76172740  1
  O  O387  1  0.38201149  0.24161972  0.23965762  1
  O  O388  1  0.37998893  0.23722584  0.74603061  1
  O  O389  1  0.38186835  0.74146667  0.23906219  1
  O  O390  1  0.37146877  0.75468615  0.73929476  1
  O  O391  1  0.88109680  0.24892684  0.24149300  1
  O  O392  1  0.88219184  0.24567322  0.75079887  1
  O  O393  1  0.87055766  0.75260342  0.23462873  1
  O  O394  1  0.88579850  0.73847373  0.75919399  1
  O  O395  1  0.38146568  0.50304325  0.49303367  1
  O  O396  1  0.37173824  0.50055177  0.98213791  1
  O  O397  1  0.38288508  0.99461653  0.49566501  1
  O  O398  1  0.38437778  1.00681579  0.99025024  1
  O  O399  1  0.88983677  0.48706847  0.49902097  1
  O  O400  1  0.88999075  0.49761666  0.98624687  1
  O  O401  1  0.88376221  0.99875553  0.49558626  1
  O  O402  1  0.88026137  1.00252103  0.98790503  1
  O  O403  1  0.11568396  0.00375267  0.00440835  1
  O  O404  1  0.11967348  0.01349127  0.51347728  1
  O  O405  1  0.12025980  0.48912103  0.00657390  1
  O  O406  1  0.13203588  0.51122690  0.51385665  1
  O  O407  1  0.61696377  0.00394097  0.00605499  1
  O  O408  1  0.62028520  0.00648351  0.50620981  1
  O  O409  1  0.62074684  0.50011291  0.00869387  1
  O  O410  1  0.60876542  0.49822606  0.50458467  1
  O  O411  1  0.36783770  0.36447003  0.13256074  1
  O  O412  1  0.35832513  0.37685528  0.63371084  1
  O  O413  1  0.36850198  0.86245706  0.12919766  1
  O  O414  1  0.37400041  0.86992279  0.62203811  1
  O  O415  1  0.85894951  0.36539493  0.12284540  1
  O  O416  1  0.86925606  0.37377134  0.61629863  1
  O  O417  1  0.86458099  0.86371752  0.11815663  1
  O  O418  1  0.85907877  0.88349497  0.63137433  1
  O  O419  1  0.13322236  0.12401863  0.38485247  1
  O  O420  1  0.13275980  0.13338549  0.87341288  1
  O  O421  1  0.13943857  0.61814293  0.39160074  1
  O  O422  1  0.12515833  0.63981452  0.87053676  1
  O  O423  1  0.62575762  0.12088174  0.38925615  1
  O  O424  1  0.62599635  0.13095167  0.88081534  1
  O  O425  1  0.62724248  0.63949956  0.37142453  1
  O  O426  1  0.62921151  0.63189219  0.87092249  1
