# generated using pymatgen
data_V85Zn86O256
_symmetry_space_group_name_H-M   'P 1'
_cell_length_a   16.91099920
_cell_length_b   16.90833254
_cell_length_c   16.91791116
_cell_angle_alpha   90.04306822
_cell_angle_beta   90.07644951
_cell_angle_gamma   89.92581430
_symmetry_Int_Tables_number   1
_chemical_formula_structural   V85Zn86O256
_chemical_formula_sum   'V85 Zn86 O256'
_cell_volume   4837.44362787
_cell_formula_units_Z   1
loop_
 _symmetry_equiv_pos_site_id
 _symmetry_equiv_pos_as_xyz
  1  'x, y, z'
loop_
 _atom_site_type_symbol
 _atom_site_label
 _atom_site_symmetry_multiplicity
 _atom_site_fract_x
 _atom_site_fract_y
 _atom_site_fract_z
 _atom_site_occupancy
  V  V0  1  -0.00813467  0.25096822  0.24612893  1
  V  V1  1  0.25556480  0.87095204  0.62548693  1
  V  V2  1  0.62639908  0.12372158  0.49727131  1
  V  V3  1  0.24672973  0.37403663  0.12088520  1
  V  V4  1  0.62602922  0.38090665  0.24187506  1
  V  V5  1  0.00582868  0.00753186  -0.00194587  1
  V  V6  1  0.37675688  0.50397818  0.37915869  1
  V  V7  1  0.37756837  0.86152872  0.50187657  1
  V  V8  1  0.37354606  0.37643717  -0.00119124  1
  V  V9  1  0.87719736  0.37238644  0.00319321  1
  V  V10  1  0.37316649  0.25019133  0.12679429  1
  V  V11  1  0.50209634  0.75364619  0.25181685  1
  V  V12  1  0.38441554  0.12602259  0.74369936  1
  V  V13  1  -0.00000626  0.13123725  0.11820736  1
  V  V14  1  0.12133456  0.51339738  0.62074225  1
  V  V15  1  0.50221015  0.38123321  0.37672931  1
  V  V16  1  0.12940347  0.23257704  0.87701489  1
  V  V17  1  0.24834619  0.37502228  0.62352361  1
  V  V18  1  0.49839291  0.37177346  0.86817649  1
  V  V19  1  0.25274459  0.00701012  0.74841712  1
  V  V20  1  0.50039967  0.24920023  0.25266972  1
  V  V21  1  0.36791191  0.00022769  0.37920494  1
  V  V22  1  0.12621578  0.87527558  0.75015472  1
  V  V23  1  0.87782989  0.74683533  0.61118270  1
  V  V24  1  0.50154712  0.12093942  0.12941045  1
  V  V25  1  0.87363122  0.87596343  0.01076956  1
  V  V26  1  0.12555105  0.37459051  0.75199770  1
  V  V27  1  0.11893200  0.87381818  0.25257464  1
  V  V28  1  0.23493568  0.74468733  0.49971228  1
  V  V29  1  0.64023959  0.87949940  0.24707442  1
  V  V30  1  0.87622251  0.00039635  0.87305906  1
  V  V31  1  0.36987586  0.87036714  -0.00437762  1
  V  V32  1  0.87442118  0.74492016  0.12523100  1
  V  V33  1  0.63072801  0.25371889  0.37616638  1
  V  V34  1  0.74205477  0.75390676  -0.00344630  1
  V  V35  1  0.62503696  -0.00419433  0.62445245  1
  V  V36  1  0.24704425  0.86853378  0.12525778  1
  V  V37  1  0.37356299  0.62899622  0.74725293  1
  V  V38  1  0.50070988  -0.00281386  -0.00170226  1
  V  V39  1  0.87609821  0.11373916  0.24402681  1
  V  V40  1  0.62173048  0.36700127  0.74518030  1
  V  V41  1  0.88038092  0.62698571  0.74872652  1
  V  V42  1  0.00266566  0.87543958  0.38633002  1
  V  V43  1  0.00322004  0.74951619  0.24837706  1
  V  V44  1  0.25141911  0.62543959  0.88143072  1
  V  V45  1  0.51061481  0.49664681  0.00420651  1
  V  V46  1  0.62553940  0.12431844  0.00143987  1
  V  V47  1  0.37295311  0.74593846  0.12236596  1
  V  V48  1  0.12789858  0.24572135  0.37167434  1
  V  V49  1  -0.00200353  0.87221826  0.87411497  1
  V  V50  1  0.75296530  0.11976648  0.36828771  1
  V  V51  1  0.51099246  0.62164725  0.12662391  1
  V  V52  1  0.11665817  -0.00012341  0.62079757  1
  V  V53  1  0.24928535  0.50088633  0.25054163  1
  V  V54  1  0.49599186  0.62674341  0.62074058  1
  V  V55  1  0.32647659  0.05298053  0.91484366  1
  V  V56  1  -0.00250184  0.50680022  -0.00199250  1
  V  V57  1  0.11937262  0.50354685  0.12500403  1
  V  V58  1  0.88049501  0.61773576  0.24831661  1
  V  V59  1  0.87833655  -0.00545313  0.38906602  1
  V  V60  1  0.50273898  0.74651321  0.75726318  1
  V  V61  1  -0.00102119  0.51264306  0.49736544  1
  V  V62  1  0.49819142  -0.00160992  0.50240438  1
  V  V63  1  0.87883607  0.37054093  0.50789587  1
  V  V64  1  0.12309573  0.00614189  0.12536044  1
  V  V65  1  0.62716487  0.86891129  0.76016147  1
  V  V66  1  -0.00490425  0.37730840  0.37455993  1
  V  V67  1  0.74929264  -0.00339097  0.74975763  1
  V  V68  1  0.75389375  0.25064326  0.00879956  1
  V  V69  1  0.74874060  0.50059074  0.74962124  1
  V  V70  1  0.62369869  0.50003171  0.61666151  1
  V  V71  1  0.12825903  0.74922691  0.87717047  1
  V  V72  1  0.74929318  0.12933475  0.87245908  1
  V  V73  1  0.25189679  0.24489370  0.49610345  1
  V  V74  1  0.12377583  0.63200767  0.00550918  1
  V  V75  1  0.36663500  0.12550525  0.25982590  1
  V  V76  1  0.75916115  0.62534807  0.38238134  1
  V  V77  1  0.74792215  0.50409854  0.24498761  1
  V  V78  1  0.38054117  0.37776422  0.49997023  1
  V  V79  1  0.23782639  0.62778407  0.37795149  1
  V  V80  1  0.62518871  0.63263919  0.49950928  1
  V  V81  1  0.12058151  0.12214967  0.49649048  1
  V  V82  1  0.75297449  0.86777776  0.60947037  1
  V  V83  1  0.87253621  0.13042405  0.73971188  1
  V  V84  1  -0.00240087  0.25079142  0.74175625  1
  Zn  Zn85  1  0.74240196  0.63102386  0.87032471  1
  Zn  Zn86  1  0.24802638  0.22704637  -0.00436470  1
  Zn  Zn87  1  0.50751682  0.13342443  0.62678074  1
  Zn  Zn88  1  0.00093258  0.74389794  0.74441939  1
  Zn  Zn89  1  0.37420061  0.50057265  0.87394119  1
  Zn  Zn90  1  -0.00072297  0.37498400  0.87406895  1
  Zn  Zn91  1  0.50307532  0.87271014  0.37570407  1
  Zn  Zn92  1  0.37523690  0.62686228  0.25179037  1
  Zn  Zn93  1  0.24980874  0.50155317  0.75024032  1
  Zn  Zn94  1  0.38247467  0.25738723  0.63092864  1
  Zn  Zn95  1  0.63011218  0.75213667  0.37772971  1
  Zn  Zn96  1  0.12224539  0.37430374  0.24874217  1
  Zn  Zn97  1  0.87415830  0.50179705  0.87402085  1
  Zn  Zn98  1  0.75079167  0.37995644  0.12296456  1
  Zn  Zn99  1  0.75521902  0.36872892  0.62749205  1
  Zn  Zn100  1  0.62082254  0.24774793  0.87064632  1
  Zn  Zn101  1  0.76174586  0.24503874  0.50334213  1
  Zn  Zn102  1  0.24444125  0.00071376  0.25833534  1
  Zn  Zn103  1  0.64262129  -0.00074562  0.12839035  1
  Zn  Zn104  1  0.49781040  0.87407031  0.87605536  1
  Zn  Zn105  1  -0.00686046  0.12370471  0.61711118  1
  Zn  Zn106  1  0.62661905  0.62396524  -0.00454698  1
  Zn  Zn107  1  0.18606989  0.18908590  0.18731061  1
  Zn  Zn108  1  0.18844400  0.18782638  0.68461560  1
  Zn  Zn109  1  0.18740688  0.68674591  0.19099534  1
  Zn  Zn110  1  0.19094786  0.69112846  0.68933289  1
  Zn  Zn111  1  0.68862933  0.18660856  0.18860736  1
  Zn  Zn112  1  0.68901036  0.18977822  0.68127784  1
  Zn  Zn113  1  0.69217328  0.69370021  0.18661062  1
  Zn  Zn114  1  0.68906508  0.68811633  0.68691819  1
  Zn  Zn115  1  0.31072307  0.31541950  0.31306696  1
  Zn  Zn116  1  0.30973343  0.30845519  0.81297925  1
  Zn  Zn117  1  0.31138219  0.81197001  0.31461977  1
  Zn  Zn118  1  0.31212295  0.80813082  0.81098856  1
  Zn  Zn119  1  0.81430808  0.31477349  0.31407379  1
  Zn  Zn120  1  0.81271721  0.31531398  0.81499298  1
  Zn  Zn121  1  0.81923345  0.80475115  0.32164220  1
  Zn  Zn122  1  0.81404295  0.80987905  0.81183410  1
  Zn  Zn123  1  0.18482790  0.43592342  0.43745659  1
  Zn  Zn124  1  0.18594735  0.44023282  0.93643415  1
  Zn  Zn125  1  0.18663307  0.93412122  0.43949444  1
  Zn  Zn126  1  0.18485799  0.93294210  0.94178701  1
  Zn  Zn127  1  0.69422857  0.44402720  0.43451750  1
  Zn  Zn128  1  0.68760390  0.43661965  0.93194848  1
  Zn  Zn129  1  0.68815263  0.93853555  0.43030523  1
  Zn  Zn130  1  0.68957000  0.93843407  0.94117658  1
  Zn  Zn131  1  0.31482746  0.05533005  0.08326740  1
  Zn  Zn132  1  0.30900686  0.06113158  0.56318406  1
  Zn  Zn133  1  0.31286608  0.56206888  0.06235186  1
  Zn  Zn134  1  0.31152389  0.56287244  0.56314469  1
  Zn  Zn135  1  0.81934322  0.06802118  0.05841955  1
  Zn  Zn136  1  0.80762494  0.05934538  0.56041130  1
  Zn  Zn137  1  0.81141078  0.56606266  0.06381267  1
  Zn  Zn138  1  0.81591750  0.55960901  0.56410186  1
  Zn  Zn139  1  0.43704241  0.43958161  0.18964971  1
  Zn  Zn140  1  0.43808345  0.44510898  0.68667082  1
  Zn  Zn141  1  0.43695369  0.93637510  0.18855077  1
  Zn  Zn142  1  0.43675880  0.93851251  0.68984519  1
  Zn  Zn143  1  0.93586166  0.43809035  0.18373701  1
  Zn  Zn144  1  0.94144940  0.44220865  0.68578119  1
  Zn  Zn145  1  0.81547100  0.93772364  0.18952100  1
  Zn  Zn146  1  0.93419034  0.93332324  0.68559870  1
  Zn  Zn147  1  0.05870776  0.06135852  0.31245067  1
  Zn  Zn148  1  0.05968295  0.06122939  0.80533678  1
  Zn  Zn149  1  0.06147483  0.56214593  0.31301421  1
  Zn  Zn150  1  0.06284207  0.56126292  0.81230693  1
  Zn  Zn151  1  0.55995249  0.05824484  0.31537654  1
  Zn  Zn152  1  0.56106967  0.05641995  0.81603764  1
  Zn  Zn153  1  0.56431283  0.56464159  0.31443819  1
  Zn  Zn154  1  0.56454789  0.55884858  0.81440852  1
  Zn  Zn155  1  0.44048406  0.18937052  0.44101998  1
  Zn  Zn156  1  0.44158259  0.19384317  0.94227957  1
  Zn  Zn157  1  0.43931627  0.68469087  0.43670491  1
  Zn  Zn158  1  0.44121003  0.68636441  0.93860152  1
  Zn  Zn159  1  0.94039624  0.18783535  0.43283085  1
  Zn  Zn160  1  0.93805523  0.19167668  0.92933486  1
  Zn  Zn161  1  0.93979599  0.69027267  0.43265364  1
  Zn  Zn162  1  0.93466406  0.68632671  0.93440760  1
  Zn  Zn163  1  0.06473176  0.31267734  0.05625874  1
  Zn  Zn164  1  0.06354856  0.31331049  0.56144756  1
  Zn  Zn165  1  0.05775739  0.81387193  0.06544331  1
  Zn  Zn166  1  0.06213768  0.81127332  0.56529546  1
  Zn  Zn167  1  0.56265937  0.30862187  0.06078588  1
  Zn  Zn168  1  0.56290528  0.31167277  0.56231457  1
  Zn  Zn169  1  0.56129993  0.81551714  0.07014782  1
  Zn  Zn170  1  0.56250224  0.80863246  0.56965665  1
  O  O171  1  0.12274663  0.11298807  0.12683292  1
  O  O172  1  0.12428815  0.11636220  0.61712591  1
  O  O173  1  0.13231574  0.61739983  0.11550628  1
  O  O174  1  0.13013590  0.61168260  0.62938824  1
  O  O175  1  0.61778809  0.12231440  0.12195476  1
  O  O176  1  0.62751485  0.11307154  0.61636393  1
  O  O177  1  0.61364147  0.63203655  0.12101076  1
  O  O178  1  0.62216458  0.61925707  0.61799555  1
  O  O179  1  0.37891960  0.38267303  0.38106992  1
  O  O180  1  0.37826716  0.37475104  0.88165253  1
  O  O181  1  0.37798257  0.88146190  0.38485311  1
  O  O182  1  0.37314770  0.86475363  0.89148089  1
  O  O183  1  0.88977121  0.37470184  0.38130298  1
  O  O184  1  0.87746496  0.38043471  0.88656456  1
  O  O185  1  0.88396057  0.88713415  0.37212934  1
  O  O186  1  0.88308644  0.87999509  0.88050656  1
  O  O187  1  0.26297509  -0.00345882  0.37699277  1
  O  O188  1  0.25265623  -0.00693700  0.86682323  1
  O  O189  1  0.25412214  0.50432550  0.37079201  1
  O  O190  1  0.25073994  0.51078265  0.87156612  1
  O  O191  1  0.76506772  0.00625649  0.37533223  1
  O  O192  1  0.75483218  0.01110300  0.87182576  1
  O  O193  1  0.74840438  0.51535179  0.36088749  1
  O  O194  1  0.75142683  0.49965922  0.85952492  1
  O  O195  1  0.24178001  0.49383099  0.12904989  1
  O  O196  1  0.23836555  0.49103146  0.62296277  1
  O  O197  1  0.24109394  0.98667500  0.13439081  1
  O  O198  1  0.24171496  0.99190239  0.63194036  1
  O  O199  1  0.75037090  0.50098677  0.13850964  1
  O  O200  1  0.74341956  0.49508500  0.63319383  1
  O  O201  1  0.75584303  1.00483216  0.12357258  1
  O  O202  1  0.74669902  0.98684633  0.62957852  1
  O  O203  1  -0.00057355  0.36914301  0.25463281  1
  O  O204  1  0.00719151  0.36891771  0.74983494  1
  O  O205  1  0.01174180  0.86751699  0.25596000  1
  O  O206  1  0.00522257  0.87693666  0.76259351  1
  O  O207  1  0.50735145  0.37001184  0.25559970  1
  O  O208  1  0.50654679  0.38265361  0.75731480  1
  O  O209  1  0.50457546  0.86414138  0.24976439  1
  O  O210  1  0.50688015  0.86683506  0.74939534  1
  O  O211  1  0.49341346  0.12917614  0.24779549  1
  O  O212  1  0.48815714  0.11579139  0.74684148  1
  O  O213  1  0.50029051  0.63570202  0.24409948  1
  O  O214  1  0.49365880  0.62936550  0.74670512  1
  O  O215  1  0.99402596  0.13084527  0.24125945  1
  O  O216  1  0.98903100  0.13131008  0.74600346  1
  O  O217  1  0.99153585  0.63502784  0.25996200  1
  O  O218  1  0.98578040  0.62332551  0.75236341  1
  O  O219  1  0.37001447  0.26097291  0.00609349  1
  O  O220  1  0.36651876  0.25915691  0.49723254  1
  O  O221  1  0.38002249  0.75461654  0.01470006  1
  O  O222  1  0.37172707  0.75967749  0.49860851  1
  O  O223  1  0.86653200  0.25839182  -0.00800108  1
  O  O224  1  0.88088429  0.26548927  0.49479202  1
  O  O225  1  0.87319961  0.75766460  0.00621796  1
  O  O226  1  0.87573108  0.74605862  0.51195548  1
  O  O227  1  0.13171325  0.24527560  0.49214766  1
  O  O228  1  0.12743932  0.24910376  0.98235609  1
  O  O229  1  0.13612003  0.75098449  0.50015629  1
  O  O230  1  0.11751824  0.73957628  0.99550987  1
  O  O231  1  0.62424527  0.24460825  0.48534875  1
  O  O232  1  0.63332446  0.24191122  0.99625125  1
  O  O233  1  0.62524900  0.73708080  0.50171164  1
  O  O234  1  0.64009227  0.75809871  1.00703786  1
  O  O235  1  0.49358554  0.24225092  0.13188595  1
  O  O236  1  0.49387578  0.24526029  0.61768000  1
  O  O237  1  0.49245952  0.74249269  0.13129824  1
  O  O238  1  0.50386157  0.73505059  0.63802940  1
  O  O239  1  1.01186498  0.23961801  0.13028729  1
  O  O240  1  1.00786148  0.24620213  0.63797256  1
  O  O241  1  0.98690058  0.75571694  0.13446912  1
  O  O242  1  0.98304430  0.75933546  0.62810706  1
  O  O243  1  0.00742304  0.25648743  0.36484138  1
  O  O244  1  0.01340234  0.25258010  0.86323812  1
  O  O245  1  -0.00899028  0.76732692  0.36513598  1
  O  O246  1  0.00899177  0.75707754  0.87368793  1
  O  O247  1  0.50829756  0.25792661  0.36970166  1
  O  O248  1  0.50286198  0.26597111  0.87974389  1
  O  O249  1  0.50378539  0.75042207  0.36553912  1
  O  O250  1  0.49823474  0.75262645  0.86273756  1
  O  O251  1  0.24239656  0.13892274  0.50543473  1
  O  O252  1  0.27452921  0.11089294  0.98972790  1
  O  O253  1  0.25401157  0.63859252  0.49640014  1
  O  O254  1  0.24101223  0.62191909  0.98993934  1
  O  O255  1  0.74523879  0.12421247  0.48629317  1
  O  O256  1  0.74825953  0.13243278  0.99048449  1
  O  O257  1  0.74633256  0.61566329  0.48764328  1
  O  O258  1  0.74891372  0.64088925  1.00067157  1
  O  O259  1  0.25581251  0.37956382  0.00974812  1
  O  O260  1  0.25595248  0.36683673  0.50508448  1
  O  O261  1  0.25669545  0.87747352  0.01257249  1
  O  O262  1  0.25524453  0.86387877  0.50538152  1
  O  O263  1  0.75506954  0.36747138  -0.00077604  1
  O  O264  1  0.77212939  0.38152061  0.49437001  1
  O  O265  1  0.76179296  0.86689425  -0.00372027  1
  O  O266  1  0.74555922  0.87628085  0.51121948  1
  O  O267  1  0.12977335  0.49825617  0.24123600  1
  O  O268  1  0.12458750  0.49296123  0.73789609  1
  O  O269  1  0.12323614  0.99326001  0.24227042  1
  O  O270  1  0.13340767  0.99410113  0.74378365  1
  O  O271  1  0.63161979  0.49097481  0.25379736  1
  O  O272  1  0.63125203  0.49239044  0.73898524  1
  O  O273  1  0.62186906  0.98399323  0.25130090  1
  O  O274  1  0.62941224  0.99275631  0.74323644  1
  O  O275  1  0.37488866  0.00666134  0.26071273  1
  O  O276  1  0.36755884  0.01034429  0.75264036  1
  O  O277  1  0.36614273  0.50021552  0.26022420  1
  O  O278  1  0.37166125  0.51392288  0.75347222  1
  O  O279  1  0.87702178  0.01119360  0.25839745  1
  O  O280  1  0.86874640  0.00573847  0.75484474  1
  O  O281  1  0.87082947  0.51132097  0.24629172  1
  O  O282  1  0.86767699  0.50737016  0.74591485  1
  O  O283  1  0.11541811  0.36421060  0.37352419  1
  O  O284  1  0.12626882  0.37404077  0.86062699  1
  O  O285  1  0.11210990  0.88288541  0.36806512  1
  O  O286  1  0.11863428  0.86761158  0.87245382  1
  O  O287  1  0.62364034  0.36990629  0.37070960  1
  O  O288  1  0.61619917  0.37459655  0.86327715  1
  O  O289  1  0.62366287  0.87157706  0.36320893  1
  O  O290  1  0.62222126  0.88281101  0.86326351  1
  O  O291  1  0.38249010  0.13114171  0.13738093  1
  O  O292  1  0.37675421  0.12227007  0.63620657  1
  O  O293  1  0.38014956  0.63192578  0.12826109  1
  O  O294  1  0.38336235  0.61945894  0.63295836  1
  O  O295  1  0.88785912  0.12749718  0.13234740  1
  O  O296  1  0.87308543  0.11866149  0.63555405  1
  O  O297  1  0.87615869  0.63284377  0.13469724  1
  O  O298  1  0.86826632  0.63976080  0.63044112  1
  O  O299  1  0.25289017  0.25557106  0.11750089  1
  O  O300  1  0.25321738  0.26157004  0.61713849  1
  O  O301  1  0.25653412  0.76030660  0.13161509  1
  O  O302  1  0.24759268  0.75786250  0.61341636  1
  O  O303  1  0.74837677  0.25022323  0.11176814  1
  O  O304  1  0.74562585  0.25670523  0.61381687  1
  O  O305  1  0.76460103  0.75130996  0.11452976  1
  O  O306  1  0.75880062  0.76160695  0.62665084  1
  O  O307  1  0.23986563  0.25577212  0.38199735  1
  O  O308  1  0.23464875  0.24904729  0.87656769  1
  O  O309  1  0.25382108  0.74285407  0.38928752  1
  O  O310  1  0.23554945  0.74472680  0.87363571  1
  O  O311  1  0.74550398  0.24345541  0.37878297  1
  O  O312  1  0.74736226  0.23870420  0.87868848  1
  O  O313  1  0.74790898  0.73123065  0.37259612  1
  O  O314  1  0.75499450  0.75167512  0.89227764  1
  O  O315  1  -0.00698803  0.11874317  0.00356316  1
  O  O316  1  0.01465435  0.13095954  0.50132613  1
  O  O317  1  0.00755412  0.61548916  -0.00380621  1
  O  O318  1  -0.00053699  0.61177448  0.49244993  1
  O  O319  1  0.50383936  0.11886962  0.00812722  1
  O  O320  1  0.50820036  0.11431518  0.49883927  1
  O  O321  1  0.50028740  0.61427415  0.00835770  1
  O  O322  1  0.50934773  0.62743688  0.50878978  1
  O  O323  1  0.48719934  0.37447486  0.49352152  1
  O  O324  1  0.49233560  0.37891073  0.99751056  1
  O  O325  1  0.49350573  0.87852613  0.50314880  1
  O  O326  1  0.49073652  0.88132232  1.00352089  1
  O  O327  1  0.99458787  0.37994003  0.49395383  1
  O  O328  1  0.99455020  0.38477046  0.99816582  1
  O  O329  1  1.00609081  0.87325325  0.48523901  1
  O  O330  1  0.99435610  0.88237418  0.99051518  1
  O  O331  1  0.48816171  0.49515981  0.36907795  1
  O  O332  1  0.49562049  0.48829199  0.88589154  1
  O  O333  1  0.49115179  0.99517542  0.38775446  1
  O  O334  1  0.49688390  0.99672238  0.89197405  1
  O  O335  1  1.01110177  0.49096595  0.38910924  1
  O  O336  1  0.99956270  0.49692052  0.88473574  1
  O  O337  1  0.98872208  0.98902420  0.37104851  1
  O  O338  1  0.99821933  0.99415880  0.87973782  1
  O  O339  1  0.00838839  0.01488647  0.11440997  1
  O  O340  1  0.01283015  -0.00130672  0.63010735  1
  O  O341  1  0.01351275  0.49687181  0.11803847  1
  O  O342  1  0.01333094  0.49905375  0.61338353  1
  O  O343  1  0.49623358  0.00753385  0.11610277  1
  O  O344  1  0.50509813  -0.00066870  0.61423024  1
  O  O345  1  0.49394707  0.50970417  0.11862195  1
  O  O346  1  0.51103528  0.51508325  0.62930124  1
  O  O347  1  0.24800118  0.37934574  0.23622270  1
  O  O348  1  0.24522072  0.37695117  0.74061039  1
  O  O349  1  0.23594761  0.87341721  0.24790060  1
  O  O350  1  0.24812868  0.88069887  0.74249129  1
  O  O351  1  0.74418694  0.38332479  0.25065852  1
  O  O352  1  0.74168554  0.38142585  0.74862432  1
  O  O353  1  0.74463283  0.87005621  0.25436865  1
  O  O354  1  0.74342581  0.87966750  0.74851331  1
  O  O355  1  0.26291232  0.12316236  0.24643306  1
  O  O356  1  0.25712877  0.11226288  0.74538134  1
  O  O357  1  0.25273480  0.61978881  0.25960274  1
  O  O358  1  0.25666508  0.62715786  0.76030802  1
  O  O359  1  0.76099583  0.13265890  0.26065710  1
  O  O360  1  0.75331466  0.12021481  0.75499340  1
  O  O361  1  0.75697261  0.62144749  0.25536525  1
  O  O362  1  0.75816856  0.61754816  0.74801418  1
  O  O363  1  0.38146174  0.11658104  0.36950934  1
  O  O364  1  0.38387637  0.12521688  0.86527368  1
  O  O365  1  0.36757068  0.61697002  0.37462020  1
  O  O366  1  0.36607363  0.62607584  0.87189368  1
  O  O367  1  0.87286854  0.11523358  0.36936170  1
  O  O368  1  0.86770513  0.11999623  0.86426710  1
  O  O369  1  0.86519030  0.62691900  0.36758680  1
  O  O370  1  0.86725833  0.62307782  0.86437003  1
  O  O371  1  0.13240734  0.38230037  0.12322531  1
  O  O372  1  0.13176603  0.37822820  0.63381752  1
  O  O373  1  0.12875647  0.88258012  0.13051906  1
  O  O374  1  0.13381938  0.88051504  0.62935136  1
  O  O375  1  0.62656226  0.36680765  0.13916062  1
  O  O376  1  0.62348635  0.38461113  0.62851468  1
  O  O377  1  0.62511412  0.87894881  0.14240931  1
  O  O378  1  0.63668803  0.87675347  0.63260390  1
  O  O379  1  0.11647806  0.25078758  0.25635429  1
  O  O380  1  0.12200993  0.25513481  0.75643928  1
  O  O381  1  0.11189865  0.75525491  0.24401942  1
  O  O382  1  0.12126330  0.75686557  0.75712994  1
  O  O383  1  0.62253319  0.25554247  0.26093190  1
  O  O384  1  0.62663091  0.26317614  0.74911696  1
  O  O385  1  0.61995496  0.76123302  0.24947985  1
  O  O386  1  0.61835563  0.75852247  0.74662856  1
  O  O387  1  0.37940188  0.24401564  0.24887745  1
  O  O388  1  0.36633659  0.23007021  0.74868998  1
  O  O389  1  0.38249902  0.75189761  0.24016220  1
  O  O390  1  0.38251259  0.73796593  0.75127240  1
  O  O391  1  0.88794382  0.24167895  0.25566756  1
  O  O392  1  0.88361648  0.24167892  0.75633105  1
  O  O393  1  0.88131072  0.74220567  0.24322261  1
  O  O394  1  0.87634710  0.74192357  0.74276910  1
  O  O395  1  0.36663843  0.49105089  0.48893289  1
  O  O396  1  0.38116964  0.48724629  1.00059649  1
  O  O397  1  0.37990032  0.99306633  0.49700324  1
  O  O398  1  0.37755010  0.99246449  0.99761510  1
  O  O399  1  0.89305147  0.49206371  0.50471663  1
  O  O400  1  0.88304708  0.49750980  0.99997373  1
  O  O401  1  0.87898967  1.00373038  0.48791579  1
  O  O402  1  0.88627953  0.99362319  0.99244102  1
  O  O403  1  0.11347047  -0.00469152  0.00760820  1
  O  O404  1  0.13376972  0.01003037  0.50813797  1
  O  O405  1  0.11851799  0.50959803  0.00526734  1
  O  O406  1  0.11640554  0.49429191  0.51299742  1
  O  O407  1  0.61749194  0.00480762  0.00523133  1
  O  O408  1  0.61727266  0.00180846  0.50191016  1
  O  O409  1  0.61355941  0.49355893  0.00291747  1
  O  O410  1  0.63069412  0.50757004  0.51105128  1
  O  O411  1  0.36849423  0.36932104  0.12008185  1
  O  O412  1  0.36717760  0.38014855  0.61743194  1
  O  O413  1  0.36609739  0.86998609  0.11893885  1
  O  O414  1  0.36295230  0.88159394  0.61758995  1
  O  O415  1  0.87173515  0.37772175  0.10952105  1
  O  O416  1  0.87925327  0.37657355  0.61114475  1
  O  O417  1  0.87880282  0.87115843  0.11449050  1
  O  O418  1  0.86103020  0.86511496  0.62781541  1
  O  O419  1  0.12101794  0.13498525  0.37979147  1
  O  O420  1  0.12401346  0.13373298  0.86886969  1
  O  O421  1  0.13847470  0.62132095  0.37481850  1
  O  O422  1  0.13016804  0.63160496  0.88059302  1
  O  O423  1  0.63431171  0.12972738  0.37476796  1
  O  O424  1  0.63206478  0.12449958  0.88046233  1
  O  O425  1  0.63387958  0.62610526  0.38405193  1
  O  O426  1  0.62841824  0.62017508  0.88138295  1
