# generated using pymatgen
data_V85Zn86O256
_symmetry_space_group_name_H-M   'P 1'
_cell_length_a   16.92803798
_cell_length_b   16.93448755
_cell_length_c   16.93338474
_cell_angle_alpha   90.05914173
_cell_angle_beta   90.00895087
_cell_angle_gamma   90.01710775
_symmetry_Int_Tables_number   1
_chemical_formula_structural   V85Zn86O256
_chemical_formula_sum   'V85 Zn86 O256'
_cell_volume   4854.25072094
_cell_formula_units_Z   1
loop_
 _symmetry_equiv_pos_site_id
 _symmetry_equiv_pos_as_xyz
  1  'x, y, z'
loop_
 _atom_site_type_symbol
 _atom_site_label
 _atom_site_symmetry_multiplicity
 _atom_site_fract_x
 _atom_site_fract_y
 _atom_site_fract_z
 _atom_site_occupancy
  V  V0  1  0.49623799  0.62285526  0.63983148  1
  V  V1  1  0.12416720  0.87876574  0.75272679  1
  V  V2  1  0.62051475  0.86776390  0.74912448  1
  V  V3  1  0.88359118  0.37265623  0.49890792  1
  V  V4  1  0.85861873  0.38181930  0.00857523  1
  V  V5  1  0.12927231  0.24657962  0.87911945  1
  V  V6  1  0.50597719  0.00469805  0.49907871  1
  V  V7  1  0.87837510  0.61952794  0.75234141  1
  V  V8  1  0.50484151  0.00353039  -0.00940380  1
  V  V9  1  -0.01506087  0.74333172  0.24639813  1
  V  V10  1  0.12479334  0.74856289  0.36741058  1
  V  V11  1  0.25354545  0.49967642  0.75171025  1
  V  V12  1  0.37308377  0.12175008  0.76403070  1
  V  V13  1  0.62699336  0.75141593  0.37186740  1
  V  V14  1  0.24919613  0.75248399  0.00362690  1
  V  V15  1  0.50256156  0.37425106  0.37427792  1
  V  V16  1  0.37576705  0.00330995  0.37192418  1
  V  V17  1  0.25215814  0.25179155  0.49969160  1
  V  V18  1  0.75433366  0.49884131  0.24210723  1
  V  V19  1  0.62806351  0.00297550  0.62824007  1
  V  V20  1  0.63261705  0.37116487  0.24137872  1
  V  V21  1  0.50113550  0.37217027  0.87747919  1
  V  V22  1  0.00133000  0.12555139  0.62725713  1
  V  V23  1  0.25140375  0.12886349  0.37134337  1
  V  V24  1  0.37420703  0.12805228  0.23471640  1
  V  V25  1  -0.00331109  0.50283901  -0.00707362  1
  V  V26  1  0.12545819  0.62510799  0.49871897  1
  V  V27  1  0.50573662  0.87679130  0.36825687  1
  V  V28  1  0.62400284  0.37987839  0.74597227  1
  V  V29  1  0.11101454  0.00187143  0.12663890  1
  V  V30  1  0.37669201  0.49719082  0.37631917  1
  V  V31  1  0.81559232  0.05679289  0.91973785  1
  V  V32  1  0.10750174  0.11860467  0.00057192  1
  V  V33  1  0.74707799  0.12669028  0.38684693  1
  V  V34  1  0.63352452  0.23726504  0.87738351  1
  V  V35  1  0.73432687  0.87442950  0.13037293  1
  V  V36  1  0.85958498  0.11183125  0.74854330  1
  V  V37  1  0.87658578  0.87289305  0.50105138  1
  V  V38  1  0.86857815  0.25007661  0.62294782  1
  V  V39  1  0.49905324  0.24904369  0.75124200  1
  V  V40  1  0.25056891  0.00611358  0.77201780  1
  V  V41  1  0.75301560  0.75104751  0.00568880  1
  V  V42  1  0.12521139  0.37347436  0.75180217  1
  V  V43  1  0.25296697  0.75291596  0.49866217  1
  V  V44  1  0.62843693  0.24684651  0.38702898  1
  V  V45  1  0.87634514  -0.00184188  0.37240766  1
  V  V46  1  0.75412496  0.62405324  0.87414803  1
  V  V47  1  0.88834638  0.13104174  0.25037567  1
  V  V48  1  0.13323966  0.00145300  0.62570267  1
  V  V49  1  0.50174170  0.62490483  0.12490172  1
  V  V50  1  0.11057691  0.25433438  0.37008486  1
  V  V51  1  0.50489056  0.75279605  0.24929195  1
  V  V52  1  0.00232056  0.75003417  0.75230647  1
  V  V53  1  0.52222074  0.11809511  0.12125669  1
  V  V54  1  0.12732160  0.50230664  0.12357543  1
  V  V55  1  0.74514030  0.37547853  0.61616764  1
  V  V56  1  0.25491015  0.37078455  0.12425908  1
  V  V57  1  0.87764050  0.74824475  0.62593215  1
  V  V58  1  -0.00816155  0.88791103  0.87964651  1
  V  V59  1  0.37672187  0.87538791  0.50029731  1
  V  V60  1  -0.01276819  0.62818327  0.12366499  1
  V  V61  1  0.75390220  0.62334726  0.37013022  1
  V  V62  1  0.37572368  0.75473568  0.12473058  1
  V  V63  1  0.87381448  0.87727774  0.00478293  1
  V  V64  1  0.75126332  0.49983975  0.74485771  1
  V  V65  1  0.12837074  0.50282179  0.62578346  1
  V  V66  1  0.49895273  0.49898619  0.00143753  1
  V  V67  1  0.48958996  0.86888852  0.86916939  1
  V  V68  1  0.75134328  0.74858836  0.50017811  1
  V  V69  1  0.87789820  0.49676323  0.37446674  1
  V  V70  1  0.12350980  0.75197093  0.87672232  1
  V  V71  1  0.62431953  0.62639847  -0.00053405  1
  V  V72  1  0.37719161  0.62535015  0.25106822  1
  V  V73  1  -0.00201828  0.24789203  0.75390208  1
  V  V74  1  0.49953620  0.24973608  0.24138414  1
  V  V75  1  0.00254837  -0.00324872  0.50132836  1
  V  V76  1  0.37607926  0.50057229  0.87316003  1
  V  V77  1  0.73394473  -0.00295109  0.25213484  1
  V  V78  1  0.62381072  0.61513754  0.50525194  1
  V  V79  1  0.49924615  0.12584955  0.62203835  1
  V  V80  1  0.75043669  0.87692202  0.63376134  1
  V  V81  1  0.25517785  0.23741551  0.00458602  1
  V  V82  1  0.25547208  0.62717929  0.87567803  1
  V  V83  1  -0.01070651  0.37900669  0.87397958  1
  V  V84  1  0.25085849  0.62295992  0.37325568  1
  Zn  Zn85  1  0.24883861  0.88037922  0.12740659  1
  Zn  Zn86  1  0.24955159  -0.00009772  0.24441909  1
  Zn  Zn87  1  0.39132323  0.75327001  0.64228179  1
  Zn  Zn88  1  0.74683265  0.23539434  0.00706253  1
  Zn  Zn89  1  0.12641942  0.12564731  0.49875695  1
  Zn  Zn90  1  0.37789301  0.37375103  0.50378331  1
  Zn  Zn91  1  0.62993601  0.49294382  0.12041885  1
  Zn  Zn92  1  0.00523791  0.62576390  0.62732981  1
  Zn  Zn93  1  0.00424926  0.49597630  0.50032480  1
  Zn  Zn94  1  0.11325863  0.36656873  0.24728652  1
  Zn  Zn95  1  0.12228725  0.62733906  -0.00033619  1
  Zn  Zn96  1  0.00151539  0.87251722  0.37231357  1
  Zn  Zn97  1  0.25755569  0.87593165  0.63244973  1
  Zn  Zn98  1  0.37229578  0.88436665  -0.00317784  1
  Zn  Zn99  1  0.37392428  0.25118489  0.62663068  1
  Zn  Zn100  1  0.12541527  0.87472987  0.24785806  1
  Zn  Zn101  1  0.25423773  0.37320416  0.62610397  1
  Zn  Zn102  1  0.87670134  0.25449334  0.13610455  1
  Zn  Zn103  1  0.37578345  0.36779046  0.00415116  1
  Zn  Zn104  1  0.50378253  0.49612964  0.50742465  1
  Zn  Zn105  1  0.62063414  0.74773349  0.86925217  1
  Zn  Zn106  1  0.25279216  0.49343393  0.24902860  1
  Zn  Zn107  1  0.17958938  0.18517641  0.18533314  1
  Zn  Zn108  1  0.18968420  0.18689398  0.68914491  1
  Zn  Zn109  1  0.18615979  0.68129677  0.18612333  1
  Zn  Zn110  1  0.21237882  0.69681226  0.69474596  1
  Zn  Zn111  1  0.69853406  0.18819584  0.19364480  1
  Zn  Zn112  1  0.68313933  0.19155075  0.68513456  1
  Zn  Zn113  1  0.69134952  0.68655237  0.18643295  1
  Zn  Zn114  1  0.68667897  0.68704367  0.68412357  1
  Zn  Zn115  1  0.31205594  0.31143909  0.30810270  1
  Zn  Zn116  1  0.31296855  0.31011937  0.81639836  1
  Zn  Zn117  1  0.31285108  0.81551892  0.31034211  1
  Zn  Zn118  1  0.31073386  0.81349088  0.80980491  1
  Zn  Zn119  1  0.81258902  0.31148486  0.31569184  1
  Zn  Zn120  1  0.81281079  0.30968883  0.80973374  1
  Zn  Zn121  1  0.81131196  0.81486953  0.31217017  1
  Zn  Zn122  1  0.81244932  0.81113733  0.81577503  1
  Zn  Zn123  1  0.18886700  0.43407349  0.43558717  1
  Zn  Zn124  1  0.18595527  0.43270963  0.94075300  1
  Zn  Zn125  1  0.18811179  0.93848766  0.43292549  1
  Zn  Zn126  1  0.18252761  0.93599189  0.94401548  1
  Zn  Zn127  1  0.69119399  0.43432485  0.43238624  1
  Zn  Zn128  1  0.68350795  0.44369515  0.92790857  1
  Zn  Zn129  1  0.68869926  0.93716044  0.44163494  1
  Zn  Zn130  1  0.67872796  0.93446457  0.93911938  1
  Zn  Zn131  1  0.31187721  0.05751865  0.05944105  1
  Zn  Zn132  1  0.31621749  0.06635537  0.56187568  1
  Zn  Zn133  1  0.31355793  0.56295759  0.06090306  1
  Zn  Zn134  1  0.31629322  0.56332809  0.56274375  1
  Zn  Zn135  1  0.80898921  0.06193600  0.08158398  1
  Zn  Zn136  1  0.81357999  0.05963959  0.56385699  1
  Zn  Zn137  1  0.81344539  0.55985020  0.05870134  1
  Zn  Zn138  1  0.81330073  0.56063272  0.56288949  1
  Zn  Zn139  1  0.43787213  0.43618099  0.18778851  1
  Zn  Zn140  1  0.43874847  0.44074787  0.68558190  1
  Zn  Zn141  1  0.44107574  0.94193781  0.18530072  1
  Zn  Zn142  1  0.43598904  0.94193360  0.68879304  1
  Zn  Zn143  1  0.93717750  0.43864825  0.18329444  1
  Zn  Zn144  1  0.93989175  0.43786845  0.68508305  1
  Zn  Zn145  1  0.93464789  0.93154128  0.18866548  1
  Zn  Zn146  1  0.94099387  0.93670566  0.68808081  1
  Zn  Zn147  1  0.06553495  0.06199541  0.31528901  1
  Zn  Zn148  1  0.06141491  0.06763213  0.81519690  1
  Zn  Zn149  1  0.04048586  0.53122679  0.28982326  1
  Zn  Zn150  1  0.06804131  0.56447786  0.81369004  1
  Zn  Zn151  1  0.56169865  0.06865312  0.31387365  1
  Zn  Zn152  1  0.56264278  0.05679882  0.80845853  1
  Zn  Zn153  1  0.56752437  0.56041097  0.31209743  1
  Zn  Zn154  1  0.56511439  0.56026515  0.81276309  1
  Zn  Zn155  1  0.43733577  0.18894091  0.43490341  1
  Zn  Zn156  1  0.44193158  0.18544655  0.94244109  1
  Zn  Zn157  1  0.43988976  0.68738527  0.44092575  1
  Zn  Zn158  1  0.43559530  0.68965087  0.93680699  1
  Zn  Zn159  1  0.93363149  0.18368792  0.44182237  1
  Zn  Zn160  1  0.95427346  0.21608519  0.97706924  1
  Zn  Zn161  1  0.94094901  0.68277651  0.43538489  1
  Zn  Zn162  1  0.93436033  0.69210109  0.93735768  1
  Zn  Zn163  1  0.06159035  0.31622714  0.06720577  1
  Zn  Zn164  1  0.06684618  0.31062362  0.56276401  1
  Zn  Zn165  1  0.05914276  0.81627487  0.06440338  1
  Zn  Zn166  1  0.06748758  0.81200142  0.56354926  1
  Zn  Zn167  1  0.56514426  0.30585549  0.06043029  1
  Zn  Zn168  1  0.56068650  0.31244172  0.56296326  1
  Zn  Zn169  1  0.56116781  0.81495395  0.05519386  1
  Zn  Zn170  1  0.56324362  0.80862370  0.55997399  1
  O  O171  1  0.12063258  0.11606759  0.11215866  1
  O  O172  1  0.11734754  0.11925373  0.62484816  1
  O  O173  1  0.11767230  0.61875435  0.11727436  1
  O  O174  1  0.13298686  0.61794391  0.61832828  1
  O  O175  1  0.61978231  0.12346039  0.13083338  1
  O  O176  1  0.61183223  0.11656735  0.63221089  1
  O  O177  1  0.62091867  0.62441578  0.11232906  1
  O  O178  1  0.61828287  0.62747601  0.61094240  1
  O  O179  1  0.38397056  0.38142997  0.37284365  1
  O  O180  1  0.38730839  0.37994545  0.87664264  1
  O  O181  1  0.38448695  0.88234069  0.38025097  1
  O  O182  1  0.38553926  0.87296762  0.87286502  1
  O  O183  1  0.86835584  0.38264078  0.38819160  1
  O  O184  1  0.88752373  0.38051644  0.86569214  1
  O  O185  1  0.87737889  0.88150449  0.38261860  1
  O  O186  1  0.87995165  0.87260472  0.88576807  1
  O  O187  1  0.25425361  0.01435368  0.37256176  1
  O  O188  1  0.24550808  0.00011168  0.87092182  1
  O  O189  1  0.25956246  0.50356043  0.37259829  1
  O  O190  1  0.25648875  0.50409920  0.87393818  1
  O  O191  1  0.75680252  0.00096756  0.37077971  1
  O  O192  1  0.74810928  0.00037699  0.87264700  1
  O  O193  1  0.75708092  0.50668542  0.36871952  1
  O  O194  1  0.74658316  0.51486871  0.86072648  1
  O  O195  1  0.24385074  0.49191202  0.11961768  1
  O  O196  1  0.24533473  0.49971608  0.63399517  1
  O  O197  1  0.23843385  0.99972848  0.12506005  1
  O  O198  1  0.24030583  1.00203954  0.62539784  1
  O  O199  1  0.74838799  0.50715834  0.13794945  1
  O  O200  1  0.75198295  0.49329145  0.63669049  1
  O  O201  1  0.74458287  0.99265340  0.14437805  1
  O  O202  1  0.73960500  0.98946173  0.61723285  1
  O  O203  1  0.01403088  0.42049537  0.25991344  1
  O  O204  1  0.00561613  0.36845772  0.75403117  1
  O  O205  1  0.00219892  0.85726302  0.25035987  1
  O  O206  1  0.00417447  0.86849048  0.75703154  1
  O  O207  1  0.50615349  0.36651006  0.25394715  1
  O  O208  1  0.50696718  0.37182918  0.75609205  1
  O  O209  1  0.49765521  0.87168691  0.26203251  1
  O  O210  1  0.50275777  0.87869048  0.76054766  1
  O  O211  1  0.49701227  0.12982324  0.23858773  1
  O  O212  1  0.48963504  0.12580297  0.74376637  1
  O  O213  1  0.49732573  0.63054400  0.24564234  1
  O  O214  1  0.50553573  0.62475808  0.73935705  1
  O  O215  1  0.98602559  0.12387400  0.26222513  1
  O  O216  1  0.99241952  0.12861456  0.74107371  1
  O  O217  1  1.00247645  0.63441100  0.23931913  1
  O  O218  1  0.99435431  0.63043315  0.75132658  1
  O  O219  1  0.35912535  0.24830572  -0.00652886  1
  O  O220  1  0.36658445  0.25080698  0.50096575  1
  O  O221  1  0.36794982  0.75206642  0.00940019  1
  O  O222  1  0.36764852  0.75829276  0.49911405  1
  O  O223  1  0.85757567  0.27887723  -0.02198111  1
  O  O224  1  0.87744014  0.25525574  0.51438902  1
  O  O225  1  0.85996598  0.75897179  -0.00352469  1
  O  O226  1  0.87263536  0.75260854  0.50547709  1
  O  O227  1  0.13435465  0.24714397  0.49139336  1
  O  O228  1  0.12998819  0.23785800  0.99608595  1
  O  O229  1  0.12783917  0.74450659  0.48589317  1
  O  O230  1  0.13256686  0.75218844  0.99485028  1
  O  O231  1  0.62253349  0.25393724  0.48634805  1
  O  O232  1  0.63043279  0.25210164  0.98293796  1
  O  O233  1  0.63108251  0.74021756  0.48941812  1
  O  O234  1  0.63416109  0.74250498  0.99622421  1
  O  O235  1  0.50490607  0.23461986  0.13008986  1
  O  O236  1  0.50060430  0.24163036  0.63298636  1
  O  O237  1  0.49493764  0.74571553  0.12774721  1
  O  O238  1  0.50195724  0.73233900  0.61869031  1
  O  O239  1  0.97961848  0.24584062  0.08732804  1
  O  O240  1  0.99542382  0.24158975  0.63094153  1
  O  O241  1  1.00390445  0.74257548  0.13751581  1
  O  O242  1  0.99786477  0.74941295  0.63552039  1
  O  O243  1  0.01307928  0.24517284  0.38512826  1
  O  O244  1  0.00906144  0.26007000  0.87569808  1
  O  O245  1  0.00738612  0.74535028  0.36293322  1
  O  O246  1  0.00485699  0.75589477  0.86799096  1
  O  O247  1  0.50656389  0.25813105  0.36752492  1
  O  O248  1  0.50666793  0.25667557  0.87178098  1
  O  O249  1  0.50768045  0.75754110  0.37175010  1
  O  O250  1  0.50066065  0.76386103  0.87674537  1
  O  O251  1  0.25145629  0.13381769  0.49111668  1
  O  O252  1  0.24350586  0.13567212  1.00234217  1
  O  O253  1  0.24528682  0.63330117  0.49530829  1
  O  O254  1  0.24982305  0.63644033  0.99420027  1
  O  O255  1  0.75302502  0.11737192  0.48640609  1
  O  O256  1  0.76529543  0.11736931  0.98727409  1
  O  O257  1  0.74019980  0.62928036  0.49713301  1
  O  O258  1  0.74476164  0.62877440  0.99296999  1
  O  O259  1  0.24959285  0.36210434  0.00750579  1
  O  O260  1  0.25356505  0.36248362  0.49978527  1
  O  O261  1  0.25395452  0.86399284  0.00155467  1
  O  O262  1  0.26522340  0.87295193  0.49387851  1
  O  O263  1  0.75928991  0.39393261  -0.00305397  1
  O  O264  1  0.75702342  0.38064176  0.51250059  1
  O  O265  1  0.74983660  0.86796711  0.00711853  1
  O  O266  1  0.75666755  0.86725624  0.50904272  1
  O  O267  1  0.13813130  0.51286311  0.23021924  1
  O  O268  1  0.13180616  0.49417403  0.74387721  1
  O  O269  1  0.12549090  1.00246034  0.23765017  1
  O  O270  1  0.13330279  1.00239184  0.74473051  1
  O  O271  1  0.63383436  0.48892584  0.24868569  1
  O  O272  1  0.63336272  0.48751754  0.75299408  1
  O  O273  1  0.63589825  0.99700846  0.26222907  1
  O  O274  1  0.61961127  0.98628176  0.73494445  1
  O  O275  1  0.37578830  0.01051139  0.25552479  1
  O  O276  1  0.36448527  0.01250135  0.74733542  1
  O  O277  1  0.37567712  0.50587894  0.26013779  1
  O  O278  1  0.36839159  0.49590978  0.76414086  1
  O  O279  1  0.87373638  0.00194825  0.26421096  1
  O  O280  1  0.87273488  0.01308658  0.73846191  1
  O  O281  1  0.86367139  0.49504718  0.26009846  1
  O  O282  1  0.87046477  0.51261773  0.74356730  1
  O  O283  1  0.12892423  0.35752096  0.37386500  1
  O  O284  1  0.11623024  0.36878456  0.86950575  1
  O  O285  1  0.12209673  0.86383718  0.37325193  1
  O  O286  1  0.11633866  0.87031197  0.87227016  1
  O  O287  1  0.61953557  0.36863417  0.36592976  1
  O  O288  1  0.61435313  0.37136772  0.86733118  1
  O  O289  1  0.61734509  0.86418048  0.38398820  1
  O  O290  1  0.61388187  0.87196679  0.86452073  1
  O  O291  1  0.37904639  0.12348174  0.13390808  1
  O  O292  1  0.38733020  0.12634309  0.63225716  1
  O  O293  1  0.38088146  0.63480459  0.12962002  1
  O  O294  1  0.39266182  0.62739888  0.61970365  1
  O  O295  1  0.87951513  0.11773635  0.14882597  1
  O  O296  1  0.88010533  0.13047167  0.63087960  1
  O  O297  1  0.88756224  0.62243063  0.12012057  1
  O  O298  1  0.87815899  0.63176275  0.63200707  1
  O  O299  1  0.24229846  0.25455216  0.11195666  1
  O  O300  1  0.25027766  0.24956471  0.61437419  1
  O  O301  1  0.25760585  0.75011991  0.11903735  1
  O  O302  1  0.22830400  0.76284787  0.59949167  1
  O  O303  1  0.76290823  0.23925510  0.11900420  1
  O  O304  1  0.75787885  0.26097138  0.63022158  1
  O  O305  1  0.74918667  0.75749986  0.11747036  1
  O  O306  1  0.75645369  0.75597584  0.61895108  1
  O  O307  1  0.24903142  0.24068657  0.37973709  1
  O  O308  1  0.23679984  0.25700556  0.88835106  1
  O  O309  1  0.24518141  0.74597327  0.38169413  1
  O  O310  1  0.24649511  0.74336540  0.88406221  1
  O  O311  1  0.74136765  0.23788986  0.37125613  1
  O  O312  1  0.73476953  0.25256596  0.87056329  1
  O  O313  1  0.74487978  0.74353413  0.37817736  1
  O  O314  1  0.74496362  0.73841660  0.87992550  1
  O  O315  1  0.00951484  0.11499453  -0.01163495  1
  O  O316  1  -0.00050350  0.11684772  0.51404212  1
  O  O317  1  -0.00072075  0.62061451  0.00188219  1
  O  O318  1  0.01684893  0.62747408  0.50552002  1
  O  O319  1  0.50301900  0.11663937  0.01055094  1
  O  O320  1  0.49511469  0.11515307  0.50670114  1
  O  O321  1  0.50687714  0.62187332  0.00263709  1
  O  O322  1  0.51559198  0.62023500  0.49649143  1
  O  O323  1  0.49977542  0.37787757  0.48934479  1
  O  O324  1  0.49873008  0.37807849  0.99348257  1
  O  O325  1  0.49204477  0.87943242  0.49153207  1
  O  O326  1  0.49630458  0.88114409  0.98580882  1
  O  O327  1  0.98808282  0.37650696  0.50825993  1
  O  O328  1  0.98999000  0.38577529  0.99042384  1
  O  O329  1  0.99436119  0.87946782  0.50064453  1
  O  O330  1  0.98635791  0.86947828  0.99233316  1
  O  O331  1  0.49638582  0.48726582  0.37217038  1
  O  O332  1  0.49413533  0.49363289  0.87947315  1
  O  O333  1  0.49905580  0.99514226  0.38139097  1
  O  O334  1  0.50269860  0.99039430  0.88311006  1
  O  O335  1  0.97932673  0.52080629  0.38699120  1
  O  O336  1  1.00933416  0.49464434  0.88510569  1
  O  O337  1  0.99421686  0.99745161  0.38324961  1
  O  O338  1  1.00104035  0.98633728  0.86775920  1
  O  O339  1  0.01161201  -0.00460439  0.12815735  1
  O  O340  1  0.01126847  0.00621168  0.62306684  1
  O  O341  1  0.00638593  0.50896657  0.11053880  1
  O  O342  1  0.01609591  0.50379437  0.62454564  1
  O  O343  1  0.50331211  0.01362002  0.12064648  1
  O  O344  1  0.50509854  0.00575268  0.61720093  1
  O  O345  1  0.50087462  0.50697507  0.11855217  1
  O  O346  1  0.50205867  0.51480802  0.62321991  1
  O  O347  1  0.24334101  0.37302544  0.23951175  1
  O  O348  1  0.24435108  0.38435769  0.75418798  1
  O  O349  1  0.24522967  0.87950645  0.24755961  1
  O  O350  1  0.24123851  0.89176917  0.75086291  1
  O  O351  1  0.74199434  0.38332072  0.25600661  1
  O  O352  1  0.74520445  0.38276716  0.74313356  1
  O  O353  1  0.75367049  0.88736329  0.24572423  1
  O  O354  1  0.74430739  0.87013303  0.73859178  1
  O  O355  1  0.25834709  0.12908478  0.25468679  1
  O  O356  1  0.26409840  0.12105060  0.74909839  1
  O  O357  1  0.26246066  0.62613890  0.25626704  1
  O  O358  1  0.24123248  0.60610654  0.76316593  1
  O  O359  1  0.75737865  0.10860597  0.26244169  1
  O  O360  1  0.76123520  0.12623692  0.74108538  1
  O  O361  1  0.74271323  0.61451265  0.26074063  1
  O  O362  1  0.75555389  0.62026993  0.75286909  1
  O  O363  1  0.37035684  0.12094085  0.36545015  1
  O  O364  1  0.38224975  0.12511911  0.86252712  1
  O  O365  1  0.37319007  0.61817625  0.37143105  1
  O  O366  1  0.36372581  0.61815250  0.87840026  1
  O  O367  1  0.86752377  0.11660598  0.37245076  1
  O  O368  1  0.87468404  0.11944505  0.85852420  1
  O  O369  1  0.85835037  0.61880358  0.38578578  1
  O  O370  1  0.86625996  0.62997437  0.86463939  1
  O  O371  1  0.13249612  0.38325272  0.12599138  1
  O  O372  1  0.12998468  0.38288913  0.63282320  1
  O  O373  1  0.12582065  0.88944753  0.12327743  1
  O  O374  1  0.12486478  0.88700098  0.63433601  1
  O  O375  1  0.62007558  0.37368318  0.13727438  1
  O  O376  1  0.63291338  0.36967286  0.63321024  1
  O  O377  1  0.63460714  0.86874221  0.12611748  1
  O  O378  1  0.63068390  0.87855492  0.62793928  1
  O  O379  1  0.12091995  0.24782391  0.26383477  1
  O  O380  1  0.11996776  0.25121478  0.75965331  1
  O  O381  1  0.12341821  0.74647079  0.26006744  1
  O  O382  1  0.12297255  0.75679693  0.75722480  1
  O  O383  1  0.61735610  0.25481680  0.25666698  1
  O  O384  1  0.61855481  0.26071497  0.75783378  1
  O  O385  1  0.62090898  0.74324373  0.26382732  1
  O  O386  1  0.62727159  0.76293874  0.74730744  1
  O  O387  1  0.39157849  0.24253487  0.25492176  1
  O  O388  1  0.37983553  0.23913714  0.75124464  1
  O  O389  1  0.38403555  0.74514971  0.24460149  1
  O  O390  1  0.31845508  0.74253309  0.72570383  1
  O  O391  1  0.87516056  0.23645634  0.25546615  1
  O  O392  1  0.88069470  0.24164228  0.74078480  1
  O  O393  1  0.88639652  0.74702180  0.25573321  1
  O  O394  1  0.88122478  0.74094596  0.74578726  1
  O  O395  1  0.37856086  0.49906964  0.48644652  1
  O  O396  1  0.38026590  0.49695492  0.98872582  1
  O  O397  1  0.38480983  0.99404572  0.49443771  1
  O  O398  1  0.39471864  0.99788385  1.00771583  1
  O  O399  1  0.87600282  0.49014335  0.49652729  1
  O  O400  1  0.88305897  0.49213365  0.99557884  1
  O  O401  1  0.88147456  0.99370741  0.49259582  1
  O  O402  1  0.86410111  0.99693539  0.99093361  1
  O  O403  1  0.12621690  0.01237352  0.00841986  1
  O  O404  1  0.12098262  0.00167560  0.50740512  1
  O  O405  1  0.11781526  0.50093733  0.00717155  1
  O  O406  1  0.12846831  0.50678960  0.50636951  1
  O  O407  1  0.60505197  -0.00749182  0.00479694  1
  O  O408  1  0.61252731  -0.00707521  0.51073222  1
  O  O409  1  0.61762242  0.50793002  0.00013729  1
  O  O410  1  0.62808336  0.51271895  0.49343171  1
  O  O411  1  0.36042207  0.37868168  0.12377999  1
  O  O412  1  0.37318236  0.37147194  0.62335066  1
  O  O413  1  0.37694990  0.86285027  0.12597382  1
  O  O414  1  0.37625422  0.87269908  0.61566557  1
  O  O415  1  0.87185100  0.37847205  0.11143409  1
  O  O416  1  0.86810868  0.36791960  0.62178494  1
  O  O417  1  0.86302404  0.88466467  0.11024698  1
  O  O418  1  0.86851548  0.86961527  0.62270616  1
  O  O419  1  0.13465705  0.13388337  0.37687145  1
  O  O420  1  0.12350604  0.13364365  0.88679948  1
  O  O421  1  0.13497810  0.63016929  0.38345382  1
  O  O422  1  0.13709128  0.63248329  0.87933265  1
  O  O423  1  0.63349360  0.13421947  0.37336482  1
  O  O424  1  0.62028323  0.13920274  0.86449945  1
  O  O425  1  0.63367948  0.62970264  0.38392810  1
  O  O426  1  0.62960543  0.62663587  0.88452477  1
