# generated using pymatgen
data_V85Zn86O256
_symmetry_space_group_name_H-M   'P 1'
_cell_length_a   16.95143203
_cell_length_b   16.95671249
_cell_length_c   16.93505013
_cell_angle_alpha   90.06058604
_cell_angle_beta   90.05144491
_cell_angle_gamma   90.00423231
_symmetry_Int_Tables_number   1
_chemical_formula_structural   V85Zn86O256
_chemical_formula_sum   'V85 Zn86 O256'
_cell_volume   4867.81558144
_cell_formula_units_Z   1
loop_
 _symmetry_equiv_pos_site_id
 _symmetry_equiv_pos_as_xyz
  1  'x, y, z'
loop_
 _atom_site_type_symbol
 _atom_site_label
 _atom_site_symmetry_multiplicity
 _atom_site_fract_x
 _atom_site_fract_y
 _atom_site_fract_z
 _atom_site_occupancy
  V  V0  1  0.49773152  -0.00346717  -0.00873347  1
  V  V1  1  0.86550105  0.87072170  -0.00078491  1
  V  V2  1  0.00175416  0.12575171  0.12297078  1
  V  V3  1  0.62336127  0.76095834  0.86272781  1
  V  V4  1  0.37184570  0.12601036  0.74747238  1
  V  V5  1  0.11405335  0.25666433  0.86814145  1
  V  V6  1  0.13068465  0.87353052  0.24550868  1
  V  V7  1  0.37320298  -0.00487866  0.38466365  1
  V  V8  1  0.61940913  0.50159190  0.62504941  1
  V  V9  1  0.37927598  0.49848042  0.87491827  1
  V  V10  1  0.24971272  0.87422498  0.61970045  1
  V  V11  1  0.37105925  0.61283435  0.25033877  1
  V  V12  1  0.74490197  0.12750782  0.37916771  1
  V  V13  1  0.87954544  0.87956362  0.50223299  1
  V  V14  1  0.87571117  0.74134440  0.62646057  1
  V  V15  1  0.87497421  0.12316809  0.24698637  1
  V  V16  1  0.86907594  0.74732629  0.12278221  1
  V  V17  1  0.62210394  0.87378884  0.24662061  1
  V  V18  1  -0.00194097  0.12621988  0.62099266  1
  V  V19  1  0.87595006  0.48100306  0.87677302  1
  V  V20  1  0.49508915  0.25671757  0.75415822  1
  V  V21  1  0.49576164  0.87004330  0.37660872  1
  V  V22  1  0.62038975  0.62480046  0.49711315  1
  V  V23  1  0.75101840  0.37643274  0.11954295  1
  V  V24  1  -0.00140762  0.48573752  -0.00467322  1
  V  V25  1  0.87331501  0.25380121  0.61806478  1
  V  V26  1  0.87865213  -0.00068372  0.37635651  1
  V  V27  1  0.62361763  0.00014300  0.62342945  1
  V  V28  1  0.25012913  0.75502485  0.00551660  1
  V  V29  1  0.12518175  0.37487313  0.26074191  1
  V  V30  1  0.74903442  0.87523662  0.62617383  1
  V  V31  1  0.25043121  0.25087608  -0.00198114  1
  V  V32  1  0.37484713  0.87682789  -0.00090569  1
  V  V33  1  0.13359786  -0.00388114  0.12189894  1
  V  V34  1  0.87968879  0.13168228  0.74980844  1
  V  V35  1  0.50273358  0.49891499  0.00024816  1
  V  V36  1  0.00386074  0.75163230  0.24946721  1
  V  V37  1  0.62311430  0.50119041  0.12514125  1
  V  V38  1  0.50153855  0.12142115  0.12121217  1
  V  V39  1  0.74792718  0.37062016  0.61673948  1
  V  V40  1  0.25290787  0.49556553  0.74681656  1
  V  V41  1  0.48909096  0.49311220  0.48580229  1
  V  V42  1  0.37309711  0.11992023  0.24952119  1
  V  V43  1  0.74861015  -0.00371113  0.75083885  1
  V  V44  1  0.51181577  0.24370537  0.25861989  1
  V  V45  1  0.24875820  -0.00100068  0.75089979  1
  V  V46  1  0.75915440  0.49967400  0.25685337  1
  V  V47  1  0.10964948  0.37668594  0.74835265  1
  V  V48  1  0.74926245  0.50516683  0.75663412  1
  V  V49  1  0.37452355  0.75446871  0.13311471  1
  V  V50  1  0.11410107  0.51174387  0.62617942  1
  V  V51  1  0.24412817  0.12980971  0.37872855  1
  V  V52  1  -0.00014476  0.62098494  0.12229550  1
  V  V53  1  0.75053679  0.12728175  0.87332489  1
  V  V54  1  0.00048227  0.74494010  0.74634188  1
  V  V55  1  0.87042774  0.62675355  0.76561329  1
  V  V56  1  0.75395048  0.25278479  -0.00176991  1
  V  V57  1  0.00585284  0.24944535  0.26615363  1
  V  V58  1  0.12484964  0.62281172  -0.00140484  1
  V  V59  1  0.11190583  0.63249859  0.49760024  1
  V  V60  1  0.11787414  -0.00019208  0.61702827  1
  V  V61  1  0.36725437  0.26066785  0.61222473  1
  V  V62  1  0.62502269  0.12440010  -0.00326391  1
  V  V63  1  0.38126857  0.63008573  0.75079894  1
  V  V64  1  0.87903265  0.26024427  0.12144157  1
  V  V65  1  0.24953708  0.62393561  0.37221494  1
  V  V66  1  0.12558262  0.74768315  0.87455489  1
  V  V67  1  0.61978252  0.37936988  0.75650860  1
  V  V68  1  0.62197898  0.25520724  0.87515138  1
  V  V69  1  0.49896409  0.13068864  0.61838763  1
  V  V70  1  0.25098765  0.12554209  0.87078082  1
  V  V71  1  0.00753303  0.87708164  0.37656252  1
  V  V72  1  0.12914632  0.49501392  0.12636593  1
  V  V73  1  0.64106203  0.63475913  -0.00660814  1
  V  V74  1  0.12600632  0.12603242  -0.00356932  1
  V  V75  1  0.37563234  0.25020010  0.12758560  1
  V  V76  1  0.62215074  0.74859061  0.36661702  1
  V  V77  1  0.37870585  0.37479376  -0.00288181  1
  V  V78  1  0.25256973  0.75126624  0.49375488  1
  V  V79  1  0.74683550  0.75207942  0.49869783  1
  V  V80  1  0.87540370  -0.00081293  0.87384182  1
  V  V81  1  -0.00000468  0.87373651  0.87511318  1
  V  V82  1  0.00098471  -0.00118531  -0.00168352  1
  V  V83  1  0.38064868  0.75310364  0.62433794  1
  V  V84  1  0.49964341  0.62945415  0.12903627  1
  Zn  Zn85  1  0.28772999  0.44392195  0.31063617  1
  Zn  Zn86  1  0.62342788  0.38016891  0.25506146  1
  Zn  Zn87  1  0.88237111  0.62119036  0.26042071  1
  Zn  Zn88  1  0.43606796  -0.06352413  0.83173660  1
  Zn  Zn89  1  0.93519637  0.53619374  0.43893795  1
  Zn  Zn90  1  0.62917025  -0.00435607  0.12080231  1
  Zn  Zn91  1  0.88383031  0.37207697  0.47351903  1
  Zn  Zn92  1  0.11767343  0.12905099  0.49390106  1
  Zn  Zn93  1  0.25034940  0.37857346  0.12572094  1
  Zn  Zn94  1  0.63271755  0.13029252  0.50464919  1
  Zn  Zn95  1  0.24548032  0.37934629  0.60708537  1
  Zn  Zn96  1  0.74642177  0.87193409  0.12337935  1
  Zn  Zn97  1  0.25144131  0.62393105  0.87476037  1
  Zn  Zn98  1  0.59398177  0.87083840  0.74515899  1
  Zn  Zn99  1  0.49957266  0.62945577  0.62617004  1
  Zn  Zn100  1  0.74997951  -0.00380948  0.24600914  1
  Zn  Zn101  1  0.12420434  0.87435617  0.74870059  1
  Zn  Zn102  1  0.75789017  0.62374109  0.37720231  1
  Zn  Zn103  1  0.62675432  0.26762804  0.40007787  1
  Zn  Zn104  1  0.19469420  0.29012366  0.44091033  1
  Zn  Zn105  1  0.50155534  -0.00020497  0.49609817  1
  Zn  Zn106  1  0.25337513  -0.00593971  0.24656679  1
  Zn  Zn107  1  0.18954579  0.18761805  0.19021823  1
  Zn  Zn108  1  0.18209021  0.19307989  0.67967691  1
  Zn  Zn109  1  0.18778886  0.68789946  0.18570366  1
  Zn  Zn110  1  0.19356085  0.68538705  0.68791775  1
  Zn  Zn111  1  0.69197972  0.18072448  0.18344370  1
  Zn  Zn112  1  0.68616648  0.18959469  0.68704166  1
  Zn  Zn113  1  0.68965857  0.68294014  0.18748873  1
  Zn  Zn114  1  0.68595810  0.68788953  0.68958337  1
  Zn  Zn115  1  0.36860597  0.37223212  0.45551212  1
  Zn  Zn116  1  0.30931663  0.31424299  0.81252635  1
  Zn  Zn117  1  0.31290295  0.80878108  0.31189288  1
  Zn  Zn118  1  0.31001112  0.81004626  0.81067776  1
  Zn  Zn119  1  0.80335380  0.30670311  0.30639177  1
  Zn  Zn120  1  0.80893441  0.31550857  0.80359728  1
  Zn  Zn121  1  0.81217952  0.81108302  0.31038858  1
  Zn  Zn122  1  0.80405463  0.80810798  0.81788636  1
  Zn  Zn123  1  0.17007997  0.44992863  0.44293075  1
  Zn  Zn124  1  0.19009899  0.43624255  0.93497253  1
  Zn  Zn125  1  0.18896722  0.94047528  0.43546317  1
  Zn  Zn126  1  0.19063172  0.93507716  0.93480950  1
  Zn  Zn127  1  0.68702934  0.43810766  0.43670380  1
  Zn  Zn128  1  0.68872966  0.44032572  0.93814638  1
  Zn  Zn129  1  0.68908336  0.93919077  0.43470163  1
  Zn  Zn130  1  0.68335272  0.93405213  0.93350722  1
  Zn  Zn131  1  0.31346956  0.06103770  0.05927158  1
  Zn  Zn132  1  0.30905057  0.06455591  0.56147063  1
  Zn  Zn133  1  0.31199660  0.56623615  0.06183876  1
  Zn  Zn134  1  0.31037575  0.56571067  0.56206064  1
  Zn  Zn135  1  0.81157623  0.06049454  0.06255575  1
  Zn  Zn136  1  0.81476194  0.06141423  0.56205112  1
  Zn  Zn137  1  0.81733672  0.55752303  0.06293634  1
  Zn  Zn138  1  0.80133835  0.56561101  0.56892972  1
  Zn  Zn139  1  0.41592308  0.40492626  0.23809394  1
  Zn  Zn140  1  0.43821826  0.43931965  0.68492006  1
  Zn  Zn141  1  0.44181853  0.93491040  0.18602206  1
  Zn  Zn142  1  0.42937212  0.94268589  0.66643475  1
  Zn  Zn143  1  0.93844129  0.43233737  0.29780288  1
  Zn  Zn144  1  0.93800530  0.44293730  0.60975251  1
  Zn  Zn145  1  0.94028673  0.93685372  0.18447456  1
  Zn  Zn146  1  0.93779431  0.93591309  0.68906798  1
  Zn  Zn147  1  0.06263156  0.05877248  0.31000889  1
  Zn  Zn148  1  0.06412609  0.06278591  0.80705202  1
  Zn  Zn149  1  0.07091214  0.56826757  0.31075979  1
  Zn  Zn150  1  0.05752055  0.56094878  0.81018129  1
  Zn  Zn151  1  0.56246170  0.05603941  0.30992272  1
  Zn  Zn152  1  0.56417592  0.06829079  0.80623480  1
  Zn  Zn153  1  0.56385524  0.56332180  0.30887694  1
  Zn  Zn154  1  0.55981541  0.56766495  0.81757665  1
  Zn  Zn155  1  0.43348260  0.18609638  0.43517810  1
  Zn  Zn156  1  0.43579185  0.18575662  0.93490266  1
  Zn  Zn157  1  0.43604786  0.68529338  0.43496888  1
  Zn  Zn158  1  0.44100038  0.68788683  0.93956144  1
  Zn  Zn159  1  0.93300023  0.18463848  0.44224148  1
  Zn  Zn160  1  0.93725604  0.18970073  0.93724968  1
  Zn  Zn161  1  0.93568740  0.70395478  0.43313385  1
  Zn  Zn162  1  0.93825015  0.68705704  0.94020389  1
  Zn  Zn163  1  0.06332749  0.31157791  0.06345232  1
  Zn  Zn164  1  0.05623953  0.30854233  0.56571941  1
  Zn  Zn165  1  0.05917953  0.81176254  0.06236394  1
  Zn  Zn166  1  0.06274553  0.81191093  0.56300412  1
  Zn  Zn167  1  0.56256255  0.31355889  0.06579416  1
  Zn  Zn168  1  0.55634236  0.31728904  0.56257287  1
  Zn  Zn169  1  0.55850641  0.81039299  0.05824061  1
  Zn  Zn170  1  0.56169172  0.81556867  0.55726935  1
  O  O171  1  0.12087162  0.11903767  0.11766923  1
  O  O172  1  0.11332254  0.11632010  0.63035735  1
  O  O173  1  0.11913436  0.61942667  0.11858479  1
  O  O174  1  0.13130308  0.61846223  0.61688199  1
  O  O175  1  0.61797509  0.12203677  0.11403790  1
  O  O176  1  0.61518976  0.11857415  0.62889550  1
  O  O177  1  0.61845112  0.62120087  0.11746978  1
  O  O178  1  0.62130301  0.61919651  0.61806506  1
  O  O179  1  0.37439971  0.38282110  0.34367300  1
  O  O180  1  0.37288446  0.38082301  0.88882481  1
  O  O181  1  0.38340141  0.88263572  0.36468879  1
  O  O182  1  0.36612070  0.87012219  0.89100009  1
  O  O183  1  0.86723182  0.37518301  0.36425594  1
  O  O184  1  0.87622136  0.38286078  0.86994121  1
  O  O185  1  0.88183682  0.88092474  0.38062440  1
  O  O186  1  0.87942205  0.87762573  0.88062483  1
  O  O187  1  0.25939474  0.00348689  0.36804628  1
  O  O188  1  0.24335141  0.00830912  0.85972524  1
  O  O189  1  0.23729660  0.51858649  0.37756230  1
  O  O190  1  0.26370829  0.50173864  0.87026300  1
  O  O191  1  0.76373443  0.00432116  0.36955991  1
  O  O192  1  0.75368673  0.00483975  0.86767732  1
  O  O193  1  0.74680565  0.50325863  0.35938577  1
  O  O194  1  0.76294728  0.49511869  0.86972513  1
  O  O195  1  0.23315344  0.50126227  0.11555543  1
  O  O196  1  0.24235493  0.50036395  0.63187374  1
  O  O197  1  0.23731934  1.00313778  0.12405607  1
  O  O198  1  0.24552540  0.99404031  0.63123903  1
  O  O199  1  0.74345575  0.49343523  0.12763155  1
  O  O200  1  0.73445171  0.49440545  0.63565503  1
  O  O201  1  0.74829566  0.99301238  0.12696247  1
  O  O202  1  0.74318557  0.99768659  0.63180000  1
  O  O203  1  0.00998008  0.35594963  0.24567736  1
  O  O204  1  0.01456004  0.38207243  0.74759139  1
  O  O205  1  0.00735204  0.87063944  0.25463301  1
  O  O206  1  -0.00058157  0.86317379  0.75851009  1
  O  O207  1  0.51115740  0.34654463  0.23427545  1
  O  O208  1  0.50617586  0.36782782  0.74664403  1
  O  O209  1  0.51301374  0.87728051  0.25966376  1
  O  O210  1  0.48245174  0.88442314  0.74598800  1
  O  O211  1  0.49728669  0.12593728  0.23968894  1
  O  O212  1  0.49036912  0.13216525  0.73872279  1
  O  O213  1  0.49011205  0.61813491  0.23681143  1
  O  O214  1  0.48576972  0.61983769  0.74607971  1
  O  O215  1  0.99692668  0.13321414  0.24406573  1
  O  O216  1  0.98662861  0.11629290  0.74092663  1
  O  O217  1  1.00249817  0.63431056  0.24007159  1
  O  O218  1  0.98830704  0.63898838  0.75656532  1
  O  O219  1  0.37398295  0.25755431  0.00523168  1
  O  O220  1  0.38059430  0.25860744  0.50847756  1
  O  O221  1  0.36747065  0.75368238  0.00672710  1
  O  O222  1  0.35932592  0.74324125  0.50734477  1
  O  O223  1  0.86549229  0.24269032  0.00846059  1
  O  O224  1  0.87234922  0.25195987  0.51410032  1
  O  O225  1  0.88173286  0.75991327  0.00875775  1
  O  O226  1  0.86814049  0.76013533  0.50960482  1
  O  O227  1  0.12793772  0.24126521  0.51487562  1
  O  O228  1  0.13094602  0.24500416  0.99179852  1
  O  O229  1  0.13591666  0.73786968  0.51082740  1
  O  O230  1  0.13020817  0.74620319  0.99411159  1
  O  O231  1  0.61766777  0.24224030  0.50846876  1
  O  O232  1  0.63025322  0.24585876  0.99405151  1
  O  O233  1  0.62774525  0.74348195  0.49191684  1
  O  O234  1  0.62754054  0.73687026  1.00181555  1
  O  O235  1  0.49368342  0.23521279  0.12235665  1
  O  O236  1  0.48725271  0.24695697  0.63477440  1
  O  O237  1  0.48878806  0.73873152  0.11781319  1
  O  O238  1  0.48408036  0.75284302  0.61541794  1
  O  O239  1  0.99334487  0.24137311  0.12449545  1
  O  O240  1  0.98550970  0.23757852  0.63364132  1
  O  O241  1  0.99314053  0.74043564  0.12795463  1
  O  O242  1  0.98899485  0.75738197  0.63567108  1
  O  O243  1  -0.00159277  0.24143862  0.36444370  1
  O  O244  1  0.01508123  0.24468659  0.87550659  1
  O  O245  1  -0.00066543  0.76466603  0.36136000  1
  O  O246  1  0.01008223  0.75386188  0.87111777  1
  O  O247  1  0.50673573  0.23688668  0.36105158  1
  O  O248  1  0.50350532  0.24397086  0.86101685  1
  O  O249  1  0.50877472  0.75688524  0.37850763  1
  O  O250  1  0.52403802  0.74161997  0.88580327  1
  O  O251  1  0.25098319  0.12289990  0.48257957  1
  O  O252  1  0.24613906  0.12835603  0.98850381  1
  O  O253  1  0.24301400  0.63531269  0.49414422  1
  O  O254  1  0.24338122  0.63671843  0.99629467  1
  O  O255  1  0.75415671  0.11996238  0.48297472  1
  O  O256  1  0.74455400  0.13032595  0.99224116  1
  O  O257  1  0.73536091  0.63161447  0.50013684  1
  O  O258  1  0.73798520  0.62064997  1.00666538  1
  O  O259  1  0.25989884  0.36862968  0.00387857  1
  O  O260  1  0.25209567  0.37934860  0.48981457  1
  O  O261  1  0.25434275  0.86290962  -0.00084464  1
  O  O262  1  0.23981461  0.86023307  0.50391487  1
  O  O263  1  0.74578497  0.36946316  0.01123697  1
  O  O264  1  0.75270935  0.38192524  0.51542839  1
  O  O265  1  0.76262373  0.87919795  -0.00117216  1
  O  O266  1  0.75642001  0.87086788  0.50522702  1
  O  O267  1  0.11734271  0.48393197  0.23989489  1
  O  O268  1  0.13385430  0.49732259  0.74757896  1
  O  O269  1  0.12511565  0.99172328  0.23790278  1
  O  O270  1  0.13378027  0.99711089  0.73963449  1
  O  O271  1  0.63542241  0.50290446  0.23897714  1
  O  O272  1  0.62585355  0.49721531  0.74777873  1
  O  O273  1  0.62730902  0.98816345  0.24429825  1
  O  O274  1  0.63075090  0.99853901  0.73939743  1
  O  O275  1  0.37678013  0.00867662  0.25074395  1
  O  O276  1  0.36705881  0.01448070  0.74537843  1
  O  O277  1  0.36414196  0.51068554  0.23755393  1
  O  O278  1  0.37197352  0.50373383  0.75719837  1
  O  O279  1  0.87922543  0.01053001  0.25426425  1
  O  O280  1  0.86690419  0.00640034  0.75520288  1
  O  O281  1  0.86148749  0.50177735  0.23930392  1
  O  O282  1  0.86562852  0.51018998  0.76398339  1
  O  O283  1  0.13189751  0.37117221  0.36370295  1
  O  O284  1  0.13034822  0.36995372  0.86032607  1
  O  O285  1  0.11296031  0.88620463  0.36555995  1
  O  O286  1  0.11878921  0.86601144  0.87227229  1
  O  O287  1  0.63130220  0.37294084  0.36674593  1
  O  O288  1  0.62693190  0.37246601  0.86426443  1
  O  O289  1  0.61993930  0.86795852  0.36868089  1
  O  O290  1  0.62078582  0.86750651  0.86528405  1
  O  O291  1  0.38186848  0.12738687  0.12814324  1
  O  O292  1  0.37818406  0.13623057  0.62813453  1
  O  O293  1  0.38100609  0.63114471  0.12951259  1
  O  O294  1  0.37520451  0.63480070  0.63216331  1
  O  O295  1  0.88091398  0.12901232  0.13181631  1
  O  O296  1  0.87739347  0.12955129  0.63155680  1
  O  O297  1  0.88538680  0.63070004  0.12345320  1
  O  O298  1  0.86669141  0.63941259  0.63692152  1
  O  O299  1  0.26246505  0.24385005  0.11658131  1
  O  O300  1  0.26514444  0.25365190  0.62643515  1
  O  O301  1  0.25908910  0.74611010  0.11517289  1
  O  O302  1  0.25523538  0.75729143  0.61735119  1
  O  O303  1  0.75598272  0.25542466  0.11993883  1
  O  O304  1  0.75616080  0.26005666  0.63292107  1
  O  O305  1  0.76573575  0.75003035  0.13045418  1
  O  O306  1  0.75497790  0.75723352  0.62095927  1
  O  O307  1  0.25402720  0.22825899  0.36534246  1
  O  O308  1  0.24224654  0.24385299  0.87900508  1
  O  O309  1  0.25124178  0.74526601  0.38841438  1
  O  O310  1  0.23666408  0.74852409  0.87945720  1
  O  O311  1  0.74285833  0.23036592  0.36711380  1
  O  O312  1  0.74425876  0.24758526  0.87821525  1
  O  O313  1  0.74263316  0.74860565  0.38267238  1
  O  O314  1  0.72659787  0.75024764  0.87558589  1
  O  O315  1  0.00710382  0.11826988  0.00204589  1
  O  O316  1  -0.00348165  0.12207535  0.51515215  1
  O  O317  1  0.00798931  0.62118744  0.00524869  1
  O  O318  1  0.01071521  0.63725454  0.49609199  1
  O  O319  1  0.50310356  0.12004432  0.00424689  1
  O  O320  1  0.49678844  0.12332337  0.51124713  1
  O  O321  1  0.50198844  0.61244548  0.01100478  1
  O  O322  1  0.50871743  0.61900214  0.50201432  1
  O  O323  1  0.49106405  0.38943292  0.49909780  1
  O  O324  1  0.49248303  0.38843196  1.00814997  1
  O  O325  1  0.50456963  0.88097162  0.48233422  1
  O  O326  1  0.49154257  0.88598840  0.99929039  1
  O  O327  1  0.98601289  0.38221698  0.52449352  1
  O  O328  1  1.00298330  0.38655401  1.00068313  1
  O  O329  1  0.99191446  0.86743051  0.48957890  1
  O  O330  1  0.99256120  0.88089214  0.99279653  1
  O  O331  1  0.50358110  0.50530546  0.38777515  1
  O  O332  1  0.48772515  0.50297270  0.88430997  1
  O  O333  1  0.49034469  0.99396519  0.37528652  1
  O  O334  1  0.49765375  1.01521583  0.88582301  1
  O  O335  1  1.00478359  0.49631277  0.36399098  1
  O  O336  1  0.98430910  0.50507105  0.88073552  1
  O  O337  1  0.98699190  0.99382386  0.37083447  1
  O  O338  1  0.99581106  0.99417505  0.87706565  1
  O  O339  1  0.00829507  0.00714121  0.11725385  1
  O  O340  1  0.00917731  0.00394900  0.63037509  1
  O  O341  1  0.01064261  0.51315724  0.11199395  1
  O  O342  1  0.01702703  0.51653367  0.64680130  1
  O  O343  1  0.50125808  0.00983187  0.11361166  1
  O  O344  1  0.50702835  0.01164976  0.61878849  1
  O  O345  1  0.51479806  0.50655260  0.11892788  1
  O  O346  1  0.51020911  0.50131781  0.61796076  1
  O  O347  1  0.22876600  0.36954080  0.24140416  1
  O  O348  1  0.25011048  0.38906698  0.74791343  1
  O  O349  1  0.23446416  0.87244461  0.25366732  1
  O  O350  1  0.24897873  0.88376065  0.74152172  1
  O  O351  1  0.74692382  0.38434389  0.23528161  1
  O  O352  1  0.73792049  0.38799234  0.74528059  1
  O  O353  1  0.73720176  0.87414807  0.24967816  1
  O  O354  1  0.75474025  0.88828309  0.74474373  1
  O  O355  1  0.25928308  0.11945010  0.25482237  1
  O  O356  1  0.25361419  0.12146305  0.75099751  1
  O  O357  1  0.25481953  0.63318838  0.26077227  1
  O  O358  1  0.26072119  0.61322569  0.75264293  1
  O  O359  1  0.76105781  0.12026147  0.25623852  1
  O  O360  1  0.75432253  0.11407686  0.75422676  1
  O  O361  1  0.75637516  0.61156069  0.24991755  1
  O  O362  1  0.75367755  0.61272083  0.74704214  1
  O  O363  1  0.36907654  0.11529418  0.36640152  1
  O  O364  1  0.35966927  0.13197117  0.86432308  1
  O  O365  1  0.36513506  0.63035496  0.36202308  1
  O  O366  1  0.37439242  0.61892412  0.86953273  1
  O  O367  1  0.86857392  0.11818735  0.36849672  1
  O  O368  1  0.87050332  0.11946820  0.86809827  1
  O  O369  1  0.87596760  0.62397154  0.37894188  1
  O  O370  1  0.87056938  0.63031617  0.86720145  1
  O  O371  1  0.12516569  0.38144104  0.13032267  1
  O  O372  1  0.12785265  0.39116791  0.63580053  1
  O  O373  1  0.11696300  0.88497539  0.13131146  1
  O  O374  1  0.13267587  0.88135041  0.62679035  1
  O  O375  1  0.63265867  0.38476066  0.12596844  1
  O  O376  1  0.62816552  0.38249275  0.63558605  1
  O  O377  1  0.62414600  0.87113727  0.13220610  1
  O  O378  1  0.62878201  0.88269628  0.62755952  1
  O  O379  1  0.11224275  0.25549321  0.24505723  1
  O  O380  1  0.13023121  0.26820300  0.75282066  1
  O  O381  1  0.11222535  0.75883046  0.23872540  1
  O  O382  1  0.11828623  0.74810047  0.75593095  1
  O  O383  1  0.61403794  0.23733108  0.24603018  1
  O  O384  1  0.61544311  0.25942111  0.75371951  1
  O  O385  1  0.62915626  0.75182781  0.26108799  1
  O  O386  1  0.62074451  0.75350705  0.75614412  1
  O  O387  1  0.39165134  0.23231869  0.23786328  1
  O  O388  1  0.37829732  0.24346238  0.74490993  1
  O  O389  1  0.37074377  0.74191664  0.23648253  1
  O  O390  1  0.36530203  0.74047875  0.73903315  1
  O  O391  1  0.88611482  0.23881530  0.24233801  1
  O  O392  1  0.86620537  0.23432454  0.74681647  1
  O  O393  1  0.88737379  0.74983798  0.24132733  1
  O  O394  1  0.87823031  0.74705240  0.74625232  1
  O  O395  1  0.38757530  0.50436998  0.50081212  1
  O  O396  1  0.38058765  0.49422715  0.99605765  1
  O  O397  1  0.37465255  1.00087562  0.48787303  1
  O  O398  1  0.38179690  0.98928516  1.00255631  1
  O  O399  1  0.87552967  0.49622929  0.52341509  1
  O  O400  1  0.88177711  0.50177328  0.98476482  1
  O  O401  1  0.87252955  0.98684102  0.49343449  1
  O  O402  1  0.88143468  0.99412437  0.99197545  1
  O  O403  1  0.12193585  0.00467484  0.00250434  1
  O  O404  1  0.13143908  0.00508052  0.51390886  1
  O  O405  1  0.11819161  0.50348455  0.00009349  1
  O  O406  1  0.11879262  0.51787237  0.51633295  1
  O  O407  1  0.61607772  0.00529091  -0.00229220  1
  O  O408  1  0.62766396  0.00462233  0.51289279  1
  O  O409  1  0.61879032  0.50726988  0.00408120  1
  O  O410  1  0.61891378  0.50730277  0.50760648  1
  O  O411  1  0.37271236  0.36276111  0.12476846  1
  O  O412  1  0.37142701  0.36326461  0.62802353  1
  O  O413  1  0.38071792  0.86517585  0.11517072  1
  O  O414  1  0.35746705  0.86873296  0.61779414  1
  O  O415  1  0.86692293  0.36064141  0.12688677  1
  O  O416  1  0.85963405  0.36334834  0.64390591  1
  O  O417  1  0.87724249  0.86659640  0.11575143  1
  O  O418  1  0.86953176  0.87019475  0.61843340  1
  O  O419  1  0.13877706  0.11498358  0.37414836  1
  O  O420  1  0.13454307  0.13234527  0.87334357  1
  O  O421  1  0.13077277  0.63028463  0.39067329  1
  O  O422  1  0.12503911  0.63155758  0.87991387  1
  O  O423  1  0.64097902  0.11252773  0.37591489  1
  O  O424  1  0.63153108  0.13382623  0.87661640  1
  O  O425  1  0.62611782  0.63267221  0.38095428  1
  O  O426  1  0.62669027  0.62463038  0.89040994  1
