# generated using pymatgen
data_V85Zn86O256
_symmetry_space_group_name_H-M   'P 1'
_cell_length_a   16.94408511
_cell_length_b   16.93575897
_cell_length_c   16.94469164
_cell_angle_alpha   89.94173394
_cell_angle_beta   90.03189658
_cell_angle_gamma   90.04924180
_symmetry_Int_Tables_number   1
_chemical_formula_structural   V85Zn86O256
_chemical_formula_sum   'V85 Zn86 O256'
_cell_volume   4862.45960229
_cell_formula_units_Z   1
loop_
 _symmetry_equiv_pos_site_id
 _symmetry_equiv_pos_as_xyz
  1  'x, y, z'
loop_
 _atom_site_type_symbol
 _atom_site_label
 _atom_site_symmetry_multiplicity
 _atom_site_fract_x
 _atom_site_fract_y
 _atom_site_fract_z
 _atom_site_occupancy
  V  V0  1  0.12108696  0.49416428  0.62693444  1
  V  V1  1  0.87389739  0.37327145  0.49893079  1
  V  V2  1  0.62300978  0.00306965  0.12685573  1
  V  V3  1  0.62940812  0.36435213  0.25183907  1
  V  V4  1  0.87006155  0.12401948  0.75801027  1
  V  V5  1  0.37956090  0.00973420  0.37311283  1
  V  V6  1  0.38236593  0.63183619  0.25071746  1
  V  V7  1  0.49350761  0.12430102  0.13109325  1
  V  V8  1  0.62018804  -0.00065840  0.61833099  1
  V  V9  1  0.60898480  0.25256007  0.87937832  1
  V  V10  1  0.87196397  0.74804090  0.62170320  1
  V  V11  1  0.88163038  0.75495074  0.12913506  1
  V  V12  1  0.61883696  0.37655520  0.76010405  1
  V  V13  1  0.37555196  0.00573865  0.86915969  1
  V  V14  1  0.62544698  0.75037201  0.87404863  1
  V  V15  1  0.25360191  0.62592676  0.87249625  1
  V  V16  1  0.62548345  0.87652882  0.74737317  1
  V  V17  1  0.62520737  0.50292978  0.62601445  1
  V  V18  1  0.48755879  0.24669851  0.25700892  1
  V  V19  1  0.74152789  0.24842522  0.49643565  1
  V  V20  1  0.36705520  0.24604381  0.12493809  1
  V  V21  1  0.50466795  0.50104601  0.50192277  1
  V  V22  1  0.87005648  0.37574796  0.00600633  1
  V  V23  1  0.24752317  0.12788273  0.88922802  1
  V  V24  1  0.12215794  0.75214811  0.87391096  1
  V  V25  1  0.38033837  0.49896603  0.37706533  1
  V  V26  1  0.24967057  0.36754302  0.12753040  1
  V  V27  1  -0.00153631  0.37290020  0.37369762  1
  V  V28  1  0.87149415  0.24962275  0.13667839  1
  V  V29  1  0.12941821  0.01123183  0.12225170  1
  V  V30  1  0.49925340  0.87459751  0.86692629  1
  V  V31  1  0.75110496  0.87186497  0.61779374  1
  V  V32  1  0.24739017  0.74373561  0.49974709  1
  V  V33  1  0.76033836  0.62393515  0.86981301  1
  V  V34  1  0.87520435  0.88420631  -0.00539493  1
  V  V35  1  0.12753889  0.37248664  0.75569490  1
  V  V36  1  0.87335757  0.88460018  0.49237169  1
  V  V37  1  0.62618528  0.75014506  0.37216123  1
  V  V38  1  0.24885181  0.50191352  0.74749254  1
  V  V39  1  0.25293972  0.75039272  -0.00150432  1
  V  V40  1  0.74877622  0.37009554  0.63098214  1
  V  V41  1  0.61995922  0.87112156  0.24817741  1
  V  V42  1  0.12683409  0.62593750  0.00121253  1
  V  V43  1  0.75952818  0.00426604  0.25343772  1
  V  V44  1  0.37956722  0.74066734  0.62210343  1
  V  V45  1  0.37828029  0.87326963  -0.00282526  1
  V  V46  1  0.02560082  0.21089190  0.27307628  1
  V  V47  1  0.22846106  0.23760517  0.47126032  1
  V  V48  1  0.49804359  0.87060007  0.37348397  1
  V  V49  1  0.00037166  0.87329610  0.36581039  1
  V  V50  1  0.24989746  0.87437977  0.12450806  1
  V  V51  1  0.61718503  0.11914356  0.49171262  1
  V  V52  1  0.25210554  0.62390894  0.37518426  1
  V  V53  1  0.00484993  0.00753673  -0.00578077  1
  V  V54  1  0.75073300  0.49694643  0.24828150  1
  V  V55  1  0.25433626  0.00457810  0.25417290  1
  V  V56  1  0.74987847  0.87755816  0.12614807  1
  V  V57  1  0.00112394  0.25031315  0.75109766  1
  V  V58  1  -0.00201463  0.49893580  0.49826100  1
  V  V59  1  0.75083376  -0.00000567  0.75759286  1
  V  V60  1  0.75120556  0.63003405  0.37986623  1
  V  V61  1  0.38574840  0.62203662  0.74743267  1
  V  V62  1  -0.00840177  0.12366097  0.12523870  1
  V  V63  1  0.00303840  0.63182996  0.13030177  1
  V  V64  1  0.50465331  0.63137960  0.13016752  1
  V  V65  1  0.25148367  0.00943218  0.74637317  1
  V  V66  1  0.76497277  0.12505169  0.37273133  1
  V  V67  1  -0.00276190  0.88598821  0.87046942  1
  V  V68  1  0.75241756  0.75213136  0.00019969  1
  V  V69  1  0.50535011  0.37334585  0.37680971  1
  V  V70  1  -0.00629684  0.62560043  0.63423926  1
  V  V71  1  0.87735113  0.24855551  0.62509845  1
  V  V72  1  0.87856662  0.63103846  0.25274713  1
  V  V73  1  0.12391115  0.62425584  0.50134966  1
  V  V74  1  0.74835574  0.25218816  0.00258765  1
  V  V75  1  0.12533584  0.24317134  0.89077857  1
  V  V76  1  0.12209121  0.38179423  0.25633441  1
  V  V77  1  -0.00035881  0.49891775  0.00342437  1
  V  V78  1  0.62548685  0.62289798  0.00009568  1
  V  V79  1  0.12528757  0.87456335  0.74381357  1
  V  V80  1  0.37716149  0.87594742  0.49514758  1
  V  V81  1  0.24470964  0.88014699  0.61920029  1
  V  V82  1  0.13038642  0.50135439  0.12258344  1
  V  V83  1  0.62689253  0.63376817  0.50609330  1
  V  V84  1  0.62571258  0.49301187  0.12691215  1
  Zn  Zn85  1  0.62339913  0.12687331  0.00120108  1
  Zn  Zn86  1  -0.00762742  0.74970572  0.75126246  1
  Zn  Zn87  1  0.37853358  0.37061551  -0.00151811  1
  Zn  Zn88  1  0.50292699  0.74649987  0.74256597  1
  Zn  Zn89  1  0.76091653  0.50327858  0.74626410  1
  Zn  Zn90  1  0.50117563  0.00302598  -0.00200233  1
  Zn  Zn91  1  0.34070053  0.29849126  0.60975843  1
  Zn  Zn92  1  0.00250661  0.37296453  0.88305671  1
  Zn  Zn93  1  0.11414824  0.74233118  0.36226648  1
  Zn  Zn94  1  0.88066460  0.49965422  0.86990652  1
  Zn  Zn95  1  0.25554405  0.49913937  0.25092638  1
  Zn  Zn96  1  0.47471874  0.24836003  0.74225488  1
  Zn  Zn97  1  0.15681886  0.06217896  0.56892994  1
  Zn  Zn98  1  0.48520496  0.14130084  0.62214635  1
  Zn  Zn99  1  0.38798467  0.48496932  0.87365548  1
  Zn  Zn100  1  0.87326375  0.50195924  0.37444117  1
  Zn  Zn101  1  0.00908728  0.00213043  0.50310636  1
  Zn  Zn102  1  0.74543409  0.12601869  0.87759636  1
  Zn  Zn103  1  0.00598572  0.12339215  0.61926975  1
  Zn  Zn104  1  0.49912515  0.48961782  -0.00342696  1
  Zn  Zn105  1  0.11914977  0.86395956  0.24166423  1
  Zn  Zn106  1  0.38239585  0.75257392  0.12757022  1
  Zn  Zn107  1  0.18668691  0.18790606  0.21826978  1
  Zn  Zn108  1  0.20458667  0.19677269  0.68885344  1
  Zn  Zn109  1  0.19484160  0.68866758  0.18939924  1
  Zn  Zn110  1  0.18712359  0.68764568  0.68485387  1
  Zn  Zn111  1  0.68839710  0.18669053  0.18778702  1
  Zn  Zn112  1  0.65368864  0.17388158  0.70150678  1
  Zn  Zn113  1  0.69185314  0.68793405  0.18882699  1
  Zn  Zn114  1  0.69061631  0.69062391  0.68857481  1
  Zn  Zn115  1  0.30135301  0.32014526  0.33997900  1
  Zn  Zn116  1  0.31373738  0.30887037  0.80980954  1
  Zn  Zn117  1  0.30931481  0.80877415  0.31008549  1
  Zn  Zn118  1  0.31396643  0.81204353  0.80643136  1
  Zn  Zn119  1  0.81164736  0.31081064  0.31604094  1
  Zn  Zn120  1  0.81118476  0.31518625  0.81868445  1
  Zn  Zn121  1  0.80933255  0.81411469  0.31342614  1
  Zn  Zn122  1  0.81393999  0.81213087  0.80856444  1
  Zn  Zn123  1  0.19005625  0.43114211  0.44328991  1
  Zn  Zn124  1  0.21902533  0.41740823  0.92418964  1
  Zn  Zn125  1  0.18662575  0.93215665  0.42977077  1
  Zn  Zn126  1  0.18644321  0.94104606  0.93576323  1
  Zn  Zn127  1  0.68773589  0.43942734  0.43608028  1
  Zn  Zn128  1  0.69026240  0.43805347  0.94065042  1
  Zn  Zn129  1  0.69123323  0.94001617  0.43469681  1
  Zn  Zn130  1  0.68495459  0.93914073  0.93881054  1
  Zn  Zn131  1  0.31717156  0.06088250  0.06217764  1
  Zn  Zn132  1  0.32570849  0.11337322  0.54925025  1
  Zn  Zn133  1  0.31689041  0.55839486  0.06275763  1
  Zn  Zn134  1  0.33339611  0.52013924  0.58271048  1
  Zn  Zn135  1  0.81030195  0.06496440  0.06049192  1
  Zn  Zn136  1  0.80956897  0.06303128  0.56650578  1
  Zn  Zn137  1  0.81216553  0.56365007  0.06493604  1
  Zn  Zn138  1  0.81150831  0.56135673  0.56284685  1
  Zn  Zn139  1  0.43972417  0.43739322  0.18748783  1
  Zn  Zn140  1  0.43980952  0.42900420  0.68631562  1
  Zn  Zn141  1  0.43766075  0.93616855  0.18965909  1
  Zn  Zn142  1  0.41228591  0.97048979  0.65770089  1
  Zn  Zn143  1  0.93540536  0.43971573  0.18623761  1
  Zn  Zn144  1  0.93730863  0.43493527  0.69141477  1
  Zn  Zn145  1  0.93880472  0.94085744  0.18459667  1
  Zn  Zn146  1  0.93650859  0.94174316  0.68269770  1
  Zn  Zn147  1  0.06008844  0.04477703  0.31049228  1
  Zn  Zn148  1  0.08494670  0.08097429  0.76824827  1
  Zn  Zn149  1  0.06235795  0.56256930  0.31288695  1
  Zn  Zn150  1  0.06076223  0.56326999  0.81533117  1
  Zn  Zn151  1  0.56304425  0.06177213  0.31433782  1
  Zn  Zn152  1  0.55927264  0.06727848  0.80812742  1
  Zn  Zn153  1  0.56533169  0.56279693  0.31179608  1
  Zn  Zn154  1  0.56733214  0.56011589  0.81334424  1
  Zn  Zn155  1  0.43377540  0.20123804  0.44440577  1
  Zn  Zn156  1  0.43518334  0.18716999  0.94388357  1
  Zn  Zn157  1  0.44226642  0.68635758  0.43922944  1
  Zn  Zn158  1  0.44172358  0.68140400  0.93534800  1
  Zn  Zn159  1  0.94374859  0.18438400  0.44454059  1
  Zn  Zn160  1  0.93508757  0.18986264  0.93799876  1
  Zn  Zn161  1  0.93474604  0.69310821  0.44430307  1
  Zn  Zn162  1  0.94036810  0.69312993  0.94266187  1
  Zn  Zn163  1  0.06014630  0.31091573  0.07186984  1
  Zn  Zn164  1  0.10259906  0.28914620  0.57902162  1
  Zn  Zn165  1  0.06349481  0.81761380  0.06017871  1
  Zn  Zn166  1  0.05900096  0.81564609  0.55615981  1
  Zn  Zn167  1  0.55843579  0.31162844  0.06775616  1
  Zn  Zn168  1  0.56111268  0.31328096  0.56534461  1
  Zn  Zn169  1  0.56214224  0.81309813  0.05929557  1
  Zn  Zn170  1  0.56032207  0.81500937  0.55941349  1
  O  O171  1  0.11610554  0.11313542  0.13331937  1
  O  O172  1  0.12084959  0.12078603  0.65941640  1
  O  O173  1  0.12495255  0.61991727  0.12010878  1
  O  O174  1  0.11424183  0.61733486  0.62024908  1
  O  O175  1  0.61584289  0.11691817  0.12637926  1
  O  O176  1  0.63663930  0.11215507  0.60564547  1
  O  O177  1  0.62322657  0.61989542  0.12065086  1
  O  O178  1  0.63691836  0.61746527  0.61697366  1
  O  O179  1  0.39214909  0.38911197  0.36694094  1
  O  O180  1  0.33023940  0.38395388  0.88998110  1
  O  O181  1  0.38383341  0.86788179  0.37733519  1
  O  O182  1  0.38180800  0.87781010  0.87902334  1
  O  O183  1  0.87971903  0.37939104  0.38140818  1
  O  O184  1  0.88022670  0.37714619  0.89177321  1
  O  O185  1  0.87846640  0.87009099  0.38624207  1
  O  O186  1  0.88463779  0.86966378  0.88274188  1
  O  O187  1  0.26064523  -0.01044919  0.36054205  1
  O  O188  1  0.25562232  0.00736712  0.86908500  1
  O  O189  1  0.26108721  0.51104412  0.37965301  1
  O  O190  1  0.23649005  0.51820568  0.86265778  1
  O  O191  1  0.74966162  0.01306699  0.36685948  1
  O  O192  1  0.74402990  0.00048018  0.86165259  1
  O  O193  1  0.75016448  0.51031566  0.36448367  1
  O  O194  1  0.75329883  0.51673422  0.87973496  1
  O  O195  1  0.24335769  0.49383333  0.12999338  1
  O  O196  1  0.23310619  0.51355789  0.64066855  1
  O  O197  1  0.24733547  0.99309203  0.12842757  1
  O  O198  1  0.24694911  0.98522116  0.63222564  1
  O  O199  1  0.74157098  0.50891318  0.14005504  1
  O  O200  1  0.74274752  0.48781760  0.62234120  1
  O  O201  1  0.74139613  0.99670118  0.12981954  1
  O  O202  1  0.74317672  0.98802546  0.63135089  1
  O  O203  1  0.00291038  0.38971686  0.26541972  1
  O  O204  1  0.00819007  0.36582128  0.75719157  1
  O  O205  1  -0.00509685  0.87711199  0.26131734  1
  O  O206  1  0.00728701  0.87453283  0.75556788  1
  O  O207  1  0.50930999  0.36796853  0.25599119  1
  O  O208  1  0.51604195  0.37514682  0.75091460  1
  O  O209  1  0.51266074  0.87389999  0.25388800  1
  O  O210  1  0.50570554  0.87265099  0.76143966  1
  O  O211  1  0.50753547  0.13569177  0.24518212  1
  O  O212  1  0.53548076  0.14517919  0.73053175  1
  O  O213  1  0.49599824  0.62351918  0.24259924  1
  O  O214  1  0.48903617  0.62615253  0.75102945  1
  O  O215  1  0.98365516  0.11448704  0.23563114  1
  O  O216  1  0.98630077  0.13895501  0.75071491  1
  O  O217  1  0.98591117  0.62132476  0.24666286  1
  O  O218  1  1.00313207  0.62706392  0.73749507  1
  O  O219  1  0.37308471  0.24891590  0.02055908  1
  O  O220  1  0.34955619  0.22579741  0.51351514  1
  O  O221  1  0.37258587  0.76002932  -0.00317763  1
  O  O222  1  0.36841605  0.75281578  0.50344728  1
  O  O223  1  0.86854643  0.25772435  0.00746800  1
  O  O224  1  0.86666544  0.25445469  0.50815711  1
  O  O225  1  0.87098305  0.76193094  0.00828869  1
  O  O226  1  0.87395815  0.76345351  0.51378541  1
  O  O227  1  0.12767555  0.25448530  0.47479361  1
  O  O228  1  0.11434527  0.25012191  0.98974577  1
  O  O229  1  0.13256076  0.74163394  0.49834281  1
  O  O230  1  0.13154949  0.74763979  0.99245953  1
  O  O231  1  0.63766948  0.23945011  0.50619512  1
  O  O232  1  0.63062700  0.25323026  0.99539161  1
  O  O233  1  0.62215112  0.73930340  0.49408161  1
  O  O234  1  0.63364165  0.74480633  0.99506461  1
  O  O235  1  0.49152184  0.24108180  0.13686986  1
  O  O236  1  0.48634870  0.25703099  0.62285243  1
  O  O237  1  0.50158554  0.73684815  0.12047753  1
  O  O238  1  0.48351017  0.75478218  0.62303449  1
  O  O239  1  0.99485143  0.23613258  0.13634921  1
  O  O240  1  0.99560613  0.25045035  0.63380155  1
  O  O241  1  0.98928164  0.74804091  0.11823103  1
  O  O242  1  0.99260241  0.74044522  0.62339872  1
  O  O243  1  -0.01304906  0.25869789  0.36234156  1
  O  O244  1  0.00776854  0.24921880  0.86859785  1
  O  O245  1  -0.00195037  0.76553560  0.38271297  1
  O  O246  1  0.00761682  0.75881579  0.87396661  1
  O  O247  1  0.49705965  0.26155400  0.37164436  1
  O  O248  1  0.50608622  0.24743573  0.87065793  1
  O  O249  1  0.51328373  0.75886271  0.37680706  1
  O  O250  1  0.50796029  0.75695193  0.87289856  1
  O  O251  1  0.22670180  0.13002544  0.50418269  1
  O  O252  1  0.24697051  0.11626985  0.98782615  1
  O  O253  1  0.24659373  0.63379852  0.49440467  1
  O  O254  1  0.24603802  0.63008104  0.99222301  1
  O  O255  1  0.74704185  0.12963408  0.48953670  1
  O  O256  1  0.74501986  0.13424738  0.99723023  1
  O  O257  1  0.74381676  0.61945833  0.48635924  1
  O  O258  1  0.74220188  0.63149880  0.99650388  1
  O  O259  1  0.24307749  0.36992620  0.02648562  1
  O  O260  1  0.25939228  0.34537423  0.45736594  1
  O  O261  1  0.25817144  0.87265463  0.00575075  1
  O  O262  1  0.25543915  0.86003425  0.50179745  1
  O  O263  1  0.75939279  0.36959072  0.00314934  1
  O  O264  1  0.75177140  0.36699165  0.50417200  1
  O  O265  1  0.75742478  0.87347182  0.00477403  1
  O  O266  1  0.75977292  0.87679362  0.50486528  1
  O  O267  1  0.12552461  0.49845598  0.23847268  1
  O  O268  1  0.12494891  0.49539228  0.74606557  1
  O  O269  1  0.14006540  0.98770221  0.24093955  1
  O  O270  1  0.13891382  0.98045144  0.75950181  1
  O  O271  1  0.63205768  0.49405389  0.24439477  1
  O  O272  1  0.63315078  0.49262120  0.74377214  1
  O  O273  1  0.63063652  0.99278680  0.24107136  1
  O  O274  1  0.63273975  0.99398560  0.74128319  1
  O  O275  1  0.36593410  -0.00915728  0.26142257  1
  O  O276  1  0.36334359  -0.01556107  0.76474501  1
  O  O277  1  0.37868045  0.51085095  0.26110976  1
  O  O278  1  0.36426613  0.50611263  0.75449963  1
  O  O279  1  0.85793164  -0.00401181  0.24217132  1
  O  O280  1  0.86303143  0.01202257  0.74388192  1
  O  O281  1  0.86662207  0.50992550  0.25008326  1
  O  O282  1  0.87420265  0.49832945  0.75607966  1
  O  O283  1  0.11302544  0.38890122  0.36446214  1
  O  O284  1  0.12669438  0.36474419  0.87166718  1
  O  O285  1  0.11148777  0.86654238  0.36732637  1
  O  O286  1  0.12021053  0.86547250  0.87062731  1
  O  O287  1  0.61561632  0.38201835  0.36451266  1
  O  O288  1  0.62991269  0.37402383  0.86566332  1
  O  O289  1  0.62065162  0.87012976  0.36914341  1
  O  O290  1  0.61836962  0.87081109  0.87057965  1
  O  O291  1  0.38473353  0.12822320  0.12712785  1
  O  O292  1  0.39164573  0.07800891  0.62637388  1
  O  O293  1  0.38608994  0.62474613  0.13289982  1
  O  O294  1  0.36855563  0.62867068  0.63462146  1
  O  O295  1  0.88291919  0.13519695  0.11611337  1
  O  O296  1  0.86811262  0.14059665  0.63432354  1
  O  O297  1  0.87917946  0.63579911  0.13255744  1
  O  O298  1  0.88107985  0.63432400  0.61734225  1
  O  O299  1  0.25751181  0.25380261  0.14633395  1
  O  O300  1  0.22154995  0.26605938  0.60256227  1
  O  O301  1  0.25689609  0.75705241  0.11459086  1
  O  O302  1  0.25882837  0.75458089  0.61711801  1
  O  O303  1  0.75744196  0.24432992  0.11442273  1
  O  O304  1  0.75646295  0.26120554  0.61894562  1
  O  O305  1  0.75908607  0.75799673  0.11976583  1
  O  O306  1  0.75554329  0.76331169  0.62762082  1
  O  O307  1  0.25124734  0.22226048  0.37205660  1
  O  O308  1  0.24274055  0.23365351  0.87429992  1
  O  O309  1  0.24984021  0.73744669  0.38158061  1
  O  O310  1  0.24325032  0.74397908  0.87727925  1
  O  O311  1  0.75107994  0.23798207  0.38336618  1
  O  O312  1  0.74261077  0.25256432  0.89027049  1
  O  O313  1  0.73761423  0.74359214  0.37339969  1
  O  O314  1  0.74699161  0.74291602  0.87993273  1
  O  O315  1  -0.00679254  0.11249048  0.00410080  1
  O  O316  1  0.00740134  0.11958354  0.50388121  1
  O  O317  1  0.00735775  0.62156719  0.00906261  1
  O  O318  1  0.00309225  0.61603550  0.50658858  1
  O  O319  1  0.50229823  0.12238549  0.01391541  1
  O  O320  1  0.51598019  0.13228039  0.49924934  1
  O  O321  1  0.51645811  0.62694338  0.00729272  1
  O  O322  1  0.51500943  0.61361421  0.49498394  1
  O  O323  1  0.51505027  0.39110981  0.48986600  1
  O  O324  1  0.49304704  0.37532757  1.00662436  1
  O  O325  1  0.48868531  0.87087570  0.48807792  1
  O  O326  1  0.49427167  0.87752693  0.98785312  1
  O  O327  1  0.99557498  0.38248325  0.48667785  1
  O  O328  1  0.99546890  0.38479514  1.00472107  1
  O  O329  1  0.98484877  0.87631590  0.49292653  1
  O  O330  1  0.99336957  0.88478805  0.99247501  1
  O  O331  1  0.49867870  0.49609529  0.38031467  1
  O  O332  1  0.49718821  0.51308302  0.88322620  1
  O  O333  1  0.48773212  0.98507588  0.36578913  1
  O  O334  1  0.49269361  0.99591440  0.87268508  1
  O  O335  1  0.99663134  0.49936404  0.38714039  1
  O  O336  1  1.00137381  0.50232589  0.89288641  1
  O  O337  1  1.00034442  0.98006926  0.38057338  1
  O  O338  1  1.00721931  0.98850888  0.88003720  1
  O  O339  1  0.00762716  0.00413643  0.11565626  1
  O  O340  1  0.00008410  0.00769763  0.62220621  1
  O  O341  1  0.00638798  0.50992286  0.11874040  1
  O  O342  1  0.00254775  0.50546975  0.61600341  1
  O  O343  1  0.50539902  0.00646187  0.12732464  1
  O  O344  1  0.52153756  -0.01567260  0.62479287  1
  O  O345  1  0.51152855  0.51185764  0.12545895  1
  O  O346  1  0.51790973  0.49743853  0.61757451  1
  O  O347  1  0.23817628  0.38036975  0.25183033  1
  O  O348  1  0.23337064  0.38839343  0.75222951  1
  O  O349  1  0.25519154  0.87731016  0.23309454  1
  O  O350  1  0.24398312  0.87616674  0.73922329  1
  O  O351  1  0.74225417  0.38504674  0.25790247  1
  O  O352  1  0.74442181  0.37839457  0.74343582  1
  O  O353  1  0.73986130  0.88279404  0.24547450  1
  O  O354  1  0.74477771  0.88186956  0.74317296  1
  O  O355  1  0.25717697  0.10221629  0.24345371  1
  O  O356  1  0.25384593  0.11164903  0.75626577  1
  O  O357  1  0.26068522  0.62004971  0.25922509  1
  O  O358  1  0.25541458  0.62294630  0.75631786  1
  O  O359  1  0.74356998  0.11985426  0.26473862  1
  O  O360  1  0.75051369  0.11711603  0.75026160  1
  O  O361  1  0.75917855  0.62110464  0.25981872  1
  O  O362  1  0.74718223  0.62559513  0.76702222  1
  O  O363  1  0.38765760  0.10684587  0.38085127  1
  O  O364  1  0.36425339  0.11664431  0.88023878  1
  O  O365  1  0.37225248  0.62314834  0.36846864  1
  O  O366  1  0.36429759  0.62975127  0.86541648  1
  O  O367  1  0.86322153  0.12846713  0.37700358  1
  O  O368  1  0.86711958  0.13340106  0.86145221  1
  O  O369  1  0.86826761  0.62841266  0.37021796  1
  O  O370  1  0.86233056  0.62895730  0.88568828  1
  O  O371  1  0.12656721  0.38601427  0.13406967  1
  O  O372  1  0.11219273  0.38971370  0.63700747  1
  O  O373  1  0.13511177  0.88408303  0.12158471  1
  O  O374  1  0.13337815  0.85857703  0.63463543  1
  O  O375  1  0.62280313  0.38725581  0.13514571  1
  O  O376  1  0.63324768  0.38038544  0.63574747  1
  O  O377  1  0.62820402  0.87980802  0.13094813  1
  O  O378  1  0.63435927  0.87557080  0.62577660  1
  O  O379  1  0.11002401  0.27434900  0.23618852  1
  O  O380  1  0.11905539  0.25862279  0.75864582  1
  O  O381  1  0.12564028  0.75054775  0.24844513  1
  O  O382  1  0.12310298  0.75713579  0.75842704  1
  O  O383  1  0.61931619  0.26209728  0.24381654  1
  O  O384  1  0.63506488  0.26838540  0.76528444  1
  O  O385  1  0.63128436  0.75913639  0.25791968  1
  O  O386  1  0.62299497  0.75779813  0.75481505  1
  O  O387  1  0.38631229  0.25447561  0.24860472  1
  O  O388  1  0.36176981  0.26341373  0.72398628  1
  O  O389  1  0.37312364  0.73635111  0.24672082  1
  O  O390  1  0.37570980  0.74045699  0.73936436  1
  O  O391  1  0.87317534  0.25435534  0.23733576  1
  O  O392  1  0.88103352  0.25051440  0.74469200  1
  O  O393  1  0.86774028  0.74408010  0.24000343  1
  O  O394  1  0.87729546  0.75800312  0.73076767  1
  O  O395  1  0.39152438  0.51473565  0.48415170  1
  O  O396  1  0.37673280  0.49504143  0.99479479  1
  O  O397  1  0.36572285  0.98220420  0.47891610  1
  O  O398  1  0.37659741  0.98814959  0.98759332  1
  O  O399  1  0.88260927  0.49235408  0.49988230  1
  O  O400  1  0.88305506  0.49437438  1.00505842  1
  O  O401  1  0.87150065  0.98610682  0.50411277  1
  O  O402  1  0.88163436  0.98937688  1.00357934  1
  O  O403  1  0.11565459  -0.00396755  0.00806942  1
  O  O404  1  0.12388321  -0.02379568  0.50784030  1
  O  O405  1  0.11970230  0.50513168  0.01198423  1
  O  O406  1  0.12026286  0.50131045  0.50873134  1
  O  O407  1  0.62254353  -0.00106896  0.01507111  1
  O  O408  1  0.62889897  0.01009878  0.50240349  1
  O  O409  1  0.62977268  0.50823192  0.01120973  1
  O  O410  1  0.62468431  0.51046254  0.50664916  1
  O  O411  1  0.36397735  0.36556471  0.13399743  1
  O  O412  1  0.36451246  0.41138800  0.60927684  1
  O  O413  1  0.37190760  0.87458258  0.11380652  1
  O  O414  1  0.36484798  0.87090770  0.61210453  1
  O  O415  1  0.88286808  0.36509484  0.11571864  1
  O  O416  1  0.87003355  0.36562916  0.62038495  1
  O  O417  1  0.87149010  0.87041844  0.11774977  1
  O  O418  1  0.86787703  0.87129958  0.61520369  1
  O  O419  1  0.10559783  0.14902138  0.31040304  1
  O  O420  1  0.13827791  0.12951407  0.86667740  1
  O  O421  1  0.13431465  0.62254565  0.38204895  1
  O  O422  1  0.12840507  0.63746550  0.87945114  1
  O  O423  1  0.63256739  0.11966129  0.38843359  1
  O  O424  1  0.62499023  0.13788336  0.87953174  1
  O  O425  1  0.63178855  0.63319490  0.37914734  1
  O  O426  1  0.63602511  0.63108802  0.88358240  1
