# generated using pymatgen
data_V85Zn86O256
_symmetry_space_group_name_H-M   'P 1'
_cell_length_a   16.94860834
_cell_length_b   16.96196861
_cell_length_c   16.93698854
_cell_angle_alpha   90.08831919
_cell_angle_beta   89.96027286
_cell_angle_gamma   90.05657639
_symmetry_Int_Tables_number   1
_chemical_formula_structural   V85Zn86O256
_chemical_formula_sum   'V85 Zn86 O256'
_cell_volume   4869.06599472
_cell_formula_units_Z   1
loop_
 _symmetry_equiv_pos_site_id
 _symmetry_equiv_pos_as_xyz
  1  'x, y, z'
loop_
 _atom_site_type_symbol
 _atom_site_label
 _atom_site_symmetry_multiplicity
 _atom_site_fract_x
 _atom_site_fract_y
 _atom_site_fract_z
 _atom_site_occupancy
  V  V0  1  0.50429368  0.50849230  0.49945201  1
  V  V1  1  0.50149550  0.00486136  0.01259207  1
  V  V2  1  0.25211803  0.25166875  0.49930150  1
  V  V3  1  0.87861286  0.86853880  0.49973571  1
  V  V4  1  0.49183453  0.89607704  0.37185299  1
  V  V5  1  -0.00055392  0.12487597  0.62547179  1
  V  V6  1  0.62400005  0.11590344  0.49692832  1
  V  V7  1  0.87925610  0.37028502  0.50052176  1
  V  V8  1  0.38042313  0.74276414  0.12547511  1
  V  V9  1  -0.00010754  0.62274724  0.62307544  1
  V  V10  1  0.50050930  0.11951918  0.61915279  1
  V  V11  1  -0.00429766  0.74362175  0.75330221  1
  V  V12  1  0.13353626  0.50072376  0.62837009  1
  V  V13  1  0.24524277  0.12261583  0.87638324  1
  V  V14  1  0.12632381  0.12355576  0.49875138  1
  V  V15  1  0.13224237  0.37857437  0.75175093  1
  V  V16  1  0.11845561  0.74876931  0.87854096  1
  V  V17  1  0.00349632  -0.00716826  0.50031487  1
  V  V18  1  0.91688210  0.93661196  -0.05834016  1
  V  V19  1  0.87869311  0.49984914  0.37244903  1
  V  V20  1  0.37422987  0.12377146  0.74981864  1
  V  V21  1  0.36549297  0.64063939  0.74610912  1
  V  V22  1  0.38070816  0.11815649  0.24788086  1
  V  V23  1  0.26190657  0.74213467  0.49912422  1
  V  V24  1  0.74949389  0.24521538  0.00137420  1
  V  V25  1  0.37155266  0.87497540  0.00118814  1
  V  V26  1  -0.00546848  0.50267651  0.00373851  1
  V  V27  1  0.88316209  -0.00156337  0.37624289  1
  V  V28  1  0.74504135  0.00196530  0.74570975  1
  V  V29  1  0.64086848  -0.00167408  0.13875800  1
  V  V30  1  0.50843041  0.74782085  0.25643542  1
  V  V31  1  0.50073884  0.24763256  0.24703202  1
  V  V32  1  0.24614499  0.74823723  0.00209575  1
  V  V33  1  0.75418943  0.12596137  0.37038795  1
  V  V34  1  0.24493198  0.49788185  0.25623146  1
  V  V35  1  0.12414669  0.49149592  0.12599323  1
  V  V36  1  0.50007196  0.25429039  0.75266118  1
  V  V37  1  0.73819141  0.61878678  0.89430672  1
  V  V38  1  0.87355710  0.12208917  0.74951864  1
  V  V39  1  0.37803539  0.37798880  0.50346458  1
  V  V40  1  0.50246794  0.37898853  0.37467817  1
  V  V41  1  0.87686423  0.12073609  0.24057804  1
  V  V42  1  0.11193153  0.12287977  0.00497730  1
  V  V43  1  0.74746938  0.62754204  0.38045641  1
  V  V44  1  0.12213105  0.24846067  0.87451098  1
  V  V45  1  0.38490497  0.37737300  -0.00153545  1
  V  V46  1  0.37450288  0.49478274  0.85977718  1
  V  V47  1  0.11102094  0.00141957  0.12290396  1
  V  V48  1  0.87255057  0.37623221  -0.00421679  1
  V  V49  1  0.12099061  0.62344893  0.00765120  1
  V  V50  1  0.87003011  0.75025625  0.62578778  1
  V  V51  1  0.61949723  0.25783420  0.87691361  1
  V  V52  1  0.37473808  0.89466437  0.50108833  1
  V  V53  1  0.25678481  0.12096055  0.37398856  1
  V  V54  1  0.12469274  -0.00256421  0.62702938  1
  V  V55  1  0.12292514  0.74547150  0.37785893  1
  V  V56  1  0.37385009  -0.00065386  0.87667133  1
  V  V57  1  0.75031897  0.37176650  0.12546496  1
  V  V58  1  0.62440665  0.37339011  0.25172198  1
  V  V59  1  -0.00216357  0.37926737  0.87363318  1
  V  V60  1  0.12911106  0.25247675  0.36771653  1
  V  V61  1  0.61572774  0.50374672  0.12187077  1
  V  V62  1  0.37764618  0.24532222  0.12475537  1
  V  V63  1  0.74970264  0.49553782  0.25291687  1
  V  V64  1  0.74901017  0.24877556  0.50242492  1
  V  V65  1  0.11703512  0.87390279  0.25591292  1
  V  V66  1  0.11907364  0.87302860  0.75494769  1
  V  V67  1  0.25002965  0.25084012  0.00083123  1
  V  V68  1  0.74807626  0.12261156  0.87487185  1
  V  V69  1  0.00666531  0.37406677  0.36619223  1
  V  V70  1  0.49984334  0.63791171  0.62559091  1
  V  V71  1  0.87953769  0.62164743  0.23900792  1
  V  V72  1  0.25114809  -0.00319305  0.25134664  1
  V  V73  1  0.37038329  0.62710874  0.25695562  1
  V  V74  1  0.74911501  0.87305556  0.61845652  1
  V  V75  1  0.50284878  0.87574679  0.87531443  1
  V  V76  1  0.24612810  -0.00222970  0.75188607  1
  V  V77  1  0.37623837  0.25031592  0.62391283  1
  V  V78  1  0.85903349  0.61326115  0.75745990  1
  V  V79  1  0.24495143  0.87333490  0.12610468  1
  V  V80  1  0.00306079  0.24428219  0.24226704  1
  V  V81  1  0.62576938  0.87441078  0.74641857  1
  V  V82  1  0.00137752  0.74484281  0.24397451  1
  V  V83  1  0.86228644  0.76112924  0.11843704  1
  V  V84  1  0.00484208  0.49851000  0.49792051  1
  Zn  Zn85  1  0.49582638  0.75760814  0.74468371  1
  Zn  Zn86  1  0.63280623  0.50746127  0.63731166  1
  Zn  Zn87  1  0.61842945  -0.00499408  0.61596036  1
  Zn  Zn88  1  0.25424988  0.86755665  0.62642501  1
  Zn  Zn89  1  0.75298639  -0.03515936  0.25299285  1
  Zn  Zn90  1  0.63639022  0.38466962  0.75569400  1
  Zn  Zn91  1  0.61299534  0.65418832  0.02109949  1
  Zn  Zn92  1  0.24916362  0.37276846  0.12981766  1
  Zn  Zn93  1  0.63115480  0.75518492  0.88372259  1
  Zn  Zn94  1  0.49469075  0.51373367  0.00147078  1
  Zn  Zn95  1  0.61999658  0.12449468  0.00451891  1
  Zn  Zn96  1  0.64989954  0.78300070  0.36789501  1
  Zn  Zn97  1  0.88137662  0.24180253  0.12057809  1
  Zn  Zn98  1  0.37012698  0.50600647  0.37684458  1
  Zn  Zn99  1  0.63030369  0.64243925  0.50308638  1
  Zn  Zn100  1  0.24628978  0.61872875  0.87215230  1
  Zn  Zn101  1  -0.00082006  0.24992049  0.74948651  1
  Zn  Zn102  1  0.74902987  0.38072450  0.63345131  1
  Zn  Zn103  1  0.25588875  0.37983426  0.63000730  1
  Zn  Zn104  1  0.62446685  0.24986788  0.37646188  1
  Zn  Zn105  1  0.87546745  0.25042910  0.62587167  1
  Zn  Zn106  1  0.13219015  0.62329071  0.49538133  1
  Zn  Zn107  1  0.18929701  0.18429887  0.18586413  1
  Zn  Zn108  1  0.18733616  0.18991300  0.68810096  1
  Zn  Zn109  1  0.18811476  0.68299102  0.18772738  1
  Zn  Zn110  1  0.18719025  0.68866272  0.68323367  1
  Zn  Zn111  1  0.68462980  0.18024360  0.18570862  1
  Zn  Zn112  1  0.68418751  0.19342284  0.68505475  1
  Zn  Zn113  1  0.69147983  0.68429335  0.19464805  1
  Zn  Zn114  1  0.68504089  0.69252134  0.68871777  1
  Zn  Zn115  1  0.31545407  0.31550735  0.31276366  1
  Zn  Zn116  1  0.31383333  0.31269030  0.81411190  1
  Zn  Zn117  1  0.31185208  0.81196464  0.31847365  1
  Zn  Zn118  1  0.30508636  0.81312576  0.81782978  1
  Zn  Zn119  1  0.81721001  0.30853078  0.31363108  1
  Zn  Zn120  1  0.81220285  0.31032503  0.81191724  1
  Zn  Zn121  1  0.82598769  0.81070141  0.31621787  1
  Zn  Zn122  1  0.80440109  0.80488657  0.93377790  1
  Zn  Zn123  1  0.18894195  0.43660646  0.43783666  1
  Zn  Zn124  1  0.19225068  0.43785731  0.93739792  1
  Zn  Zn125  1  0.19096983  0.93156265  0.43509246  1
  Zn  Zn126  1  0.17870666  0.93573883  0.93899172  1
  Zn  Zn127  1  0.70406039  0.45559471  0.46874171  1
  Zn  Zn128  1  0.68825895  0.44038130  0.93638171  1
  Zn  Zn129  1  0.69735112  0.93144021  0.42222137  1
  Zn  Zn130  1  0.69281177  0.93864288  0.93998720  1
  Zn  Zn131  1  0.30755402  0.06231625  0.06511606  1
  Zn  Zn132  1  0.30957162  0.06281451  0.56605911  1
  Zn  Zn133  1  0.30959847  0.56268762  0.06466308  1
  Zn  Zn134  1  0.31672805  0.56456906  0.56449005  1
  Zn  Zn135  1  0.81084237  0.04638024  0.05783834  1
  Zn  Zn136  1  0.81308527  0.05996694  0.56237495  1
  Zn  Zn137  1  0.80928674  0.55923096  0.06566254  1
  Zn  Zn138  1  0.81687492  0.56139453  0.56335616  1
  Zn  Zn139  1  0.43150639  0.43553130  0.18799896  1
  Zn  Zn140  1  0.47674379  0.45799346  0.70565475  1
  Zn  Zn141  1  0.43644011  0.93065056  0.18823203  1
  Zn  Zn142  1  0.43546256  0.93723049  0.68464761  1
  Zn  Zn143  1  0.93808288  0.43234967  0.18332222  1
  Zn  Zn144  1  0.94104983  0.43752004  0.68710237  1
  Zn  Zn145  1  0.93699828  0.93388013  0.18816568  1
  Zn  Zn146  1  0.92096133  0.92145063  0.77299102  1
  Zn  Zn147  1  0.06431144  0.06344028  0.31133661  1
  Zn  Zn148  1  0.05220866  0.05531049  0.82142745  1
  Zn  Zn149  1  0.06512424  0.56510413  0.30958762  1
  Zn  Zn150  1  0.06168907  0.56087600  0.81478298  1
  Zn  Zn151  1  0.56492331  0.06278291  0.31199251  1
  Zn  Zn152  1  0.56270212  0.06333033  0.81233247  1
  Zn  Zn153  1  0.56064622  0.56426130  0.30859944  1
  Zn  Zn154  1  0.55555331  0.56926071  0.81921970  1
  Zn  Zn155  1  0.43937257  0.18647934  0.43466860  1
  Zn  Zn156  1  0.43611429  0.18512045  0.93654698  1
  Zn  Zn157  1  0.43877256  0.69152176  0.43435834  1
  Zn  Zn158  1  0.43902509  0.68517156  0.93522131  1
  Zn  Zn159  1  0.94085370  0.18607751  0.43464498  1
  Zn  Zn160  1  0.93223196  0.18329649  0.93486373  1
  Zn  Zn161  1  0.94148867  0.68712713  0.43241503  1
  Zn  Zn162  1  0.93286211  0.68125793  0.93705243  1
  Zn  Zn163  1  0.06311893  0.31385276  0.05994779  1
  Zn  Zn164  1  0.06609019  0.31204505  0.56117508  1
  Zn  Zn165  1  0.04870636  0.81748214  0.06172478  1
  Zn  Zn166  1  0.06495086  0.81040065  0.56626882  1
  Zn  Zn167  1  0.56333769  0.31308471  0.06444020  1
  Zn  Zn168  1  0.56674986  0.31381555  0.56623118  1
  Zn  Zn169  1  0.56217138  0.81988037  0.06725456  1
  Zn  Zn170  1  0.56266991  0.81278843  0.54616592  1
  O  O171  1  0.13060899  0.11419479  0.11659850  1
  O  O172  1  0.12138300  0.11896528  0.61926421  1
  O  O173  1  0.12581573  0.61552284  0.11298025  1
  O  O174  1  0.11600251  0.61719045  0.62333217  1
  O  O175  1  0.62619764  0.10560404  0.12106256  1
  O  O176  1  0.61648487  0.12540860  0.61502619  1
  O  O177  1  0.63184355  0.60685627  0.13035640  1
  O  O178  1  0.61729416  0.62594020  0.62214760  1
  O  O179  1  0.38585114  0.37444979  0.38599301  1
  O  O180  1  0.37039955  0.38692055  0.88176463  1
  O  O181  1  0.38018855  0.87532201  0.38676321  1
  O  O182  1  0.37797288  0.88141141  0.88132564  1
  O  O183  1  0.88622846  0.37792804  0.38209304  1
  O  O184  1  0.88334801  0.36731209  0.88778676  1
  O  O185  1  0.88332043  0.88447386  0.38973275  1
  O  O186  1  0.88162556  0.86646806  0.86528460  1
  O  O187  1  0.24299247  0.00769783  0.36080825  1
  O  O188  1  0.25183052  0.00259314  0.87049642  1
  O  O189  1  0.24977232  0.49806417  0.36137643  1
  O  O190  1  0.26826048  0.50381697  0.88194547  1
  O  O191  1  0.76876989  0.01563540  0.38151559  1
  O  O192  1  0.73797141  0.01158466  0.85470409  1
  O  O193  1  0.76072529  0.50172238  0.37155838  1
  O  O194  1  0.74331365  0.51828206  0.87504901  1
  O  O195  1  0.24146387  0.49678878  0.13356856  1
  O  O196  1  0.23716968  0.49892501  0.61946169  1
  O  O197  1  0.24140206  0.99341959  0.13554870  1
  O  O198  1  0.24132529  1.00072841  0.63644791  1
  O  O199  1  0.74232709  0.48911909  0.13381300  1
  O  O200  1  0.73686249  0.48745836  0.58556957  1
  O  O201  1  0.74542872  0.98983056  0.13335463  1
  O  O202  1  0.74498285  0.99517075  0.63036063  1
  O  O203  1  -0.00453002  0.36527009  0.26111873  1
  O  O204  1  0.00714471  0.37249566  0.75818501  1
  O  O205  1  0.01216615  0.86713298  0.24803368  1
  O  O206  1  0.01017241  0.85531922  0.74124394  1
  O  O207  1  0.50065234  0.36826679  0.25698506  1
  O  O208  1  0.48783131  0.35356214  0.74952797  1
  O  O209  1  0.48902237  0.86621992  0.26514467  1
  O  O210  1  0.50571099  0.87823469  0.75578208  1
  O  O211  1  0.48802192  0.13264485  0.25632788  1
  O  O212  1  0.49249823  0.13042790  0.74264789  1
  O  O213  1  0.49036381  0.64010477  0.25142407  1
  O  O214  1  0.48734854  0.63551359  0.74367544  1
  O  O215  1  0.99130059  0.13308955  0.25573624  1
  O  O216  1  0.99137305  0.12241767  0.74330679  1
  O  O217  1  0.99117042  0.63061056  0.25071275  1
  O  O218  1  0.99810701  0.62900345  0.74190803  1
  O  O219  1  0.36978709  0.25176727  0.00574925  1
  O  O220  1  0.37194082  0.25619682  0.50332569  1
  O  O221  1  0.36831288  0.75521735  0.00732376  1
  O  O222  1  0.36283934  0.75433423  0.49663812  1
  O  O223  1  0.86573958  0.25317287  0.00240976  1
  O  O224  1  0.87202756  0.25483451  0.49916698  1
  O  O225  1  0.87431809  0.74452993  0.01366741  1
  O  O226  1  0.88734041  0.76099739  0.50810058  1
  O  O227  1  0.13206300  0.24406076  0.48927425  1
  O  O228  1  0.13373123  0.24528077  0.99555600  1
  O  O229  1  0.12627999  0.74948036  0.49033222  1
  O  O230  1  0.12059806  0.74382824  0.99660597  1
  O  O231  1  0.63448394  0.24314476  0.49692071  1
  O  O232  1  0.62914090  0.24564385  0.99540032  1
  O  O233  1  0.62581489  0.75197775  0.47767765  1
  O  O234  1  0.62908813  0.76447185  0.99990320  1
  O  O235  1  0.49307124  0.25239619  0.13773174  1
  O  O236  1  0.49380882  0.23968450  0.63045425  1
  O  O237  1  0.48818002  0.76469091  0.14295786  1
  O  O238  1  0.50173122  0.74192520  0.62142317  1
  O  O239  1  1.00322825  0.25505062  0.13871673  1
  O  O240  1  1.00362759  0.23587879  0.62406036  1
  O  O241  1  0.99022879  0.75222456  0.13726371  1
  O  O242  1  0.99598720  0.73786484  0.63061134  1
  O  O243  1  0.01017258  0.25471633  0.36687766  1
  O  O244  1  0.00649013  0.26073063  0.87629411  1
  O  O245  1  0.00817162  0.74890901  0.35962911  1
  O  O246  1  0.00930547  0.73753230  0.86684581  1
  O  O247  1  0.49937732  0.25777877  0.36278248  1
  O  O248  1  0.50839460  0.23998379  0.86674137  1
  O  O249  1  0.49487068  0.75772483  0.35986127  1
  O  O250  1  0.49748505  0.76880646  0.87382731  1
  O  O251  1  0.24661910  0.12984592  0.49147334  1
  O  O252  1  0.24420993  0.13474261  0.99482914  1
  O  O253  1  0.25178083  0.63701637  0.50042880  1
  O  O254  1  0.23948913  0.63272889  1.00034420  1
  O  O255  1  0.74676569  0.13249906  0.49429886  1
  O  O256  1  0.74756226  0.12849568  0.99121667  1
  O  O257  1  0.75288386  0.62054409  0.48387887  1
  O  O258  1  0.73920174  0.61907374  0.99728982  1
  O  O259  1  0.25723221  0.36057752  -0.00030835  1
  O  O260  1  0.26029082  0.36888746  0.50055259  1
  O  O261  1  0.25111548  0.86839081  0.00519428  1
  O  O262  1  0.26143799  0.86887935  0.50024337  1
  O  O263  1  0.75626248  0.36685235  0.00225102  1
  O  O264  1  0.76500685  0.36062627  0.49053122  1
  O  O265  1  0.79420404  0.90842481  -0.02102830  1
  O  O266  1  0.76354138  0.88362972  0.51089604  1
  O  O267  1  0.13631737  0.50418162  0.24212980  1
  O  O268  1  0.11975182  0.49069343  0.74178243  1
  O  O269  1  0.12977301  0.99191629  0.24555547  1
  O  O270  1  0.12476303  0.98988350  0.75023539  1
  O  O271  1  0.62845687  0.49154173  0.24318061  1
  O  O272  1  0.58677918  0.48986815  0.74504730  1
  O  O273  1  0.63769935  1.00794359  0.24348662  1
  O  O274  1  0.62658314  0.99227293  0.74223502  1
  O  O275  1  0.36471207  0.00910344  0.24033108  1
  O  O276  1  0.36675008  0.00417068  0.75610488  1
  O  O277  1  0.36531438  0.50937958  0.24840467  1
  O  O278  1  0.37875486  0.50191009  0.75761226  1
  O  O279  1  0.87221520  0.00159074  0.25940833  1
  O  O280  1  0.86100033  0.01375484  0.74110905  1
  O  O281  1  0.87303383  0.50323785  0.25233332  1
  O  O282  1  0.88060128  0.51683594  0.74339818  1
  O  O283  1  0.11934352  0.36372256  0.37775081  1
  O  O284  1  0.11996092  0.37098396  0.86991502  1
  O  O285  1  0.12779803  0.86419862  0.36446764  1
  O  O286  1  0.12389967  0.86327219  0.86676040  1
  O  O287  1  0.61141011  0.37325852  0.37059291  1
  O  O288  1  0.62697765  0.36138157  0.87689672  1
  O  O289  1  0.59453640  0.88704494  0.38849771  1
  O  O290  1  0.61806085  0.88059301  0.86580435  1
  O  O291  1  0.36834617  0.13696773  0.13319613  1
  O  O292  1  0.38027737  0.13089840  0.62843737  1
  O  O293  1  0.36896761  0.63890384  0.13276335  1
  O  O294  1  0.37955186  0.62299679  0.64117083  1
  O  O295  1  0.86724848  0.12088640  0.13816655  1
  O  O296  1  0.88447418  0.12620673  0.62836759  1
  O  O297  1  0.87071831  0.62936757  0.13614102  1
  O  O298  1  0.88202223  0.63009454  0.62753228  1
  O  O299  1  0.25643238  0.25107358  0.11773060  1
  O  O300  1  0.25853245  0.25125972  0.61779144  1
  O  O301  1  0.25325545  0.75558501  0.12019144  1
  O  O302  1  0.23923122  0.75337960  0.60410730  1
  O  O303  1  0.74698841  0.25187732  0.11295813  1
  O  O304  1  0.75371292  0.25194942  0.61172139  1
  O  O305  1  0.76391376  0.74895577  0.13533397  1
  O  O306  1  0.76135554  0.75796234  0.62811187  1
  O  O307  1  0.24524836  0.24429700  0.37645013  1
  O  O308  1  0.24317833  0.24328217  0.88186976  1
  O  O309  1  0.23947780  0.75438667  0.38973553  1
  O  O310  1  0.23489819  0.74678692  0.88402817  1
  O  O311  1  0.75232938  0.24008132  0.38373300  1
  O  O312  1  0.74198128  0.24382324  0.88629630  1
  O  O313  1  0.75924613  0.72811279  0.36813595  1
  O  O314  1  0.74804290  0.72776224  0.87396589  1
  O  O315  1  0.01395342  0.13858690  0.00044356  1
  O  O316  1  0.00771412  0.11798358  0.50465184  1
  O  O317  1  0.00400183  0.60951634  -0.00570410  1
  O  O318  1  0.00105088  0.61760200  0.50824123  1
  O  O319  1  0.49925424  0.10795919  -0.00646068  1
  O  O320  1  0.51079491  0.13127915  0.50531413  1
  O  O321  1  0.50344627  0.62734160  0.00410936  1
  O  O322  1  0.49544062  0.62280035  0.50530484  1
  O  O323  1  0.49586812  0.38264553  0.49349190  1
  O  O324  1  0.48630695  0.37276856  1.00253130  1
  O  O325  1  0.48039910  0.87684054  0.49065645  1
  O  O326  1  0.49077514  0.88783103  0.99361133  1
  O  O327  1  0.99784838  0.37605451  0.48844774  1
  O  O328  1  0.99266021  0.38069367  0.99435649  1
  O  O329  1  0.99551848  0.88778135  0.51093386  1
  O  O330  1  0.98375503  0.88662766  0.99872047  1
  O  O331  1  0.49315820  0.49394527  0.37666374  1
  O  O332  1  0.47726386  0.50578520  0.88280365  1
  O  O333  1  0.48767091  0.99521584  0.36366451  1
  O  O334  1  0.49366955  0.99226839  0.88059388  1
  O  O335  1  1.00048545  0.49092525  0.37628312  1
  O  O336  1  1.00453579  0.48577314  0.88479164  1
  O  O337  1  0.99196128  1.00782776  0.38494219  1
  O  O338  1  0.97860349  0.98111435  0.86360821  1
  O  O339  1  0.01195177  -0.00033065  0.13303145  1
  O  O340  1  0.00929528  0.01378134  0.61512790  1
  O  O341  1  0.00910834  0.49298140  0.11562778  1
  O  O342  1  0.00919137  0.50602896  0.61846832  1
  O  O343  1  0.48865864  0.00266142  0.11222957  1
  O  O344  1  0.49888203  0.01559541  0.62627528  1
  O  O345  1  0.51339305  0.49343112  0.12907945  1
  O  O346  1  0.49723925  0.51859003  0.61099916  1
  O  O347  1  0.25801887  0.39183361  0.24786351  1
  O  O348  1  0.23665000  0.36954835  0.74881790  1
  O  O349  1  0.24222483  0.88077352  0.24679078  1
  O  O350  1  0.23754697  0.87833262  0.74876421  1
  O  O351  1  0.74656388  0.37590978  0.24819880  1
  O  O352  1  0.75056240  0.37288013  0.74689978  1
  O  O353  1  0.73208995  0.87282208  0.31647860  1
  O  O354  1  0.74021733  0.88692604  0.73437545  1
  O  O355  1  0.25756630  0.11706568  0.25536847  1
  O  O356  1  0.25251249  0.11852821  0.75682175  1
  O  O357  1  0.25710988  0.61097223  0.24541346  1
  O  O358  1  0.26118799  0.62915252  0.74941343  1
  O  O359  1  0.76029226  0.13123227  0.26076123  1
  O  O360  1  0.75310738  0.12246981  0.75034640  1
  O  O361  1  0.76078040  0.61244654  0.25775726  1
  O  O362  1  0.75879831  0.62074963  0.74306779  1
  O  O363  1  0.36276589  0.13055390  0.36545184  1
  O  O364  1  0.36546855  0.11804373  0.87007971  1
  O  O365  1  0.37439345  0.62597415  0.36105109  1
  O  O366  1  0.37038172  0.61995103  0.85947698  1
  O  O367  1  0.87241728  0.11957699  0.36723668  1
  O  O368  1  0.85777752  0.13227405  0.86307750  1
  O  O369  1  0.87168212  0.61567476  0.36688532  1
  O  O370  1  0.86098732  0.62406497  0.86338798  1
  O  O371  1  0.12964572  0.38699881  0.11964397  1
  O  O372  1  0.12512386  0.38219353  0.63349356  1
  O  O373  1  0.12800219  0.88047599  0.13031100  1
  O  O374  1  0.12721976  0.88237269  0.63463598  1
  O  O375  1  0.63133927  0.37955139  0.13329265  1
  O  O376  1  0.62541232  0.38219814  0.63155262  1
  O  O377  1  0.60717421  0.90368978  0.13159040  1
  O  O378  1  0.63036597  0.87527004  0.62574650  1
  O  O379  1  0.12070362  0.24181926  0.26013530  1
  O  O380  1  0.12138543  0.25607211  0.75786823  1
  O  O381  1  0.12099480  0.75446452  0.25263171  1
  O  O382  1  0.11924077  0.75214353  0.75797096  1
  O  O383  1  0.61663537  0.25373980  0.25044927  1
  O  O384  1  0.61476936  0.24989175  0.75878643  1
  O  O385  1  0.61200745  0.74640997  0.25438992  1
  O  O386  1  0.62174832  0.76630425  0.75324725  1
  O  O387  1  0.37970541  0.24362292  0.24265155  1
  O  O388  1  0.37627217  0.24036692  0.74540648  1
  O  O389  1  0.37386417  0.74381646  0.24394469  1
  O  O390  1  0.37234966  0.74375643  0.75243157  1
  O  O391  1  0.88557781  0.23943638  0.24747179  1
  O  O392  1  0.87876956  0.23655069  0.74533537  1
  O  O393  1  0.88394721  0.74098954  0.24535877  1
  O  O394  1  0.88599882  0.73319398  0.73826470  1
  O  O395  1  0.38141180  0.49336883  0.49673817  1
  O  O396  1  0.37484283  0.48875200  1.00530260  1
  O  O397  1  0.36613403  0.99355148  0.49532067  1
  O  O398  1  0.37815469  0.99617654  0.99609539  1
  O  O399  1  0.88674809  0.49024376  0.49189868  1
  O  O400  1  0.88242767  0.48926733  1.00711987  1
  O  O401  1  0.88587021  0.99387519  0.49676801  1
  O  O402  1  0.89405501  1.02680786  0.98608778  1
  O  O403  1  0.12737395  0.01006926  0.00943662  1
  O  O404  1  0.12132701  0.00229996  0.50292577  1
  O  O405  1  0.11997466  0.50495476  0.00620894  1
  O  O406  1  0.12055142  0.50114389  0.50617184  1
  O  O407  1  0.61243638  -0.00066925  0.00595051  1
  O  O408  1  0.63394448  0.01402595  0.49664934  1
  O  O409  1  0.61958615  0.48980387  0.01782750  1
  O  O410  1  0.60705191  0.51156147  0.48941756  1
  O  O411  1  0.37199021  0.36127959  0.11784349  1
  O  O412  1  0.37696621  0.36884668  0.61200790  1
  O  O413  1  0.36407992  0.86645185  0.11964321  1
  O  O414  1  0.37122973  0.88158254  0.60880359  1
  O  O415  1  0.86829165  0.36707394  0.11427086  1
  O  O416  1  0.88134413  0.37236873  0.61019822  1
  O  O417  1  0.87063234  0.85993646  0.13377399  1
  O  O418  1  0.86752072  0.86354010  0.62040661  1
  O  O419  1  0.13675327  0.13089106  0.37888723  1
  O  O420  1  0.12613488  0.12616570  0.88190158  1
  O  O421  1  0.12293417  0.63940743  0.37553727  1
  O  O422  1  0.12640306  0.62875058  0.88668666  1
  O  O423  1  0.63542506  0.12803315  0.37929792  1
  O  O424  1  0.63478371  0.13389842  0.87510654  1
  O  O425  1  0.64460004  0.61751292  0.36883122  1
  O  O426  1  0.63166369  0.63096639  0.87773889  1
