# generated using pymatgen
data_V85Zn86O256
_symmetry_space_group_name_H-M   'P 1'
_cell_length_a   16.94610886
_cell_length_b   16.94486612
_cell_length_c   16.94686425
_cell_angle_alpha   89.93568301
_cell_angle_beta   90.02901704
_cell_angle_gamma   90.03018448
_symmetry_Int_Tables_number   1
_chemical_formula_structural   V85Zn86O256
_chemical_formula_sum   'V85 Zn86 O256'
_cell_volume   4866.28001244
_cell_formula_units_Z   1
loop_
 _symmetry_equiv_pos_site_id
 _symmetry_equiv_pos_as_xyz
  1  'x, y, z'
loop_
 _atom_site_type_symbol
 _atom_site_label
 _atom_site_symmetry_multiplicity
 _atom_site_fract_x
 _atom_site_fract_y
 _atom_site_fract_z
 _atom_site_occupancy
  V  V0  1  0.75802330  0.86483976  0.62888553  1
  V  V1  1  0.50575310  0.86824573  0.37601863  1
  V  V2  1  0.12464029  0.12395356  0.50210908  1
  V  V3  1  0.87475840  0.75263635  0.12114523  1
  V  V4  1  0.25597478  0.35517496  0.12174966  1
  V  V5  1  0.24556532  0.60763675  0.86837572  1
  V  V6  1  0.24827428  0.37920297  0.62533483  1
  V  V7  1  0.50063935  0.63091611  0.63172810  1
  V  V8  1  0.12576627  0.37778999  0.25576597  1
  V  V9  1  0.12568007  0.37654797  0.75034843  1
  V  V10  1  0.49579711  0.87847240  0.86904410  1
  V  V11  1  0.62610050  0.50273866  0.12873889  1
  V  V12  1  0.61630393  0.75201091  0.86759898  1
  V  V13  1  0.60736209  0.62949861  0.00423160  1
  V  V14  1  0.25841347  0.62271703  0.36525752  1
  V  V15  1  -0.00146374  0.48703839  0.49456776  1
  V  V16  1  0.61923734  0.12934346  -0.00063859  1
  V  V17  1  0.38222543  0.12980843  0.24574966  1
  V  V18  1  -0.00781494  0.24600038  0.75016552  1
  V  V19  1  0.50091772  0.50406408  0.50002568  1
  V  V20  1  0.87505731  0.48868059  0.37311242  1
  V  V21  1  0.74817874  0.75499120  -0.00017806  1
  V  V22  1  0.37374904  0.88102511  -0.00527856  1
  V  V23  1  0.37528000  0.24965781  0.62539172  1
  V  V24  1  -0.00304794  0.12038940  0.12046411  1
  V  V25  1  -0.00021508  0.37429067  0.87421714  1
  V  V26  1  0.25842358  0.12723937  0.88125170  1
  V  V27  1  0.62983863  0.00071639  0.62822162  1
  V  V28  1  0.12564150  0.50220563  0.62832813  1
  V  V29  1  0.24926406  0.75157988  -0.01388503  1
  V  V30  1  0.62689762  0.63384290  0.49984566  1
  V  V31  1  0.49329384  0.74366813  0.24298595  1
  V  V32  1  0.88326870  0.00039711  0.88997589  1
  V  V33  1  0.11511999  0.86291421  0.75541802  1
  V  V34  1  0.87078656  0.62231399  0.25149441  1
  V  V35  1  0.37481720  0.37807769  0.49198495  1
  V  V36  1  -0.01390366  0.12143366  0.62884894  1
  V  V37  1  0.62534175  0.86755280  0.25260053  1
  V  V38  1  0.37528996  0.75153387  0.64060540  1
  V  V39  1  0.37483063  -0.00302538  0.37581226  1
  V  V40  1  0.00169841  0.87500101  0.37422914  1
  V  V41  1  0.12609176  0.87456766  0.24714168  1
  V  V42  1  0.75309524  0.12424080  0.86933292  1
  V  V43  1  0.25078060  0.87326855  0.12010195  1
  V  V44  1  0.87418427  0.50248968  0.86987110  1
  V  V45  1  0.62882652  0.13700481  0.49776283  1
  V  V46  1  0.12338261  0.62493699  0.49847921  1
  V  V47  1  0.74049059  0.37857188  0.62071929  1
  V  V48  1  0.24728847  0.12561915  0.37442463  1
  V  V49  1  0.12035395  -0.00212924  0.11525508  1
  V  V50  1  0.74935288  -0.00237876  0.25199535  1
  V  V51  1  0.24942481  0.25015264  0.50013222  1
  V  V52  1  0.37664317  0.87298899  0.50310159  1
  V  V53  1  0.75240666  0.25125638  -0.00211019  1
  V  V54  1  0.12917764  0.49942503  0.12495320  1
  V  V55  1  0.87243905  -0.00476548  0.37533845  1
  V  V56  1  0.50389066  -0.00053894  0.50168561  1
  V  V57  1  0.49119003  0.48218801  -0.00615107  1
  V  V58  1  0.62882346  0.26455208  0.86886758  1
  V  V59  1  0.74740607  0.62608316  0.87399180  1
  V  V60  1  0.75085443  0.62994535  0.37663505  1
  V  V61  1  0.24766144  0.87637294  0.62900884  1
  V  V62  1  0.61997380  0.00342602  0.12412664  1
  V  V63  1  0.37574649  0.12134838  0.74981999  1
  V  V64  1  0.00096386  0.74791734  0.24747180  1
  V  V65  1  0.25300839  0.74857489  0.50089671  1
  V  V66  1  0.75118209  0.87456384  0.12305766  1
  V  V67  1  -0.00281297  0.86686183  0.88644045  1
  V  V68  1  0.00123811  -0.00042354  0.50030419  1
  V  V69  1  0.24992735  -0.00204484  0.24854986  1
  V  V70  1  0.74772194  0.13690061  0.37661074  1
  V  V71  1  0.76572064  0.00188976  0.74940733  1
  V  V72  1  -0.00048848  0.25293137  0.25690580  1
  V  V73  1  0.49582126  0.00568121  -0.00403811  1
  V  V74  1  0.87358259  0.26441352  0.61049896  1
  V  V75  1  0.12696596  0.74882139  0.37138497  1
  V  V76  1  -0.00792461  0.63569394  0.62806849  1
  V  V77  1  0.50943365  0.26223533  0.74704554  1
  V  V78  1  0.87386990  0.25117338  0.12612428  1
  V  V79  1  0.12144271  0.00257507  0.63239379  1
  V  V80  1  0.37401235  0.60709797  0.75483578  1
  V  V81  1  0.12451988  0.13440031  -0.00092682  1
  V  V82  1  0.00017414  0.50191539  -0.00066538  1
  V  V83  1  0.12346410  0.62989828  -0.00549770  1
  V  V84  1  0.87516653  0.37673402  -0.00035771  1
  Zn  Zn85  1  0.88008431  0.86904029  0.50792572  1
  Zn  Zn86  1  0.11899978  0.25864548  0.37994557  1
  Zn  Zn87  1  0.50499199  0.12558463  0.62519897  1
  Zn  Zn88  1  0.37555250  0.74138023  0.12010868  1
  Zn  Zn89  1  0.36483127  0.36200632  -0.00492621  1
  Zn  Zn90  1  0.87365753  0.63600254  0.74852464  1
  Zn  Zn91  1  0.43907435  0.19638467  0.08550356  1
  Zn  Zn92  1  0.64011351  0.36338098  0.26144662  1
  Zn  Zn93  1  0.00042139  0.62430988  0.12384773  1
  Zn  Zn94  1  0.44370712  0.57823585  0.18072410  1
  Zn  Zn95  1  0.87551781  0.12300357  0.24976396  1
  Zn  Zn96  1  0.62098156  0.50005681  0.63342500  1
  Zn  Zn97  1  0.75642879  0.39162864  0.13161970  1
  Zn  Zn98  1  0.25153290  0.00038933  0.75532996  1
  Zn  Zn99  1  0.52199089  0.24582276  0.25516090  1
  Zn  Zn100  1  0.26843928  0.50178611  0.23683628  1
  Zn  Zn101  1  0.62141215  0.87672465  0.74954847  1
  Zn  Zn102  1  0.12303293  0.24893098  0.87631204  1
  Zn  Zn103  1  0.38145417  0.50129397  0.36119316  1
  Zn  Zn104  1  0.73804466  0.49005016  0.75606857  1
  Zn  Zn105  1  0.75859014  0.74839286  0.50209704  1
  Zn  Zn106  1  0.51989579  0.35933412  0.37969917  1
  Zn  Zn107  1  0.18202306  0.18392841  0.19305883  1
  Zn  Zn108  1  0.18611898  0.18869170  0.69165351  1
  Zn  Zn109  1  0.19301312  0.68688946  0.17969847  1
  Zn  Zn110  1  0.18813067  0.68605237  0.68925922  1
  Zn  Zn111  1  0.68535479  0.18859210  0.18660526  1
  Zn  Zn112  1  0.69397615  0.18956926  0.68404450  1
  Zn  Zn113  1  0.68544232  0.68322348  0.19060536  1
  Zn  Zn114  1  0.68571915  0.68395503  0.69318328  1
  Zn  Zn115  1  0.31209301  0.31114910  0.30938413  1
  Zn  Zn116  1  0.30426610  0.31329366  0.81012100  1
  Zn  Zn117  1  0.31493827  0.81135552  0.31219644  1
  Zn  Zn118  1  0.30808597  0.81739998  0.81455312  1
  Zn  Zn119  1  0.80793725  0.31424483  0.30703893  1
  Zn  Zn120  1  0.81340211  0.31248838  0.80613269  1
  Zn  Zn121  1  0.81346112  0.80921539  0.31390332  1
  Zn  Zn122  1  0.81018106  0.81753378  0.81789906  1
  Zn  Zn123  1  0.19073656  0.44271551  0.43623485  1
  Zn  Zn124  1  0.18641484  0.43343801  0.94137796  1
  Zn  Zn125  1  0.18780147  0.93706910  0.43979675  1
  Zn  Zn126  1  0.18415080  0.94448570  0.93263682  1
  Zn  Zn127  1  0.69662167  0.43966236  0.44953167  1
  Zn  Zn128  1  0.68722224  0.44309819  0.94692217  1
  Zn  Zn129  1  0.68780255  0.93554083  0.44253809  1
  Zn  Zn130  1  0.68555028  0.93874720  0.93566736  1
  Zn  Zn131  1  0.30913254  0.06362746  0.06023349  1
  Zn  Zn132  1  0.31199797  0.06136440  0.56453954  1
  Zn  Zn133  1  0.31270925  0.55857341  0.05342930  1
  Zn  Zn134  1  0.31193437  0.56317473  0.56316410  1
  Zn  Zn135  1  0.80708836  0.06459487  0.06164762  1
  Zn  Zn136  1  0.81244031  0.05906717  0.55883029  1
  Zn  Zn137  1  0.81085429  0.57056285  0.05756418  1
  Zn  Zn138  1  0.81366912  0.55611842  0.55955849  1
  Zn  Zn139  1  0.44662546  0.41605768  0.18737362  1
  Zn  Zn140  1  0.43740364  0.43779541  0.68378907  1
  Zn  Zn141  1  0.43730430  0.93724072  0.18480574  1
  Zn  Zn142  1  0.43867666  0.94103894  0.68620805  1
  Zn  Zn143  1  0.94049031  0.43718938  0.18969442  1
  Zn  Zn144  1  0.93935554  0.44198071  0.68745622  1
  Zn  Zn145  1  0.93658080  0.93592277  0.18604518  1
  Zn  Zn146  1  0.93687050  0.81025098  0.69272494  1
  Zn  Zn147  1  0.06198670  0.06314594  0.30790544  1
  Zn  Zn148  1  0.05897357  0.06167406  0.81343845  1
  Zn  Zn149  1  0.06165726  0.56178903  0.31108032  1
  Zn  Zn150  1  0.06188945  0.56421889  0.81016391  1
  Zn  Zn151  1  0.56505501  0.05930927  0.31625345  1
  Zn  Zn152  1  0.56252262  0.06930526  0.81230111  1
  Zn  Zn153  1  0.59074819  0.52306439  0.33489039  1
  Zn  Zn154  1  0.55903655  0.55808965  0.81558793  1
  Zn  Zn155  1  0.43894021  0.18503299  0.43637764  1
  Zn  Zn156  1  0.41854060  0.23687268  0.90998001  1
  Zn  Zn157  1  0.44089739  0.68996011  0.43901079  1
  Zn  Zn158  1  0.43104885  0.69096568  0.93091217  1
  Zn  Zn159  1  0.93429832  0.18334622  0.43690780  1
  Zn  Zn160  1  0.93801425  0.18407709  0.93776779  1
  Zn  Zn161  1  0.93633143  0.68855588  0.43904629  1
  Zn  Zn162  1  0.93426028  0.69041000  0.93621609  1
  Zn  Zn163  1  0.06163746  0.31388433  0.06814147  1
  Zn  Zn164  1  0.06125445  0.30951393  0.56531730  1
  Zn  Zn165  1  0.06213122  0.81017757  0.05865339  1
  Zn  Zn166  1  0.06692336  0.81372170  0.55988352  1
  Zn  Zn167  1  0.56986723  0.31425437  0.07016992  1
  Zn  Zn168  1  0.56060157  0.31367193  0.56110059  1
  Zn  Zn169  1  0.56072267  0.81665226  0.06194587  1
  Zn  Zn170  1  0.56549790  0.81106221  0.56709529  1
  O  O171  1  0.11854001  0.11746109  0.12002370  1
  O  O172  1  0.11948110  0.11859929  0.62098767  1
  O  O173  1  0.12482426  0.61719927  0.11402390  1
  O  O174  1  0.11979028  0.62027442  0.61846147  1
  O  O175  1  0.64140688  0.11072092  0.11273123  1
  O  O176  1  0.63050553  0.11850660  0.61541383  1
  O  O177  1  0.62665827  0.62617792  0.10754130  1
  O  O178  1  0.61348381  0.62911387  0.62242499  1
  O  O179  1  0.36880348  0.37868940  0.38664334  1
  O  O180  1  0.37850009  0.34498074  0.88248882  1
  O  O181  1  0.38078198  0.87906004  0.38334444  1
  O  O182  1  0.37963942  0.87591326  0.88511786  1
  O  O183  1  0.87605281  0.39038513  0.37020357  1
  O  O184  1  0.87948043  0.38310210  0.87954939  1
  O  O185  1  0.88329961  0.88358251  0.37213925  1
  O  O186  1  0.88732623  0.88752268  0.87463070  1
  O  O187  1  0.25444702  0.00409733  0.37076112  1
  O  O188  1  0.24576849  0.02038457  0.87108127  1
  O  O189  1  0.25561144  0.51393703  0.37074477  1
  O  O190  1  0.24799551  0.50931382  0.87699284  1
  O  O191  1  0.75887865  -0.00441015  0.37059834  1
  O  O192  1  0.75549596  0.00513076  0.87003305  1
  O  O193  1  0.77164607  0.51213283  0.38648006  1
  O  O194  1  0.75673368  0.50908205  0.87865321  1
  O  O195  1  0.23693958  0.49646036  0.12212903  1
  O  O196  1  0.23363040  0.49593434  0.61758974  1
  O  O197  1  0.24082792  0.99282562  0.12844685  1
  O  O198  1  0.23939474  0.99337238  0.62565074  1
  O  O199  1  0.73253271  0.50733661  0.10956633  1
  O  O200  1  0.75096908  0.48939987  0.62855392  1
  O  O201  1  0.74583400  0.99196167  0.13125927  1
  O  O202  1  0.74741535  0.99397242  0.63211065  1
  O  O203  1  0.01115616  0.36387121  0.24421356  1
  O  O204  1  0.00602329  0.37001906  0.75509392  1
  O  O205  1  0.00704906  0.86807421  0.25445491  1
  O  O206  1  0.01089616  0.87426597  0.75720893  1
  O  O207  1  0.51861182  0.36951726  0.25835081  1
  O  O208  1  0.49808724  0.36068581  0.74208353  1
  O  O209  1  0.50695664  0.87258585  0.25781724  1
  O  O210  1  0.49921202  0.88440612  0.76504411  1
  O  O211  1  0.48353470  0.11726526  0.25940378  1
  O  O212  1  0.49181884  0.13307032  0.74497698  1
  O  O213  1  0.50556524  0.64506431  0.25481896  1
  O  O214  1  0.48177102  0.62308048  0.74680120  1
  O  O215  1  0.99995155  0.13227135  0.23737450  1
  O  O216  1  1.00557504  0.13288704  0.73866510  1
  O  O217  1  0.99289310  0.63288128  0.24705615  1
  O  O218  1  1.00086656  0.62247616  0.73103121  1
  O  O219  1  0.37536524  0.24454485  0.01133578  1
  O  O220  1  0.36996641  0.25599450  0.50747260  1
  O  O221  1  0.36568786  0.76096313  -0.00108627  1
  O  O222  1  0.37005419  0.75492481  0.51045384  1
  O  O223  1  0.87287231  0.25565556  0.00558601  1
  O  O224  1  0.88234626  0.25038724  0.51266549  1
  O  O225  1  0.86209221  0.74464145  0.00994841  1
  O  O226  1  0.87349272  0.75694963  0.49822248  1
  O  O227  1  0.12994448  0.24291844  0.49858600  1
  O  O228  1  0.11851871  0.23800052  1.00149286  1
  O  O229  1  0.13287169  0.74354745  0.49313673  1
  O  O230  1  0.13191362  0.73615680  1.00261781  1
  O  O231  1  0.62057754  0.23637045  0.50158791  1
  O  O232  1  0.63342655  0.24481657  0.99156040  1
  O  O233  1  0.62777940  0.73768970  0.50294039  1
  O  O234  1  0.62647409  0.74365888  0.99534178  1
  O  O235  1  0.52497334  0.23862186  0.13844061  1
  O  O236  1  0.49348732  0.24763657  0.63074255  1
  O  O237  1  0.49695864  0.75845203  0.13816434  1
  O  O238  1  0.48959304  0.73997002  0.62422412  1
  O  O239  1  0.99016919  0.24286102  0.13147888  1
  O  O240  1  0.99116224  0.24209075  0.62894616  1
  O  O241  1  0.99166046  0.74902311  0.12845051  1
  O  O242  1  1.00324696  0.74014535  0.62232156  1
  O  O243  1  0.00030306  0.23974770  0.36101825  1
  O  O244  1  -0.00011543  0.25409223  0.86675938  1
  O  O245  1  0.00923164  0.75390494  0.36763303  1
  O  O246  1  -0.00272149  0.76660544  0.88000771  1
  O  O247  1  0.49326336  0.25070216  0.36833914  1
  O  O248  1  0.51692498  0.24363009  0.85465260  1
  O  O249  1  0.49509140  0.76307198  0.36575834  1
  O  O250  1  0.50542906  0.76419162  0.88180727  1
  O  O251  1  0.24528609  0.12860936  0.49361355  1
  O  O252  1  0.24240726  0.12413968  0.98876489  1
  O  O253  1  0.24010256  0.62854781  0.49319706  1
  O  O254  1  0.24469881  0.62966895  0.98407394  1
  O  O255  1  0.74371657  0.11766489  0.48596265  1
  O  O256  1  0.74326794  0.13122479  0.98827259  1
  O  O257  1  0.74431968  0.62668435  0.49757528  1
  O  O258  1  0.73953011  0.63701181  0.98956108  1
  O  O259  1  0.24410096  0.37264102  0.01757697  1
  O  O260  1  0.25475785  0.37105102  0.50543299  1
  O  O261  1  0.25312404  0.87149867  -0.00253275  1
  O  O262  1  0.25499149  0.86871583  0.50822107  1
  O  O263  1  0.75987807  0.36918851  0.00475431  1
  O  O264  1  0.75895085  0.37684060  0.51999035  1
  O  O265  1  0.74092393  0.86248389  0.00537042  1
  O  O266  1  0.74993111  0.87369710  0.51822820  1
  O  O267  1  0.12391579  0.49407344  0.24023870  1
  O  O268  1  0.11658303  0.49051098  0.73895933  1
  O  O269  1  0.13080267  0.99385074  0.24055016  1
  O  O270  1  0.12308866  0.99548025  0.73963349  1
  O  O271  1  0.62298453  0.52459601  0.22597152  1
  O  O272  1  0.62542553  0.50602930  0.74621627  1
  O  O273  1  0.62837497  0.99219076  0.24184154  1
  O  O274  1  0.63068246  1.00415121  0.73822391  1
  O  O275  1  0.36805096  0.00222161  0.25650556  1
  O  O276  1  0.37351740  0.01732379  0.74150448  1
  O  O277  1  0.38433486  0.49866557  0.24542424  1
  O  O278  1  0.37002640  0.50896920  0.74578383  1
  O  O279  1  0.86939052  -0.00010142  0.25751112  1
  O  O280  1  0.86366693  0.00105909  0.76273617  1
  O  O281  1  0.88781877  0.50971236  0.26351965  1
  O  O282  1  0.87661408  0.50586793  0.76349340  1
  O  O283  1  0.13319010  0.37712345  0.36073024  1
  O  O284  1  0.11874802  0.37352253  0.86738504  1
  O  O285  1  0.12228648  0.86953092  0.36815266  1
  O  O286  1  0.11206403  0.88497877  0.86288437  1
  O  O287  1  0.62245698  0.41501794  0.37004634  1
  O  O288  1  0.63909102  0.36302706  0.87787785  1
  O  O289  1  0.61722627  0.88074416  0.36620031  1
  O  O290  1  0.61506195  0.86873183  0.87478905  1
  O  O291  1  0.37331905  0.11495905  0.14188677  1
  O  O292  1  0.37455704  0.13686429  0.62825572  1
  O  O293  1  0.36274254  0.62902503  0.12344533  1
  O  O294  1  0.37458434  0.63172806  0.63815934  1
  O  O295  1  0.88141470  0.13019323  0.12497879  1
  O  O296  1  0.88357813  0.13013900  0.61948040  1
  O  O297  1  0.87541062  0.63429787  0.13213230  1
  O  O298  1  0.89018552  0.61996157  0.62384819  1
  O  O299  1  0.24290817  0.25742478  0.13016605  1
  O  O300  1  0.25603514  0.25583878  0.61965833  1
  O  O301  1  0.24891926  0.75980247  0.10990748  1
  O  O302  1  0.25577904  0.75557258  0.62096338  1
  O  O303  1  0.76522602  0.24517790  0.11778867  1
  O  O304  1  0.76694444  0.25947764  0.62816718  1
  O  O305  1  0.75418768  0.75345751  0.11949808  1
  O  O306  1  0.74337516  0.76347467  0.63012422  1
  O  O307  1  0.24718885  0.24055888  0.38127528  1
  O  O308  1  0.23747126  0.23053067  0.86411830  1
  O  O309  1  0.24583653  0.74163164  0.37825486  1
  O  O310  1  0.24923758  0.74459134  0.88342830  1
  O  O311  1  0.76451091  0.23376747  0.37773655  1
  O  O312  1  0.74932175  0.24210980  0.87522026  1
  O  O313  1  0.75325581  0.73521359  0.37687288  1
  O  O314  1  0.73920484  0.74756944  0.88354565  1
  O  O315  1  0.00649044  0.12634893  0.01315182  1
  O  O316  1  0.00610135  0.11845548  0.50582891  1
  O  O317  1  0.00811941  0.62125911  -0.00162215  1
  O  O318  1  0.01193026  0.62343366  0.50785803  1
  O  O319  1  0.51370495  0.12011422  0.00146976  1
  O  O320  1  0.50850345  0.11461129  0.50095370  1
  O  O321  1  0.50658281  0.63096430  -0.00224821  1
  O  O322  1  0.50467681  0.62446831  0.51034931  1
  O  O323  1  0.49258834  0.38512338  0.49847492  1
  O  O324  1  0.50574619  0.38147511  1.00080670  1
  O  O325  1  0.49822598  0.87754430  0.49470646  1
  O  O326  1  0.49160079  0.88439124  0.99278749  1
  O  O327  1  1.00911209  0.38893513  0.49889820  1
  O  O328  1  0.99579712  0.38050258  0.99355906  1
  O  O329  1  1.00456206  0.88334745  0.49189593  1
  O  O330  1  1.00880572  0.87928379  0.98538946  1
  O  O331  1  0.49152358  0.51437940  0.39475334  1
  O  O332  1  0.49964596  0.50479942  0.89645869  1
  O  O333  1  0.49512761  0.98869049  0.38222228  1
  O  O334  1  0.50800179  0.99599860  0.88864135  1
  O  O335  1  0.99427580  0.50610241  0.38785100  1
  O  O336  1  0.99320118  0.49689041  0.88018419  1
  O  O337  1  0.99400135  0.99707505  0.37827890  1
  O  O338  1  0.98651094  0.99736775  0.87523634  1
  O  O339  1  0.00816906  0.00722779  0.13103956  1
  O  O340  1  0.00780387  0.00887047  0.61675995  1
  O  O341  1  0.01043590  0.50083767  0.11665110  1
  O  O342  1  0.00739636  0.50811856  0.61208460  1
  O  O343  1  0.51198870  -0.00609125  0.11400643  1
  O  O344  1  0.51090237  0.00151679  0.61877572  1
  O  O345  1  0.50895885  0.50118558  0.11400945  1
  O  O346  1  0.49394227  0.51508880  0.61750024  1
  O  O347  1  0.24379424  0.37803235  0.23903437  1
  O  O348  1  0.23398993  0.37003548  0.74097437  1
  O  O349  1  0.24537380  0.87775784  0.24250931  1
  O  O350  1  0.23818885  0.88103256  0.74740807  1
  O  O351  1  0.75139177  0.38384110  0.24383230  1
  O  O352  1  0.76223466  0.37749401  0.72994575  1
  O  O353  1  0.74231784  0.87736018  0.24629301  1
  O  O354  1  0.74488006  0.88499829  0.74284216  1
  O  O355  1  0.25421321  0.11689718  0.25790717  1
  O  O356  1  0.25818570  0.12334534  0.75461751  1
  O  O357  1  0.24426848  0.62390296  0.26242572  1
  O  O358  1  0.25634988  0.62564106  0.76083380  1
  O  O359  1  0.75314251  0.11386847  0.26335288  1
  O  O360  1  0.74609709  0.11865434  0.76194106  1
  O  O361  1  0.76291510  0.62824188  0.25748930  1
  O  O362  1  0.75097938  0.62342790  0.76548599  1
  O  O363  1  0.36238006  0.11569637  0.37089056  1
  O  O364  1  0.36428241  0.13427916  0.86578296  1
  O  O365  1  0.35974228  0.62893154  0.38102358  1
  O  O366  1  0.36265376  0.62667608  0.86191231  1
  O  O367  1  0.86580643  0.11076287  0.37552654  1
  O  O368  1  0.86736368  0.11260744  0.87985768  1
  O  O369  1  0.87368391  0.62009416  0.36642614  1
  O  O370  1  0.86498521  0.61804663  0.87806585  1
  O  O371  1  0.13136968  0.38101882  0.13354432  1
  O  O372  1  0.12574975  0.38313717  0.63082763  1
  O  O373  1  0.12907969  0.88115220  0.12642595  1
  O  O374  1  0.12586307  0.88245133  0.63566612  1
  O  O375  1  0.63225195  0.39545982  0.12407119  1
  O  O376  1  0.63682571  0.37510025  0.62123332  1
  O  O377  1  0.63128607  0.88402795  0.13096857  1
  O  O378  1  0.63265156  0.88321938  0.62963579  1
  O  O379  1  0.11654116  0.25769241  0.25351996  1
  O  O380  1  0.11076146  0.26011314  0.74575328  1
  O  O381  1  0.12162375  0.75453100  0.25054274  1
  O  O382  1  0.12760549  0.76482646  0.74781475  1
  O  O383  1  0.63950469  0.24686527  0.26569200  1
  O  O384  1  0.61682238  0.24767967  0.75093714  1
  O  O385  1  0.61657105  0.76299488  0.24380571  1
  O  O386  1  0.62364724  0.75215627  0.76462718  1
  O  O387  1  0.37127538  0.23038506  0.25137798  1
  O  O388  1  0.38347059  0.24317711  0.73921126  1
  O  O389  1  0.38901009  0.75755674  0.24500391  1
  O  O390  1  0.36806376  0.74767522  0.74208868  1
  O  O391  1  0.88213141  0.24689843  0.24165499  1
  O  O392  1  0.88854624  0.25195280  0.73931542  1
  O  O393  1  0.88160410  0.74219243  0.24375692  1
  O  O394  1  0.87127644  0.74824596  0.75669371  1
  O  O395  1  0.37963383  0.49101725  0.50325991  1
  O  O396  1  0.38679612  0.48635369  1.00376934  1
  O  O397  1  0.38207275  0.99277289  0.49786035  1
  O  O398  1  0.38471533  0.99581323  1.00337717  1
  O  O399  1  0.89189558  0.50384681  0.48923069  1
  O  O400  1  0.88061947  0.49806830  0.99170254  1
  O  O401  1  0.88294224  0.99244444  0.49215122  1
  O  O402  1  0.86840454  0.99884007  0.98842528  1
  O  O403  1  0.12825808  0.01007430  0.01188437  1
  O  O404  1  0.12138047  0.00401883  0.51002083  1
  O  O405  1  0.11967930  0.50925620  0.00410533  1
  O  O406  1  0.11692381  0.50810405  0.50239577  1
  O  O407  1  0.62033111  0.00736689  0.00575146  1
  O  O408  1  0.62201687  0.00414558  0.51170128  1
  O  O409  1  0.61384105  0.51469124  0.00451827  1
  O  O410  1  0.61559070  0.51315139  0.51287269  1
  O  O411  1  0.35851106  0.37042023  0.12589023  1
  O  O412  1  0.36991344  0.36645428  0.61650196  1
  O  O413  1  0.36706173  0.87612869  0.11114296  1
  O  O414  1  0.37064502  0.86890069  0.62342191  1
  O  O415  1  0.87792842  0.36813907  0.11788376  1
  O  O416  1  0.88216593  0.36614365  0.62187310  1
  O  O417  1  0.86784633  0.86095367  0.13091962  1
  O  O418  1  0.86149098  0.87701433  0.62918095  1
  O  O419  1  0.13635675  0.12097452  0.37955855  1
  O  O420  1  0.12618535  0.12436490  0.88570092  1
  O  O421  1  0.13274317  0.62887916  0.38140038  1
  O  O422  1  0.13632915  0.62160895  0.87785205  1
  O  O423  1  0.64051489  0.11561197  0.38303974  1
  O  O424  1  0.63447165  0.13158142  0.88277292  1
  O  O425  1  0.63945542  0.61499964  0.38658136  1
  O  O426  1  0.62739752  0.63388736  0.88521103  1
