# generated using pymatgen
data_V85Zn86O256
_symmetry_space_group_name_H-M   'P 1'
_cell_length_a   16.94478992
_cell_length_b   16.93458041
_cell_length_c   16.94696104
_cell_angle_alpha   90.01594968
_cell_angle_beta   89.92939522
_cell_angle_gamma   90.05220246
_symmetry_Int_Tables_number   1
_chemical_formula_structural   V85Zn86O256
_chemical_formula_sum   'V85 Zn86 O256'
_cell_volume   4862.97384385
_cell_formula_units_Z   1
loop_
 _symmetry_equiv_pos_site_id
 _symmetry_equiv_pos_as_xyz
  1  'x, y, z'
loop_
 _atom_site_type_symbol
 _atom_site_label
 _atom_site_symmetry_multiplicity
 _atom_site_fract_x
 _atom_site_fract_y
 _atom_site_fract_z
 _atom_site_occupancy
  V  V0  1  0.62866726  0.12554973  0.49930495  1
  V  V1  1  0.74467787  0.12257692  0.87234838  1
  V  V2  1  0.87516015  0.86873542  0.50771680  1
  V  V3  1  -0.00553574  0.62803128  0.62438467  1
  V  V4  1  0.75016710  0.86137161  0.62761333  1
  V  V5  1  0.37233275  0.37291593  0.50227836  1
  V  V6  1  0.62685003  0.50388289  0.11984082  1
  V  V7  1  0.49786191  0.00010779  0.50188188  1
  V  V8  1  0.23607438  0.01134209  0.76416027  1
  V  V9  1  0.50471269  0.37540500  0.87587777  1
  V  V10  1  0.18814666  -0.05060642  0.18895527  1
  V  V11  1  0.87092554  0.25677054  0.62675259  1
  V  V12  1  0.86645658  0.50458507  0.37383953  1
  V  V13  1  0.74616825  0.61966862  0.87495511  1
  V  V14  1  0.37548438  0.24750330  0.62631661  1
  V  V15  1  0.86725666  0.62798347  0.25187828  1
  V  V16  1  0.50319082  0.62815343  0.12430028  1
  V  V17  1  0.25277505  0.37540147  0.12697761  1
  V  V18  1  0.87189604  0.37601238  0.50083952  1
  V  V19  1  0.87169024  0.25617219  0.11818525  1
  V  V20  1  0.62769041  0.37392630  0.24583678  1
  V  V21  1  0.62835373  -0.00429475  0.13955777  1
  V  V22  1  0.37864941  0.24308900  0.12944005  1
  V  V23  1  0.62290607  0.74419811  0.87992789  1
  V  V24  1  0.24963695  0.50323201  0.25297691  1
  V  V25  1  0.00281645  0.75248633  0.24767958  1
  V  V26  1  0.00424187  0.87299152  0.37876894  1
  V  V27  1  0.87350014  -0.00189882  0.87216432  1
  V  V28  1  0.13062498  0.49694416  0.63036402  1
  V  V29  1  0.74236303  0.25507416  -0.00539206  1
  V  V30  1  0.50169876  0.37387818  0.37494463  1
  V  V31  1  0.00027523  0.24254933  0.24538158  1
  V  V32  1  0.12481187  0.37367101  0.25149940  1
  V  V33  1  0.00367839  0.11945211  0.09448341  1
  V  V34  1  0.62686904  0.24950493  0.37205836  1
  V  V35  1  -0.00229271  0.37380848  0.37314530  1
  V  V36  1  0.86921665  0.12219249  0.74608700  1
  V  V37  1  0.74613017  0.74642558  0.00266809  1
  V  V38  1  0.12998939  0.75316919  0.37442776  1
  V  V39  1  0.36805458  0.62540379  0.74815100  1
  V  V40  1  0.25576402  0.87179666  0.63123614  1
  V  V41  1  -0.00359286  0.00122792  0.49817849  1
  V  V42  1  0.50045288  0.50009527  0.50296312  1
  V  V43  1  0.36758957  0.01141350  0.36318540  1
  V  V44  1  0.37698160  0.86929677  0.50531247  1
  V  V45  1  0.50640413  0.12473782  0.62635161  1
  V  V46  1  -0.00069092  0.49991662  0.49846083  1
  V  V47  1  0.75153602  0.25408239  0.49981774  1
  V  V48  1  -0.00902445  0.75015259  0.75023600  1
  V  V49  1  0.37418277  0.50078310  0.37615024  1
  V  V50  1  0.49940461  0.50741938  -0.00104785  1
  V  V51  1  0.37730325  0.00190862  0.88638391  1
  V  V52  1  0.63544299  0.37842405  0.74792986  1
  V  V53  1  0.63657577  0.49928823  0.62810001  1
  V  V54  1  0.37184009  0.75367871  0.12830542  1
  V  V55  1  0.63005405  0.87736455  0.75316063  1
  V  V56  1  0.87695642  0.87635133  -0.00610143  1
  V  V57  1  0.00782157  0.26025804  0.75165198  1
  V  V58  1  0.50268069  0.88051998  0.87999664  1
  V  V59  1  0.62602837  0.62791568  0.48845862  1
  V  V60  1  0.12235131  0.74920686  0.87521945  1
  V  V61  1  0.87792153  0.75583631  0.12241052  1
  V  V62  1  0.50529221  0.87384933  0.37654407  1
  V  V63  1  0.12384752  0.00013277  0.62287545  1
  V  V64  1  0.24083845  0.24681816  -0.00349255  1
  V  V65  1  0.86718800  0.61977811  0.74793828  1
  V  V66  1  0.37807029  0.87564871  0.00615749  1
  V  V67  1  -0.00373846  0.49147726  0.00402519  1
  V  V68  1  0.25028890  0.23763313  0.50072079  1
  V  V69  1  0.38164999  0.12134715  0.75542916  1
  V  V70  1  0.12776957  0.62500925  0.49850391  1
  V  V71  1  0.11783037  0.87091298  0.74919415  1
  V  V72  1  0.61817209  0.11438688  -0.00213007  1
  V  V73  1  0.74910114  0.74494397  0.48449796  1
  V  V74  1  0.63466675  -0.00073544  0.62913195  1
  V  V75  1  0.49670185  0.62772462  0.62512864  1
  V  V76  1  0.50732336  0.25242818  0.75573711  1
  V  V77  1  0.75242504  0.11831575  0.36697363  1
  V  V78  1  0.50821420  0.75107448  0.25528870  1
  V  V79  1  0.12277320  0.62764077  0.00356716  1
  V  V80  1  0.13023622  0.24544985  0.37424265  1
  V  V81  1  0.87711853  0.11586921  0.24476902  1
  V  V82  1  0.36717895  0.50025175  0.87188824  1
  V  V83  1  0.49224225  0.75229913  0.74826333  1
  V  V84  1  0.87299113  0.49309426  0.87814602  1
  Zn  Zn85  1  0.37536379  0.62895800  0.25269369  1
  Zn  Zn86  1  0.25504578  0.75130593  0.50360890  1
  Zn  Zn87  1  0.87146756  -0.00576540  0.37045172  1
  Zn  Zn88  1  0.74729682  0.50434859  0.24998820  1
  Zn  Zn89  1  0.75753085  0.88465960  0.13639207  1
  Zn  Zn90  1  -0.00198855  0.12835680  0.62251053  1
  Zn  Zn91  1  0.00677401  0.37445235  0.87578900  1
  Zn  Zn92  1  0.12298283  0.50443930  0.12978032  1
  Zn  Zn93  1  0.25428680  0.63108989  0.37634734  1
  Zn  Zn94  1  0.17308425  0.41048021  0.78373633  1
  Zn  Zn95  1  0.24668841  0.62217044  0.87231768  1
  Zn  Zn96  1  0.12619953  0.12082916  0.49767341  1
  Zn  Zn97  1  0.75307008  0.38039034  0.11891211  1
  Zn  Zn98  1  0.03966308  0.93121752  0.92114526  1
  Zn  Zn99  1  0.49854931  0.11397119  0.12900275  1
  Zn  Zn100  1  0.49457058  0.24337133  0.25254313  1
  Zn  Zn101  1  0.37710654  0.37502158  0.00119603  1
  Zn  Zn102  1  0.24985433  0.74836417  0.00300212  1
  Zn  Zn103  1  0.24233967  0.12630050  0.88897814  1
  Zn  Zn104  1  0.24547141  0.37036007  0.62862963  1
  Zn  Zn105  1  0.63918913  0.87211204  0.26463770  1
  Zn  Zn106  1  0.00013167  0.62684997  0.12510829  1
  Zn  Zn107  1  0.19118855  0.17473297  0.17505915  1
  Zn  Zn108  1  0.18555388  0.18048089  0.69878614  1
  Zn  Zn109  1  0.18699193  0.69221585  0.18893004  1
  Zn  Zn110  1  0.18499695  0.68761794  0.68508686  1
  Zn  Zn111  1  0.68677370  0.18417032  0.18386266  1
  Zn  Zn112  1  0.69028997  0.19299343  0.68752163  1
  Zn  Zn113  1  0.68807769  0.69019001  0.18741784  1
  Zn  Zn114  1  0.68190619  0.68612299  0.68963176  1
  Zn  Zn115  1  0.31142507  0.31118342  0.31359139  1
  Zn  Zn116  1  0.31933554  0.31009445  0.81469719  1
  Zn  Zn117  1  0.31479571  0.82598728  0.31009391  1
  Zn  Zn118  1  0.30846472  0.81732099  0.81750338  1
  Zn  Zn119  1  0.81244434  0.31039815  0.30845449  1
  Zn  Zn120  1  0.81311511  0.31015531  0.81503190  1
  Zn  Zn121  1  0.81902492  0.81601817  0.31274825  1
  Zn  Zn122  1  0.81056960  0.80852219  0.81282917  1
  Zn  Zn123  1  0.18834801  0.43357879  0.44006971  1
  Zn  Zn124  1  0.18535327  0.43802027  0.95149737  1
  Zn  Zn125  1  0.19159720  0.93712900  0.43764779  1
  Zn  Zn126  1  0.20938293  0.95656671  0.98509841  1
  Zn  Zn127  1  0.68648985  0.43906037  0.43826287  1
  Zn  Zn128  1  0.68429195  0.43959325  0.93689104  1
  Zn  Zn129  1  0.68875717  0.93776302  0.44170297  1
  Zn  Zn130  1  0.69480283  0.93802017  0.93919478  1
  Zn  Zn131  1  0.31063916  0.06450105  0.07369033  1
  Zn  Zn132  1  0.31412606  0.05830258  0.56929481  1
  Zn  Zn133  1  0.31331276  0.56576554  0.06315351  1
  Zn  Zn134  1  0.31233740  0.56488813  0.56304273  1
  Zn  Zn135  1  0.81310783  0.06371356  0.05977683  1
  Zn  Zn136  1  0.81257448  0.06229171  0.56117150  1
  Zn  Zn137  1  0.81328784  0.56815443  0.06174288  1
  Zn  Zn138  1  0.81250673  0.56691643  0.55987394  1
  Zn  Zn139  1  0.43841639  0.43602620  0.18888543  1
  Zn  Zn140  1  0.43660193  0.43838877  0.68880517  1
  Zn  Zn141  1  0.44623081  0.93936337  0.18923700  1
  Zn  Zn142  1  0.43823140  0.94021482  0.69324193  1
  Zn  Zn143  1  0.93683890  0.43719721  0.18758560  1
  Zn  Zn144  1  0.93344509  0.44131710  0.68577329  1
  Zn  Zn145  1  0.98870824  0.95760542  0.20402138  1
  Zn  Zn146  1  0.93469157  0.93914080  0.68699674  1
  Zn  Zn147  1  0.11523395  0.07556815  0.28815112  1
  Zn  Zn148  1  0.05716334  0.07185792  0.80477153  1
  Zn  Zn149  1  0.05897629  0.56577873  0.31288920  1
  Zn  Zn150  1  0.05685644  0.56399914  0.81586718  1
  Zn  Zn151  1  0.55679016  0.06366073  0.31246920  1
  Zn  Zn152  1  0.56623768  0.06056783  0.81557354  1
  Zn  Zn153  1  0.56005026  0.56055612  0.30834684  1
  Zn  Zn154  1  0.55981520  0.56221555  0.81009886  1
  Zn  Zn155  1  0.43927584  0.18606099  0.43672775  1
  Zn  Zn156  1  0.43638313  0.19266215  0.94256587  1
  Zn  Zn157  1  0.43864588  0.68879728  0.43712394  1
  Zn  Zn158  1  0.43712915  0.68754898  0.93733789  1
  Zn  Zn159  1  0.93858024  0.18523612  0.43386621  1
  Zn  Zn160  1  0.92787540  0.19495236  0.92995836  1
  Zn  Zn161  1  0.93525975  0.68859658  0.43809702  1
  Zn  Zn162  1  0.93742079  0.68504659  0.93631114  1
  Zn  Zn163  1  0.06369030  0.31204547  0.06531425  1
  Zn  Zn164  1  0.06035065  0.31240623  0.56264360  1
  Zn  Zn165  1  0.07504158  0.83620014  0.05984710  1
  Zn  Zn166  1  0.06436359  0.80990832  0.56453148  1
  Zn  Zn167  1  0.56425942  0.31301247  0.05956096  1
  Zn  Zn168  1  0.56386516  0.31453367  0.56482471  1
  Zn  Zn169  1  0.56346458  0.81678028  0.06507026  1
  Zn  Zn170  1  0.56543098  0.81008801  0.56249905  1
  O  O171  1  0.10051483  0.13625217  0.11324799  1
  O  O172  1  0.12204697  0.11001846  0.62505946  1
  O  O173  1  0.12175788  0.62759722  0.11819349  1
  O  O174  1  0.11941006  0.61759131  0.61469778  1
  O  O175  1  0.62780911  0.11267794  0.11350523  1
  O  O176  1  0.62633173  0.11770732  0.62108312  1
  O  O177  1  0.61232622  0.61866675  0.12992126  1
  O  O178  1  0.61567110  0.61556737  0.62101969  1
  O  O179  1  0.37988363  0.37846486  0.38563725  1
  O  O180  1  0.38872236  0.38457064  0.87631510  1
  O  O181  1  0.38672773  0.88499739  0.38742748  1
  O  O182  1  0.38610966  0.88265417  0.87851946  1
  O  O183  1  0.87948591  0.38066763  0.37867256  1
  O  O184  1  0.87319760  0.39059971  0.87122183  1
  O  O185  1  0.88539579  0.87375485  0.39038046  1
  O  O186  1  0.86458582  0.88711977  0.87617345  1
  O  O187  1  0.26870552  -0.00080573  0.38357663  1
  O  O188  1  0.26072784  0.00303002  0.88295944  1
  O  O189  1  0.25626740  0.49941305  0.36982665  1
  O  O190  1  0.26341763  0.49955905  0.88002108  1
  O  O191  1  0.75319027  0.01424940  0.38446312  1
  O  O192  1  0.75736405  0.01310791  0.87388510  1
  O  O193  1  0.76274203  0.49762928  0.37384772  1
  O  O194  1  0.75437120  0.51273937  0.88265856  1
  O  O195  1  0.25098587  0.49307564  0.13486257  1
  O  O196  1  0.23311072  0.50024024  0.61764277  1
  O  O197  1  0.24138117  0.98215187  0.09932300  1
  O  O198  1  0.24006532  0.99268295  0.63508882  1
  O  O199  1  0.74134958  0.50111040  0.12449224  1
  O  O200  1  0.73513868  0.50500750  0.62085086  1
  O  O201  1  0.73478815  1.00002397  0.11631125  1
  O  O202  1  0.73799533  0.98798045  0.61519775  1
  O  O203  1  0.00531420  0.36452691  0.25247028  1
  O  O204  1  -0.00764360  0.36368834  0.74738668  1
  O  O205  1  -0.01213755  0.85944686  0.26600790  1
  O  O206  1  0.00336523  0.86056444  0.73704132  1
  O  O207  1  0.51114961  0.37236621  0.25690511  1
  O  O208  1  0.50530129  0.36884219  0.75592491  1
  O  O209  1  0.50694102  0.86863402  0.26197304  1
  O  O210  1  0.50762510  0.86892293  0.75788308  1
  O  O211  1  0.50953269  0.13265214  0.24120313  1
  O  O212  1  0.49862949  0.13098834  0.74836061  1
  O  O213  1  0.49672675  0.63250545  0.24363767  1
  O  O214  1  0.49296579  0.63399049  0.74361795  1
  O  O215  1  0.99783109  0.13767706  0.24887855  1
  O  O216  1  0.98627860  0.14115735  0.74349100  1
  O  O217  1  0.99116806  0.63730651  0.24961821  1
  O  O218  1  0.99126736  0.62967517  0.74176057  1
  O  O219  1  0.36762840  0.25573885  0.01358719  1
  O  O220  1  0.36986447  0.25456661  0.50385306  1
  O  O221  1  0.37961636  0.75493519  0.01068305  1
  O  O222  1  0.37672972  0.76503712  0.50025070  1
  O  O223  1  0.85762007  0.24687888  0.00692693  1
  O  O224  1  0.86937768  0.25437869  0.50394586  1
  O  O225  1  0.86605261  0.74917518  0.00492184  1
  O  O226  1  0.86090075  0.75400515  0.50104718  1
  O  O227  1  0.13300223  0.24865040  0.49452834  1
  O  O228  1  0.14212952  0.25834945  1.00157116  1
  O  O229  1  0.12720571  0.74184198  0.49213143  1
  O  O230  1  0.12475795  0.74667377  0.99103149  1
  O  O231  1  0.63306646  0.24668434  0.49563169  1
  O  O232  1  0.63720553  0.23765809  1.00740708  1
  O  O233  1  0.63732275  0.74167132  0.50201732  1
  O  O234  1  0.62959859  0.75517527  0.98779072  1
  O  O235  1  0.48384304  0.25825552  0.12419193  1
  O  O236  1  0.49603049  0.24436617  0.63124353  1
  O  O237  1  0.49664777  0.74368498  0.13107417  1
  O  O238  1  0.50753493  0.74100596  0.63614745  1
  O  O239  1  0.98985256  0.24621384  0.12765321  1
  O  O240  1  0.98632783  0.25090603  0.62888120  1
  O  O241  1  0.99532196  0.75527132  0.13386745  1
  O  O242  1  1.00520480  0.73480698  0.63169109  1
  O  O243  1  0.00480548  0.25624078  0.36618733  1
  O  O244  1  -0.00731849  0.25579166  0.85668285  1
  O  O245  1  0.00704463  0.75509186  0.37258858  1
  O  O246  1  0.01050971  0.73955213  0.86179735  1
  O  O247  1  0.50855822  0.25761402  0.37623566  1
  O  O248  1  0.49688289  0.26168867  0.86791705  1
  O  O249  1  0.49549946  0.75986204  0.36740139  1
  O  O250  1  0.50702118  0.75548574  0.86888754  1
  O  O251  1  0.25018717  0.13421443  0.50667017  1
  O  O252  1  0.24930763  0.14066040  1.00481357  1
  O  O253  1  0.24213998  0.63100221  0.49929581  1
  O  O254  1  0.23763682  0.62756138  0.99865476  1
  O  O255  1  0.74713254  0.13554805  0.49314439  1
  O  O256  1  0.74108020  0.13205061  0.99130159  1
  O  O257  1  0.74258104  0.63769986  0.50248485  1
  O  O258  1  0.75044506  0.63761760  0.99027195  1
  O  O259  1  0.25468135  0.36851591  0.01273195  1
  O  O260  1  0.25897735  0.36494104  0.50510759  1
  O  O261  1  0.27620057  0.86175676  -0.01316606  1
  O  O262  1  0.26079690  0.87660625  0.51222862  1
  O  O263  1  0.74006683  0.35985322  -0.00097931  1
  O  O264  1  0.75434469  0.36138737  0.49166641  1
  O  O265  1  0.75814904  0.86048345  -0.00219038  1
  O  O266  1  0.75429909  0.86313323  0.50528851  1
  O  O267  1  0.13167393  0.49493680  0.25229951  1
  O  O268  1  0.12193422  0.50766502  0.73413044  1
  O  O269  1  0.09523302  0.97566882  0.24495641  1
  O  O270  1  0.11577735  0.98477414  0.73817085  1
  O  O271  1  0.62476470  0.49399832  0.23840449  1
  O  O272  1  0.62002517  0.49518341  0.73585487  1
  O  O273  1  0.62718455  0.99789578  0.24182859  1
  O  O274  1  0.62136724  0.98898946  0.74181390  1
  O  O275  1  0.38331655  -0.00234525  0.26459824  1
  O  O276  1  0.37025878  0.00528975  0.76578436  1
  O  O277  1  0.36788821  0.49922094  0.25930770  1
  O  O278  1  0.38501271  0.51294285  0.76006970  1
  O  O279  1  0.89045232  0.01375582  0.25141074  1
  O  O280  1  0.87369435  0.01508517  0.74976251  1
  O  O281  1  0.87474799  0.50891851  0.25676386  1
  O  O282  1  0.87813289  0.51243896  0.75926068  1
  O  O283  1  0.11865109  0.36566617  0.37151225  1
  O  O284  1  0.11969036  0.38998675  0.87549714  1
  O  O285  1  0.11368546  0.86581819  0.38721239  1
  O  O286  1  0.11650719  0.86520364  0.85564647  1
  O  O287  1  0.62078490  0.37178597  0.36794123  1
  O  O288  1  0.61209414  0.38700577  0.86355180  1
  O  O289  1  0.61054735  0.88091255  0.38166951  1
  O  O290  1  0.62177522  0.87103527  0.86927758  1
  O  O291  1  0.37967221  0.13862754  0.12316252  1
  O  O292  1  0.39140867  0.12695192  0.62861284  1
  O  O293  1  0.38729459  0.63220391  0.12815597  1
  O  O294  1  0.38787192  0.62062098  0.63099933  1
  O  O295  1  0.88041931  0.13607325  0.12834860  1
  O  O296  1  0.87206914  0.13347350  0.63061135  1
  O  O297  1  0.87847735  0.63814876  0.13196676  1
  O  O298  1  0.88291891  0.61887056  0.63339693  1
  O  O299  1  0.25810018  0.25498073  0.12125587  1
  O  O300  1  0.25803733  0.24828961  0.61877601  1
  O  O301  1  0.26818362  0.74486547  0.12697236  1
  O  O302  1  0.24521148  0.76743295  0.62672412  1
  O  O303  1  0.75520106  0.25038960  0.11369925  1
  O  O304  1  0.76119929  0.24880399  0.61407459  1
  O  O305  1  0.75702803  0.74965899  0.11583425  1
  O  O306  1  0.74285608  0.75913224  0.62002668  1
  O  O307  1  0.24145595  0.25489267  0.38527228  1
  O  O308  1  0.25936177  0.24833351  0.89203837  1
  O  O309  1  0.24394685  0.75423410  0.37608427  1
  O  O310  1  0.23377132  0.74652798  0.87086445  1
  O  O311  1  0.74612368  0.24051321  0.37986757  1
  O  O312  1  0.75332185  0.24112005  0.88817796  1
  O  O313  1  0.75156952  0.75062769  0.38637798  1
  O  O314  1  0.74086758  0.74101854  0.87990342  1
  O  O315  1  -0.00456400  0.13157207  -0.00511000  1
  O  O316  1  -0.00023363  0.11497068  0.50262336  1
  O  O317  1  0.01045979  0.62030706  0.00089299  1
  O  O318  1  0.00545488  0.62155269  0.50623412  1
  O  O319  1  0.51611624  0.13329051  0.00397465  1
  O  O320  1  0.50989573  0.11854783  0.50555207  1
  O  O321  1  0.49818955  0.61523955  0.00703484  1
  O  O322  1  0.50580300  0.62261535  0.50792076  1
  O  O323  1  0.49440277  0.37943350  0.49420055  1
  O  O324  1  0.50122275  0.38577441  0.99227805  1
  O  O325  1  0.49650867  0.88177574  0.50047172  1
  O  O326  1  0.49516380  0.86846805  0.98590347  1
  O  O327  1  0.99272714  0.38016583  0.49285983  1
  O  O328  1  1.00265533  0.38795566  1.00148874  1
  O  O329  1  0.99140605  0.87529398  0.50047966  1
  O  O330  1  0.97700946  0.85371945  0.98845714  1
  O  O331  1  0.49360598  0.49316444  0.38162418  1
  O  O332  1  0.49375894  0.49862772  0.88318066  1
  O  O333  1  0.49530850  0.99479455  0.38678312  1
  O  O334  1  0.49354923  0.98969023  0.87022941  1
  O  O335  1  0.99158012  0.49382521  0.37953901  1
  O  O336  1  0.98871856  0.50097117  0.88425774  1
  O  O337  1  0.99760007  0.98784865  0.39063050  1
  O  O338  1  0.98252387  1.00611725  0.86226408  1
  O  O339  1  -0.01329526  0.02047669  0.11069241  1
  O  O340  1  0.00547469  -0.00139297  0.61388804  1
  O  O341  1  -0.00025265  0.50409999  0.11882792  1
  O  O342  1  0.00721935  0.50953361  0.61807582  1
  O  O343  1  0.52075881  -0.00185183  0.12262682  1
  O  O344  1  0.51097952  0.00379804  0.62142516  1
  O  O345  1  0.50326597  0.50722005  0.11899363  1
  O  O346  1  0.50559552  0.50770645  0.61833590  1
  O  O347  1  0.24545787  0.38497899  0.24762369  1
  O  O348  1  0.26609905  0.37453957  0.74032107  1
  O  O349  1  0.25005623  0.89889554  0.25044160  1
  O  O350  1  0.23970701  0.88583690  0.74837874  1
  O  O351  1  0.73792597  0.37871261  0.24846861  1
  O  O352  1  0.73424932  0.36785562  0.75476996  1
  O  O353  1  0.75051806  0.87335223  0.24986723  1
  O  O354  1  0.73862551  0.86793133  0.74299638  1
  O  O355  1  0.20837259  0.07463155  0.22190610  1
  O  O356  1  0.28025314  0.12029217  0.72902120  1
  O  O357  1  0.25165635  0.61336652  0.25287728  1
  O  O358  1  0.26482318  0.63015483  0.74550521  1
  O  O359  1  0.76203598  0.12936924  0.25650821  1
  O  O360  1  0.75515330  0.13440270  0.76057680  1
  O  O361  1  0.76278163  0.62548353  0.24817755  1
  O  O362  1  0.75737650  0.63199999  0.75828154  1
  O  O363  1  0.38073620  0.11080941  0.37814323  1
  O  O364  1  0.37715874  0.11904112  0.87032241  1
  O  O365  1  0.37376030  0.61528018  0.37537438  1
  O  O366  1  0.37260671  0.61939983  0.86675702  1
  O  O367  1  0.86829790  0.12422751  0.36416273  1
  O  O368  1  0.86402653  0.12059128  0.86522318  1
  O  O369  1  0.88118189  0.61595508  0.36617826  1
  O  O370  1  0.86516955  0.61894127  0.86741876  1
  O  O371  1  0.13731275  0.37591053  0.13441381  1
  O  O372  1  0.12304291  0.39265034  0.61898135  1
  O  O373  1  0.14049000  0.86865701  0.14800613  1
  O  O374  1  0.13117699  0.88084181  0.63009498  1
  O  O375  1  0.62552768  0.38318056  0.13158908  1
  O  O376  1  0.62045260  0.39075680  0.63083465  1
  O  O377  1  0.63096254  0.88747876  0.12490355  1
  O  O378  1  0.63056209  0.87982306  0.63307314  1
  O  O379  1  0.12136251  0.25306192  0.25532882  1
  O  O380  1  0.10719708  0.25543296  0.73753065  1
  O  O381  1  0.11716666  0.74242339  0.26635821  1
  O  O382  1  0.11465165  0.75162097  0.75215693  1
  O  O383  1  0.62788918  0.25845504  0.25509592  1
  O  O384  1  0.61323617  0.25991791  0.74116442  1
  O  O385  1  0.61241386  0.75201568  0.24689363  1
  O  O386  1  0.61536418  0.75751149  0.75999157  1
  O  O387  1  0.37325527  0.25582648  0.23513427  1
  O  O388  1  0.38977682  0.24131157  0.74628213  1
  O  O389  1  0.38562357  0.75423822  0.24457963  1
  O  O390  1  0.38666296  0.74649099  0.75790368  1
  O  O391  1  0.88295677  0.24212579  0.24264987  1
  O  O392  1  0.87496220  0.24493576  0.74043256  1
  O  O393  1  0.88166122  0.74422261  0.24290192  1
  O  O394  1  0.88408248  0.73893179  0.75547663  1
  O  O395  1  0.37859760  0.49192828  0.49656579  1
  O  O396  1  0.38301914  0.49911003  0.99356090  1
  O  O397  1  0.38873394  0.99450161  0.50299189  1
  O  O398  1  0.37813501  0.99426310  0.99348523  1
  O  O399  1  0.87871940  0.49700594  0.49279567  1
  O  O400  1  0.88445638  0.50920606  0.99198575  1
  O  O401  1  0.88078303  0.98966126  0.50015653  1
  O  O402  1  0.86760242  0.98901979  0.98665014  1
  O  O403  1  0.10429587  -0.06136283  0.00897508  1
  O  O404  1  0.11787539  -0.00124050  0.50667833  1
  O  O405  1  0.11547653  0.51126452  0.00794408  1
  O  O406  1  0.11895315  0.50762129  0.50352053  1
  O  O407  1  0.62697020  0.01203136  -0.00171640  1
  O  O408  1  0.61583349  0.00419078  0.50858820  1
  O  O409  1  0.61617541  0.49810520  0.01249364  1
  O  O410  1  0.62037405  0.50519186  0.50968209  1
  O  O411  1  0.36396581  0.37061220  0.12670041  1
  O  O412  1  0.38135182  0.36846840  0.61239057  1
  O  O413  1  0.39048763  0.86710634  0.11604877  1
  O  O414  1  0.36751783  0.88465353  0.62060033  1
  O  O415  1  0.87023951  0.36096620  0.13203030  1
  O  O416  1  0.87534527  0.37044219  0.61350897  1
  O  O417  1  0.87272500  0.86278478  0.11329858  1
  O  O418  1  0.86438492  0.87754200  0.61618455  1
  O  O419  1  0.11888219  0.14082857  0.37943384  1
  O  O420  1  0.16352443  0.10656817  0.80924027  1
  O  O421  1  0.12593040  0.63065879  0.38656664  1
  O  O422  1  0.12696413  0.62979799  0.88215248  1
  O  O423  1  0.63317727  0.12943677  0.38036428  1
  O  O424  1  0.63079290  0.12297770  0.88586325  1
  O  O425  1  0.61945533  0.61559402  0.38960335  1
  O  O426  1  0.63128607  0.63344390  0.86753845  1
