# generated using pymatgen
data_V85Zn86O256
_symmetry_space_group_name_H-M   'P 1'
_cell_length_a   16.95551745
_cell_length_b   16.94504061
_cell_length_c   16.95389631
_cell_angle_alpha   89.96945936
_cell_angle_beta   90.00246597
_cell_angle_gamma   89.94545500
_symmetry_Int_Tables_number   1
_chemical_formula_structural   V85Zn86O256
_chemical_formula_sum   'V85 Zn86 O256'
_cell_volume   4871.05379270
_cell_formula_units_Z   1
loop_
 _symmetry_equiv_pos_site_id
 _symmetry_equiv_pos_as_xyz
  1  'x, y, z'
loop_
 _atom_site_type_symbol
 _atom_site_label
 _atom_site_symmetry_multiplicity
 _atom_site_fract_x
 _atom_site_fract_y
 _atom_site_fract_z
 _atom_site_occupancy
  V  V0  1  0.12162594  0.37457214  0.25525625  1
  V  V1  1  0.49894201  0.87073922  0.37628502  1
  V  V2  1  0.25145268  0.74713000  0.00144537  1
  V  V3  1  0.00522558  0.75709270  0.24654055  1
  V  V4  1  0.63299960  0.38250372  0.25455249  1
  V  V5  1  0.37627911  0.87566474  0.51214137  1
  V  V6  1  0.37520388  0.75089813  0.12564576  1
  V  V7  1  0.74320315  0.88232256  0.12492343  1
  V  V8  1  0.25707406  0.50296508  0.75316785  1
  V  V9  1  0.49562154  0.62953617  0.63797857  1
  V  V10  1  0.37340229  0.88881593  -0.00009061  1
  V  V11  1  0.86484070  0.62258830  0.24887818  1
  V  V12  1  0.74195027  -0.00066615  0.73733940  1
  V  V13  1  0.37090453  0.49571300  0.88271632  1
  V  V14  1  0.87502181  -0.01019129  0.87015113  1
  V  V15  1  0.25507292  0.00296575  0.72853007  1
  V  V16  1  0.49680899  0.37386806  0.88215416  1
  V  V17  1  0.00283515  0.24787005  0.74348758  1
  V  V18  1  -0.00860624  0.75183720  0.76151734  1
  V  V19  1  0.86695366  0.49435420  0.87345148  1
  V  V20  1  0.11818161  0.25271780  0.37885781  1
  V  V21  1  0.49786511  0.24720293  0.75339137  1
  V  V22  1  -0.00176768  0.62210066  0.12589858  1
  V  V23  1  0.89580835  -0.00373127  0.37912669  1
  V  V24  1  0.74397355  0.86635963  0.61577193  1
  V  V25  1  0.51260413  0.00016449  -0.00281591  1
  V  V26  1  0.24845718  0.25164469  0.50054426  1
  V  V27  1  0.50997960  0.11680660  0.13330729  1
  V  V28  1  -0.05447592  0.18378701  0.07668187  1
  V  V29  1  0.50005532  0.74960783  0.25031773  1
  V  V30  1  0.37492632  0.24250327  0.63004929  1
  V  V31  1  0.87417897  0.25822240  0.62390521  1
  V  V32  1  0.87042021  0.49077504  0.36777147  1
  V  V33  1  0.11902360  0.00155404  0.12530203  1
  V  V34  1  0.87468130  0.12124700  0.74317561  1
  V  V35  1  0.12573344  0.62451872  -0.00638000  1
  V  V36  1  0.63669118  0.75116660  0.37566738  1
  V  V37  1  0.87358638  0.75019698  0.12436929  1
  V  V38  1  0.74476800  0.61965742  0.87269633  1
  V  V39  1  0.63649556  0.37703373  0.75004895  1
  V  V40  1  0.86368645  0.61805935  0.74738843  1
  V  V41  1  0.26065621  0.25610724  0.00105645  1
  V  V42  1  -0.00082957  0.37670212  0.87537412  1
  V  V43  1  0.62366581  0.62289455  0.00039778  1
  V  V44  1  0.50308979  0.25169995  0.25336018  1
  V  V45  1  0.63706754  0.50139575  0.12890872  1
  V  V46  1  0.12263514  0.11130283  0.50441830  1
  V  V47  1  -0.00124280  -0.00485392  -0.00206594  1
  V  V48  1  0.12957992  0.12621805  0.00095296  1
  V  V49  1  -0.00114835  0.49168750  0.49231120  1
  V  V50  1  0.12889733  0.24892551  0.87401025  1
  V  V51  1  0.12579962  0.37693457  0.74933304  1
  V  V52  1  0.06788885  0.80572533  0.42464777  1
  V  V53  1  0.75462727  0.35697346  0.12152115  1
  V  V54  1  0.00324875  0.10494943  0.62274306  1
  V  V55  1  0.63578399  0.24412686  0.37849973  1
  V  V56  1  0.63026795  0.62880070  0.50170253  1
  V  V57  1  0.37838763  0.12771188  0.25001793  1
  V  V58  1  0.37767904  -0.00130254  0.37555207  1
  V  V59  1  0.74864487  0.12342703  0.87897586  1
  V  V60  1  0.37518971  0.62443126  0.25353316  1
  V  V61  1  0.25137969  0.37646497  0.62649346  1
  V  V62  1  0.25029866  0.12817228  0.37514014  1
  V  V63  1  0.25577888  0.75265561  0.50329022  1
  V  V64  1  0.12560967  0.50436906  0.62547555  1
  V  V65  1  0.12209641  0.62449145  0.49418062  1
  V  V66  1  0.61532127  0.75028955  0.86899445  1
  V  V67  1  0.63021017  0.24957582  0.88361873  1
  V  V68  1  -0.00613544  0.62433069  0.62342674  1
  V  V69  1  -0.00633753  0.24656111  0.25401889  1
  V  V70  1  0.74835174  0.24435366  0.50517500  1
  V  V71  1  0.12590728  0.49886404  0.12596424  1
  V  V72  1  0.25110719  0.49956883  0.25233028  1
  V  V73  1  0.37750556  0.37569331  0.50136437  1
  V  V74  1  0.50156990  0.62185490  0.12744253  1
  V  V75  1  0.24978606  0.00023655  0.24588027  1
  V  V76  1  0.74665553  0.00645862  0.26051019  1
  V  V77  1  0.26795683  0.11441329  0.87177068  1
  V  V78  1  0.87672586  0.87173352  -0.00314847  1
  V  V79  1  0.61424795  0.87622498  0.74418307  1
  V  V80  1  0.24606638  0.62954765  0.37440629  1
  V  V81  1  0.51684387  0.12619624  0.62114719  1
  V  V82  1  0.63687417  0.49579097  0.62898717  1
  V  V83  1  0.50275106  0.50051380  0.50475070  1
  V  V84  1  0.30765698  0.67642704  0.81226756  1
  Zn  Zn85  1  0.11474282  0.75625606  0.87738836  1
  Zn  Zn86  1  0.86382586  0.74289640  0.61389856  1
  Zn  Zn87  1  0.24810088  0.87587872  0.12440529  1
  Zn  Zn88  1  0.38369259  0.25732862  0.12278027  1
  Zn  Zn89  1  0.49578509  0.87847445  0.86966147  1
  Zn  Zn90  1  0.74711221  0.75160306  -0.00183721  1
  Zn  Zn91  1  0.87391657  0.37201613  0.49666666  1
  Zn  Zn92  1  0.63339644  0.12626568  0.00945274  1
  Zn  Zn93  1  0.87771481  0.12405872  0.25370931  1
  Zn  Zn94  1  0.50540003  0.37640541  0.37848595  1
  Zn  Zn95  1  0.49345336  0.49227466  0.00772069  1
  Zn  Zn96  1  0.12350608  0.87430612  0.25133604  1
  Zn  Zn97  1  0.74964576  0.62162327  0.37563486  1
  Zn  Zn98  1  0.62136090  0.88007000  0.24457936  1
  Zn  Zn99  1  0.26048667  0.37906792  0.12238440  1
  Zn  Zn100  1  -0.00209166  0.49634523  0.00079404  1
  Zn  Zn101  1  0.37684925  0.75069183  0.63831195  1
  Zn  Zn102  1  0.12616966  0.89058856  0.75066503  1
  Zn  Zn103  1  0.87347220  0.36385950  0.00329200  1
  Zn  Zn104  1  0.87176434  0.86835123  0.48956864  1
  Zn  Zn105  1  0.51321420  -0.00169206  0.51561763  1
  Zn  Zn106  1  0.37766424  0.50063162  0.37783310  1
  Zn  Zn107  1  0.18517009  0.18791016  0.18588511  1
  Zn  Zn108  1  0.18861636  0.18143037  0.68816067  1
  Zn  Zn109  1  0.18594768  0.68710085  0.18558396  1
  Zn  Zn110  1  0.16445050  0.72257247  0.67068272  1
  Zn  Zn111  1  0.68617424  0.18580096  0.19623237  1
  Zn  Zn112  1  0.69037659  0.19306044  0.69214841  1
  Zn  Zn113  1  0.68740672  0.69391501  0.18632061  1
  Zn  Zn114  1  0.68010545  0.68726145  0.68888583  1
  Zn  Zn115  1  0.31246687  0.31521155  0.31289469  1
  Zn  Zn116  1  0.31386504  0.31237274  0.81531199  1
  Zn  Zn117  1  0.30985669  0.81322937  0.31481850  1
  Zn  Zn118  1  0.30434442  0.84320991  0.81977825  1
  Zn  Zn119  1  0.80996008  0.31429911  0.31090098  1
  Zn  Zn120  1  0.81344757  0.30760910  0.81173968  1
  Zn  Zn121  1  0.81711616  0.81680292  0.30868571  1
  Zn  Zn122  1  0.80312973  0.80784523  0.80697286  1
  Zn  Zn123  1  0.18798155  0.43927542  0.43632972  1
  Zn  Zn124  1  0.18728325  0.43894136  0.93619570  1
  Zn  Zn125  1  0.19706092  0.93949003  0.44091335  1
  Zn  Zn126  1  0.18348034  0.93462408  0.93253077  1
  Zn  Zn127  1  0.69378429  0.43194431  0.44392278  1
  Zn  Zn128  1  0.68701574  0.43492988  0.94285849  1
  Zn  Zn129  1  0.68495945  0.94068854  0.43594247  1
  Zn  Zn130  1  0.68837591  0.93637312  0.93179279  1
  Zn  Zn131  1  0.31558008  0.06934996  0.06629660  1
  Zn  Zn132  1  0.32051140  0.06741265  0.55652112  1
  Zn  Zn133  1  0.31108103  0.56513125  0.06419012  1
  Zn  Zn134  1  0.31365104  0.56642180  0.56453081  1
  Zn  Zn135  1  0.80845200  0.05557360  0.06145063  1
  Zn  Zn136  1  0.81578406  0.06049980  0.55330284  1
  Zn  Zn137  1  0.81272188  0.55931126  0.05704794  1
  Zn  Zn138  1  0.81088949  0.55679241  0.55687443  1
  Zn  Zn139  1  0.44033838  0.43579735  0.18857250  1
  Zn  Zn140  1  0.44141885  0.43585534  0.69065037  1
  Zn  Zn141  1  0.43780478  0.93816321  0.18520625  1
  Zn  Zn142  1  0.43201089  0.94983780  0.69245658  1
  Zn  Zn143  1  0.93665603  0.43219090  0.18894426  1
  Zn  Zn144  1  0.93643542  0.43976694  0.68975766  1
  Zn  Zn145  1  0.93333486  0.94078388  0.18590335  1
  Zn  Zn146  1  0.92674088  0.93075131  0.68471822  1
  Zn  Zn147  1  0.06180820  0.06851179  0.31187773  1
  Zn  Zn148  1  0.06631014  0.05993249  0.81251496  1
  Zn  Zn149  1  0.05839101  0.56478783  0.31184047  1
  Zn  Zn150  1  0.05963083  0.56525062  0.80844695  1
  Zn  Zn151  1  0.58061569  0.04711903  0.34499554  1
  Zn  Zn152  1  0.56060991  0.06395924  0.81206533  1
  Zn  Zn153  1  0.56382202  0.56144437  0.31652316  1
  Zn  Zn154  1  0.56002872  0.55556884  0.81415296  1
  Zn  Zn155  1  0.44201524  0.19001947  0.43796366  1
  Zn  Zn156  1  0.44396848  0.18332143  0.94109796  1
  Zn  Zn157  1  0.43925637  0.68584917  0.44164380  1
  Zn  Zn158  1  0.44033882  0.68802633  0.94243294  1
  Zn  Zn159  1  0.93499250  0.17885669  0.44036319  1
  Zn  Zn160  1  0.94056790  0.18138411  0.91452807  1
  Zn  Zn161  1  0.92754232  0.68250799  0.43821554  1
  Zn  Zn162  1  0.93131165  0.68043294  0.93989238  1
  Zn  Zn163  1  0.07161757  0.31930097  0.05953827  1
  Zn  Zn164  1  0.06153761  0.31088466  0.56373751  1
  Zn  Zn165  1  0.06255981  0.81418665  0.06183289  1
  Zn  Zn166  1  0.04698283  0.82683674  0.59107678  1
  Zn  Zn167  1  0.56588627  0.31243606  0.06706329  1
  Zn  Zn168  1  0.56604110  0.31077709  0.56467130  1
  Zn  Zn169  1  0.56178592  0.81085333  0.05927741  1
  Zn  Zn170  1  0.56162815  0.81003416  0.56252303  1
  O  O171  1  0.13053174  0.11454072  0.11128855  1
  O  O172  1  0.11509697  0.13173672  0.61528651  1
  O  O173  1  0.11773504  0.61536541  0.11937226  1
  O  O174  1  0.11329991  0.62336196  0.61597271  1
  O  O175  1  0.61467432  0.12965405  0.12592394  1
  O  O176  1  0.61548268  0.13397553  0.62642167  1
  O  O177  1  0.62363417  0.62040206  0.11931367  1
  O  O178  1  0.61704445  0.61696934  0.62026950  1
  O  O179  1  0.37640046  0.37665720  0.39041053  1
  O  O180  1  0.38306709  0.38387150  0.87439226  1
  O  O181  1  0.38002338  0.87991535  0.38265546  1
  O  O182  1  0.38260810  0.86857146  0.89412464  1
  O  O183  1  0.87769196  0.38787395  0.37105781  1
  O  O184  1  0.88004185  0.37644897  0.87779175  1
  O  O185  1  0.87546065  0.88818157  0.37266930  1
  O  O186  1  0.86376309  0.88282416  0.87986541  1
  O  O187  1  0.26173777  0.00546882  0.36749907  1
  O  O188  1  0.25284932  0.01493801  0.88454520  1
  O  O189  1  0.25283951  0.51031376  0.36960011  1
  O  O190  1  0.25676732  0.49789222  0.86685098  1
  O  O191  1  0.75835454  -0.00564483  0.36092033  1
  O  O192  1  0.75700204  0.00413552  0.86406281  1
  O  O193  1  0.76631949  0.50077156  0.37851411  1
  O  O194  1  0.75275946  0.50907336  0.87928142  1
  O  O195  1  0.24192718  0.50250494  0.13374114  1
  O  O196  1  0.24590945  0.49774239  0.63242147  1
  O  O197  1  0.24317710  1.00192760  0.13159429  1
  O  O198  1  0.25165529  1.01440340  0.62906424  1
  O  O199  1  0.73909715  0.49843704  0.12210126  1
  O  O200  1  0.73622472  0.49944349  0.62300612  1
  O  O201  1  0.75372545  0.98696550  0.13406357  1
  O  O202  1  0.75537900  0.99466786  0.63374077  1
  O  O203  1  0.01497421  0.36520408  0.24333312  1
  O  O204  1  0.00666015  0.37006820  0.75532141  1
  O  O205  1  -0.00052636  0.86081425  0.24062604  1
  O  O206  1  -0.00845068  0.85366025  0.74522056  1
  O  O207  1  0.51240096  0.36813807  0.25462924  1
  O  O208  1  0.50698297  0.36630097  0.76210592  1
  O  O209  1  0.49946507  0.86537033  0.25372051  1
  O  O210  1  0.50970316  0.88535991  0.75039172  1
  O  O211  1  0.49809774  0.13168852  0.24744176  1
  O  O212  1  0.50556345  0.14018893  0.74242743  1
  O  O213  1  0.49539223  0.63032306  0.24780159  1
  O  O214  1  0.50506483  0.61992043  0.73648682  1
  O  O215  1  1.00242438  0.13901419  0.24342576  1
  O  O216  1  0.99597350  0.12906029  0.74406565  1
  O  O217  1  0.99481650  0.63275557  0.23850216  1
  O  O218  1  0.98063990  0.62230495  0.74312626  1
  O  O219  1  0.36315943  0.24547038  -0.00003418  1
  O  O220  1  0.36951157  0.25825636  0.50632856  1
  O  O221  1  0.36785358  0.75163621  0.00803174  1
  O  O222  1  0.37051624  0.75914587  0.50020969  1
  O  O223  1  0.89258355  0.23834572  0.00834857  1
  O  O224  1  0.87261525  0.25083179  0.50792919  1
  O  O225  1  0.87112344  0.75636080  0.00453526  1
  O  O226  1  0.87448136  0.75478061  0.50080145  1
  O  O227  1  0.13081068  0.24859969  0.49332634  1
  O  O228  1  0.13363170  0.24280222  0.99515756  1
  O  O229  1  0.12935515  0.74796513  0.48868981  1
  O  O230  1  0.13148843  0.74365440  0.99811490  1
  O  O231  1  0.63258044  0.25571673  0.48798970  1
  O  O232  1  0.62077165  0.24719541  0.98688682  1
  O  O233  1  0.61722045  0.74045359  0.48784908  1
  O  O234  1  0.62603038  0.73784388  0.99394787  1
  O  O235  1  0.50487752  0.24536019  0.14047436  1
  O  O236  1  0.49506462  0.24596634  0.63363583  1
  O  O237  1  0.49606470  0.74295507  0.13032610  1
  O  O238  1  0.49801535  0.73425952  0.62434829  1
  O  O239  1  1.00465536  0.24991353  0.12983507  1
  O  O240  1  0.99384139  0.24395754  0.63026962  1
  O  O241  1  0.99414393  0.74197804  0.12806785  1
  O  O242  1  0.98925973  0.73279059  0.63547917  1
  O  O243  1  0.01196054  0.24506764  0.37046832  1
  O  O244  1  0.00702822  0.25957691  0.86496990  1
  O  O245  1  0.00608509  0.74545124  0.36691308  1
  O  O246  1  -0.01131893  0.74491462  0.86521766  1
  O  O247  1  0.51179277  0.25367973  0.36864394  1
  O  O248  1  0.50582464  0.25366127  0.87050483  1
  O  O249  1  0.50110376  0.75829222  0.37010609  1
  O  O250  1  0.51214585  0.75159913  0.87960167  1
  O  O251  1  0.24543138  0.13380401  0.49360990  1
  O  O252  1  0.24548444  0.13303887  0.99229520  1
  O  O253  1  0.24360080  0.62760300  0.49133201  1
  O  O254  1  0.24057423  0.63810242  1.00587070  1
  O  O255  1  0.75675275  0.14261883  0.50095763  1
  O  O256  1  0.74943031  0.11539804  0.98463377  1
  O  O257  1  0.73440871  0.62141691  0.49912028  1
  O  O258  1  0.74106218  0.62626193  0.99163449  1
  O  O259  1  0.24353464  0.35906139  -0.00078442  1
  O  O260  1  0.25663151  0.37266516  0.50733716  1
  O  O261  1  0.25721230  0.86475541  -0.00016013  1
  O  O262  1  0.26240588  0.86474578  0.49625309  1
  O  O263  1  0.75199526  0.37289304  0.01529788  1
  O  O264  1  0.75828506  0.35758913  0.49991283  1
  O  O265  1  0.75797425  0.87711555  0.00782872  1
  O  O266  1  0.74159548  0.88116237  0.51431014  1
  O  O267  1  0.12761750  0.49418912  0.24516751  1
  O  O268  1  0.13463981  0.49862734  0.74540619  1
  O  O269  1  0.13034221  1.00117683  0.24086241  1
  O  O270  1  0.14435033  1.00669601  0.75336989  1
  O  O271  1  0.62224453  0.49209438  0.24396382  1
  O  O272  1  0.62142028  0.48507211  0.74545172  1
  O  O273  1  0.64095032  0.99706857  0.25649207  1
  O  O274  1  0.63382640  0.99165302  0.75644025  1
  O  O275  1  0.36575860  0.00686333  0.25165366  1
  O  O276  1  0.35596601  0.00856184  0.75133261  1
  O  O277  1  0.37013514  0.50685457  0.25433574  1
  O  O278  1  0.36265337  0.49605621  0.75690825  1
  O  O279  1  0.86811029  0.00030813  0.25731698  1
  O  O280  1  0.86728331  0.00070498  0.75584597  1
  O  O281  1  0.88399630  0.50703642  0.26081857  1
  O  O282  1  0.87331804  0.50267916  0.76358147  1
  O  O283  1  0.12869311  0.36639901  0.36755445  1
  O  O284  1  0.11763958  0.37067957  0.86964372  1
  O  O285  1  0.12672539  0.87193723  0.37348791  1
  O  O286  1  0.12954735  0.86722108  0.86366570  1
  O  O287  1  0.62751900  0.37181952  0.36750505  1
  O  O288  1  0.62078941  0.37033157  0.86822766  1
  O  O289  1  0.61485540  0.86483256  0.37004928  1
  O  O290  1  0.62315291  0.86588188  0.86685259  1
  O  O291  1  0.38729979  0.13336730  0.13379516  1
  O  O292  1  0.37953948  0.14086912  0.62380621  1
  O  O293  1  0.38082912  0.63013630  0.13320351  1
  O  O294  1  0.39169176  0.62496234  0.62426777  1
  O  O295  1  0.87872243  0.12468856  0.12589318  1
  O  O296  1  0.88509741  0.12848627  0.62763810  1
  O  O297  1  0.88105650  0.62604326  0.12840133  1
  O  O298  1  0.87554615  0.61889440  0.63116194  1
  O  O299  1  0.24977126  0.24827059  0.10978320  1
  O  O300  1  0.25687735  0.25616260  0.62269066  1
  O  O301  1  0.25476837  0.75284919  0.11727819  1
  O  O302  1  0.26032161  0.73238914  0.60583973  1
  O  O303  1  0.74650891  0.25840108  0.12634049  1
  O  O304  1  0.76129309  0.24633537  0.61957012  1
  O  O305  1  0.75724297  0.76167712  0.12264329  1
  O  O306  1  0.74526069  0.76248276  0.62849078  1
  O  O307  1  0.24129596  0.24612384  0.37934630  1
  O  O308  1  0.24740477  0.24224158  0.88358041  1
  O  O309  1  0.25436781  0.73717968  0.38381198  1
  O  O310  1  0.25379432  0.74074169  0.87719746  1
  O  O311  1  0.74166852  0.25397735  0.38158582  1
  O  O312  1  0.74303069  0.23687741  0.86963625  1
  O  O313  1  0.73883189  0.74923332  0.36571068  1
  O  O314  1  0.73874836  0.73653758  0.87609293  1
  O  O315  1  0.00347957  0.12443519  0.00589883  1
  O  O316  1  0.01098309  0.12588205  0.51120400  1
  O  O317  1  0.00434483  0.62242248  0.01252601  1
  O  O318  1  0.00193031  0.61565013  0.50646802  1
  O  O319  1  0.50399640  0.11374777  0.01045081  1
  O  O320  1  0.49725987  0.13157936  0.51898167  1
  O  O321  1  0.50807078  0.62113954  0.00886886  1
  O  O322  1  0.50980452  0.61665064  0.50722853  1
  O  O323  1  0.49370797  0.38129733  0.50319981  1
  O  O324  1  0.50787446  0.37442827  0.98712991  1
  O  O325  1  0.49415748  0.87740000  0.49123824  1
  O  O326  1  0.49531317  0.88834853  1.00344348  1
  O  O327  1  0.99790496  0.38864040  0.50584299  1
  O  O328  1  0.99746879  0.37498946  0.99000649  1
  O  O329  1  1.01168405  0.85985357  0.49041913  1
  O  O330  1  0.98661380  0.88104882  1.00079321  1
  O  O331  1  0.49983362  0.49836117  0.39159898  1
  O  O332  1  0.48956984  0.49083027  0.87760668  1
  O  O333  1  0.48246878  0.98356602  0.35530308  1
  O  O334  1  0.50133033  1.00194012  0.89267448  1
  O  O335  1  0.98871022  0.50602438  0.38329155  1
  O  O336  1  0.99368629  0.48759222  0.87267315  1
  O  O337  1  0.99515452  0.99439968  0.36809179  1
  O  O338  1  0.98904455  1.00812724  0.88729815  1
  O  O339  1  0.00532603  -0.00155004  0.11078496  1
  O  O340  1  -0.00215670  0.00495120  0.63221473  1
  O  O341  1  0.00706981  0.50507599  0.12520250  1
  O  O342  1  0.00323695  0.50878066  0.62031533  1
  O  O343  1  0.49940990  0.00782319  0.11705091  1
  O  O344  1  0.49851762  0.02159765  0.62932678  1
  O  O345  1  0.51202233  0.50605997  0.12562057  1
  O  O346  1  0.50646674  0.50591599  0.61901473  1
  O  O347  1  0.23949755  0.38200574  0.25030234  1
  O  O348  1  0.24478076  0.38325542  0.74600705  1
  O  O349  1  0.24777252  0.88837212  0.24934020  1
  O  O350  1  0.25047748  0.89705534  0.74139059  1
  O  O351  1  0.74204138  0.37336637  0.23705033  1
  O  O352  1  0.73521281  0.37053220  0.75473163  1
  O  O353  1  0.74963761  0.88226735  0.23699790  1
  O  O354  1  0.73929331  0.88168285  0.73973479  1
  O  O355  1  0.25354658  0.11767311  0.25517836  1
  O  O356  1  0.24721759  0.12143543  0.76651607  1
  O  O357  1  0.25327338  0.62090721  0.25671145  1
  O  O358  1  0.24686883  0.62134696  0.75170614  1
  O  O359  1  0.75665307  0.10934527  0.24354956  1
  O  O360  1  0.75401549  0.11586963  0.75494865  1
  O  O361  1  0.76244575  0.62766047  0.24689322  1
  O  O362  1  0.75568417  0.62558189  0.75591765  1
  O  O363  1  0.37290166  0.11807860  0.37130675  1
  O  O364  1  0.36566879  0.12761351  0.87790021  1
  O  O365  1  0.36812024  0.62335935  0.37046681  1
  O  O366  1  0.37518696  0.62132716  0.86866645  1
  O  O367  1  0.88269032  0.10531724  0.37144674  1
  O  O368  1  0.86702604  0.11265590  0.86381306  1
  O  O369  1  0.87130391  0.61547910  0.36388593  1
  O  O370  1  0.86366664  0.61483501  0.86923232  1
  O  O371  1  0.13180231  0.38727795  0.13105560  1
  O  O372  1  0.13074494  0.38294777  0.63054041  1
  O  O373  1  0.12750236  0.88984019  0.12303979  1
  O  O374  1  0.13475059  0.83354838  0.65230010  1
  O  O375  1  0.63534764  0.38185514  0.13139281  1
  O  O376  1  0.61869169  0.38043530  0.64159497  1
  O  O377  1  0.64016301  0.86806379  0.12385130  1
  O  O378  1  0.63074272  0.87339150  0.63098765  1
  O  O379  1  0.12138361  0.25615114  0.25757291  1
  O  O380  1  0.12308579  0.25562540  0.75490988  1
  O  O381  1  0.11471594  0.75367667  0.24377731  1
  O  O382  1  0.09473099  0.72164933  0.76353771  1
  O  O383  1  0.62290438  0.26141392  0.25998062  1
  O  O384  1  0.61902505  0.26061067  0.75951632  1
  O  O385  1  0.61534237  0.75016834  0.25786855  1
  O  O386  1  0.62574040  0.76107441  0.75793823  1
  O  O387  1  0.38685311  0.24504617  0.25692472  1
  O  O388  1  0.38483987  0.25890818  0.74186549  1
  O  O389  1  0.37903362  0.74535354  0.24515509  1
  O  O390  1  0.35649369  0.74675774  0.75662239  1
  O  O391  1  0.88943311  0.24957233  0.25746119  1
  O  O392  1  0.88109207  0.24119586  0.74293785  1
  O  O393  1  0.88268615  0.74117158  0.24370935  1
  O  O394  1  0.87703621  0.73644959  0.74815822  1
  O  O395  1  0.38315227  0.49245483  0.50338498  1
  O  O396  1  0.37360124  0.50780604  0.98719670  1
  O  O397  1  0.38226242  0.99399469  0.49029164  1
  O  O398  1  0.38254303  0.99213316  1.00994064  1
  O  O399  1  0.88202220  0.49773746  0.48730405  1
  O  O400  1  0.87857594  0.49728050  0.98520943  1
  O  O401  1  0.87705090  0.99016681  0.48487988  1
  O  O402  1  0.88014655  0.99206383  0.99221605  1
  O  O403  1  0.11657254  0.00622191  0.00250468  1
  O  O404  1  0.13174625  0.01231857  0.49698911  1
  O  O405  1  0.12437790  0.50567839  0.00932657  1
  O  O406  1  0.11781567  0.50452718  0.50518284  1
  O  O407  1  0.61562298  0.00042529  -0.00047882  1
  O  O408  1  0.60364188  0.01238864  0.45364273  1
  O  O409  1  0.62198424  0.50997541  0.00715694  1
  O  O410  1  0.61941581  0.50205781  0.50874136  1
  O  O411  1  0.37311012  0.37027090  0.12907733  1
  O  O412  1  0.37222816  0.36946676  0.61733192  1
  O  O413  1  0.37248449  0.86720916  0.11705575  1
  O  O414  1  0.38643333  0.87278655  0.61503814  1
  O  O415  1  0.85956648  0.37681631  0.12400822  1
  O  O416  1  0.88136117  0.36097840  0.62754522  1
  O  O417  1  0.86604370  0.87139463  0.11521261  1
  O  O418  1  0.85620241  0.86897485  0.62056319  1
  O  O419  1  0.13134236  0.13292118  0.38287616  1
  O  O420  1  0.12621497  0.13139820  0.88829723  1
  O  O421  1  0.13378435  0.61942926  0.38068879  1
  O  O422  1  0.11517276  0.62210251  0.89234130  1
  O  O423  1  0.63103272  0.14752863  0.36306656  1
  O  O424  1  0.63301525  0.13306838  0.87455448  1
  O  O425  1  0.62734074  0.63208665  0.38240290  1
  O  O426  1  0.62708310  0.62622974  0.88011540  1
