# generated using pymatgen
data_V85Zn86O256
_symmetry_space_group_name_H-M   'P 1'
_cell_length_a   16.92674633
_cell_length_b   16.93379949
_cell_length_c   16.92726203
_cell_angle_alpha   90.01789156
_cell_angle_beta   90.01608831
_cell_angle_gamma   89.89678294
_symmetry_Int_Tables_number   1
_chemical_formula_structural   V85Zn86O256
_chemical_formula_sum   'V85 Zn86 O256'
_cell_volume   4851.92269948
_cell_formula_units_Z   1
loop_
 _symmetry_equiv_pos_site_id
 _symmetry_equiv_pos_as_xyz
  1  'x, y, z'
loop_
 _atom_site_type_symbol
 _atom_site_label
 _atom_site_symmetry_multiplicity
 _atom_site_fract_x
 _atom_site_fract_y
 _atom_site_fract_z
 _atom_site_occupancy
  V  V0  1  0.00185441  0.87354381  0.87887982  1
  V  V1  1  0.50804170  0.24700549  0.25623764  1
  V  V2  1  0.12543025  0.25014653  0.87624128  1
  V  V3  1  0.37726518  0.75416747  0.63096502  1
  V  V4  1  0.12476554  0.12540155  0.00470941  1
  V  V5  1  0.09712300  0.47416135  0.60873139  1
  V  V6  1  0.87484286  0.37764041  -0.00074346  1
  V  V7  1  0.51007441  0.00556279  0.51245845  1
  V  V8  1  0.74884714  0.12166891  0.87539808  1
  V  V9  1  0.62413476  0.24488188  0.87605681  1
  V  V10  1  0.62393555  -0.01104553  0.11053717  1
  V  V11  1  0.37403704  0.25218485  0.12683974  1
  V  V12  1  0.37565793  0.62361848  0.74757417  1
  V  V13  1  0.87031352  0.74980914  0.12827897  1
  V  V14  1  0.24560859  0.49695438  0.74617830  1
  V  V15  1  0.87166725  0.76086439  0.62679433  1
  V  V16  1  0.75238607  0.25123535  0.48976395  1
  V  V17  1  0.50101857  0.62624186  0.62604257  1
  V  V18  1  0.75328615  0.37346947  0.61878359  1
  V  V19  1  0.87294634  0.87293926  0.00366175  1
  V  V20  1  -0.00581561  0.24388694  0.75426915  1
  V  V21  1  0.74461962  0.50189055  0.25000568  1
  V  V22  1  0.75446603  0.49745614  0.74956221  1
  V  V23  1  0.48358572  0.62190101  0.12087695  1
  V  V24  1  0.62617339  0.62989625  0.49718622  1
  V  V25  1  0.87168472  0.24500959  0.12950401  1
  V  V26  1  0.74690286  0.75277033  0.00544022  1
  V  V27  1  0.27219621  0.72172974  0.48641659  1
  V  V28  1  0.37926333  0.12477480  0.24873710  1
  V  V29  1  0.00025371  0.62909938  0.62560063  1
  V  V30  1  -0.00192297  -0.00007906  0.00353069  1
  V  V31  1  0.87464908  0.62690487  0.75064696  1
  V  V32  1  0.25022771  0.87360695  0.62269449  1
  V  V33  1  0.63028066  0.87673764  0.73870853  1
  V  V34  1  0.74829828  0.62625137  0.87645754  1
  V  V35  1  0.38074098  0.00233554  0.37510506  1
  V  V36  1  0.00418283  0.75139980  0.75826035  1
  V  V37  1  0.88109569  0.48694697  0.39070089  1
  V  V38  1  0.37734677  0.89256308  -0.00783959  1
  V  V39  1  0.24909721  0.25730594  0.00554918  1
  V  V40  1  -0.00460063  0.26083385  0.25511372  1
  V  V41  1  0.51104212  0.12343444  0.11158381  1
  V  V42  1  0.37859477  0.11902615  0.75798801  1
  V  V43  1  0.25590895  0.37719737  0.62499421  1
  V  V44  1  0.12310400  0.62833876  -0.00430202  1
  V  V45  1  0.25137837  0.00085382  0.25024136  1
  V  V46  1  0.25847214  0.75011583  -0.00318272  1
  V  V47  1  0.62558637  0.49987243  0.62309167  1
  V  V48  1  0.50272646  0.24708865  0.74425049  1
  V  V49  1  -0.00150587  0.74559668  0.25496546  1
  V  V50  1  0.87455787  0.00544354  0.87442318  1
  V  V51  1  0.87110986  0.24468912  0.62546764  1
  V  V52  1  0.00090825  0.61554210  0.12680131  1
  V  V53  1  -0.00544777  0.12100072  0.63059251  1
  V  V54  1  0.87684905  0.00916333  0.36326545  1
  V  V55  1  0.50208817  0.38162633  0.87650139  1
  V  V56  1  0.75233061  0.62620600  0.37606220  1
  V  V57  1  0.49783094  0.75427227  0.23776928  1
  V  V58  1  0.51306515  0.87898089  0.36816670  1
  V  V59  1  0.37645722  0.88332245  0.50266187  1
  V  V60  1  0.12731292  0.87362197  0.25239444  1
  V  V61  1  0.74537014  0.37598698  0.12480679  1
  V  V62  1  0.24390321  0.62983710  0.86974552  1
  V  V63  1  0.75075979  0.00133637  0.73764910  1
  V  V64  1  0.62659057  0.37121703  0.25766239  1
  V  V65  1  0.12718199  -0.00009651  0.62665049  1
  V  V66  1  0.25873562  0.87084325  0.12467254  1
  V  V67  1  0.37763514  0.37764809  0.49699818  1
  V  V68  1  -0.00090713  -0.00167960  0.50025337  1
  V  V69  1  0.12341629  0.62841115  0.50433369  1
  V  V70  1  0.12866665  0.87108520  0.75716773  1
  V  V71  1  0.00160480  0.87142062  0.37689921  1
  V  V72  1  0.49914299  0.37832901  0.37265309  1
  V  V73  1  0.74395303  0.24610502  0.00023114  1
  V  V74  1  -0.00442453  0.12404581  0.13426870  1
  V  V75  1  0.74903117  0.76068769  0.50342482  1
  V  V76  1  0.61935719  0.61663569  0.00277338  1
  V  V77  1  0.50240938  0.88980874  0.87575906  1
  V  V78  1  0.73596254  -0.00513756  0.24464671  1
  V  V79  1  0.37764621  0.38085184  -0.00066707  1
  V  V80  1  0.62542477  0.13160614  0.50470592  1
  V  V81  1  0.17860903  0.69727432  0.33693014  1
  V  V82  1  0.13935785  0.37725498  0.24561050  1
  V  V83  1  0.37859026  0.24151802  0.62384857  1
  V  V84  1  0.12205162  0.25188043  0.37593110  1
  Zn  Zn85  1  0.87170271  0.87906864  0.50110827  1
  Zn  Zn86  1  0.24891119  0.12569726  0.37850316  1
  Zn  Zn87  1  0.25669525  -0.00246842  0.75559957  1
  Zn  Zn88  1  -0.00178896  0.37569420  0.87335708  1
  Zn  Zn89  1  0.15408455  0.49264487  0.12275426  1
  Zn  Zn90  1  0.00816095  0.49518160  -0.00189776  1
  Zn  Zn91  1  0.26658185  0.52799573  0.26665417  1
  Zn  Zn92  1  0.37741543  0.50222441  0.87579646  1
  Zn  Zn93  1  0.74702784  0.12811305  0.36708324  1
  Zn  Zn94  1  0.50297397  0.75255185  0.75556858  1
  Zn  Zn95  1  0.87835474  0.49797141  0.87510892  1
  Zn  Zn96  1  0.12393106  -0.00327380  0.12668764  1
  Zn  Zn97  1  0.62233595  0.75373090  0.87659759  1
  Zn  Zn98  1  0.63044290  0.75671673  0.36502052  1
  Zn  Zn99  1  0.49848185  0.50250802  0.49704378  1
  Zn  Zn100  1  0.62566925  0.37298812  0.74926486  1
  Zn  Zn101  1  0.12619311  0.12647198  0.50102786  1
  Zn  Zn102  1  0.25779399  0.11926088  0.88220782  1
  Zn  Zn103  1  0.60837979  0.49643417  0.12488630  1
  Zn  Zn104  1  0.24973351  0.24724936  0.50018917  1
  Zn  Zn105  1  0.12627316  0.36932049  0.75262446  1
  Zn  Zn106  1  0.87446791  0.61971369  0.25285770  1
  Zn  Zn107  1  0.18702653  0.18863317  0.18995177  1
  Zn  Zn108  1  0.19096570  0.18623784  0.68879267  1
  Zn  Zn109  1  0.18674093  0.68933984  0.16962697  1
  Zn  Zn110  1  0.18883145  0.68728717  0.68094786  1
  Zn  Zn111  1  0.68947769  0.18076703  0.19060600  1
  Zn  Zn112  1  0.68653123  0.18153242  0.68596899  1
  Zn  Zn113  1  0.67792258  0.68710616  0.18771243  1
  Zn  Zn114  1  0.68835042  0.69122553  0.68741261  1
  Zn  Zn115  1  0.31393823  0.30999518  0.31627286  1
  Zn  Zn116  1  0.31402237  0.30778576  0.81533711  1
  Zn  Zn117  1  0.32577528  0.81569792  0.31028713  1
  Zn  Zn118  1  0.31383295  0.81387264  0.81740855  1
  Zn  Zn119  1  0.81639007  0.31605291  0.31210198  1
  Zn  Zn120  1  0.81329691  0.31139108  0.81021380  1
  Zn  Zn121  1  0.81327080  0.81663127  0.31290132  1
  Zn  Zn122  1  0.81133706  0.81589861  0.81573279  1
  Zn  Zn123  1  0.18170709  0.42877555  0.43570193  1
  Zn  Zn124  1  0.18896348  0.43974769  0.93575964  1
  Zn  Zn125  1  0.18825476  0.93461381  0.43803135  1
  Zn  Zn126  1  0.18834389  0.94065678  0.93709073  1
  Zn  Zn127  1  0.68765996  0.43865079  0.43600281  1
  Zn  Zn128  1  0.68727198  0.43603829  0.93617570  1
  Zn  Zn129  1  0.69023747  0.94596698  0.43765062  1
  Zn  Zn130  1  0.68674780  0.93542217  0.93637491  1
  Zn  Zn131  1  0.31157361  0.06656556  0.06719623  1
  Zn  Zn132  1  0.31183680  0.06491050  0.56486140  1
  Zn  Zn133  1  0.30989845  0.56435086  0.06112937  1
  Zn  Zn134  1  0.30961930  0.55109096  0.44301633  1
  Zn  Zn135  1  0.80666454  0.06203039  0.06413295  1
  Zn  Zn136  1  0.81498385  0.06526937  0.55630543  1
  Zn  Zn137  1  0.81042174  0.56313099  0.06492900  1
  Zn  Zn138  1  0.81301270  0.56852150  0.56369675  1
  Zn  Zn139  1  0.38744590  0.45493175  0.17337787  1
  Zn  Zn140  1  0.43812721  0.43617470  0.68762355  1
  Zn  Zn141  1  0.44213031  0.93814289  0.18217247  1
  Zn  Zn142  1  0.44347843  0.93842136  0.69100250  1
  Zn  Zn143  1  0.93025524  0.43637127  0.19097525  1
  Zn  Zn144  1  0.94163899  0.42770803  0.67492827  1
  Zn  Zn145  1  0.93550169  0.93289449  0.18893086  1
  Zn  Zn146  1  0.93689423  0.93853269  0.69231785  1
  Zn  Zn147  1  0.06350855  0.06437852  0.31264592  1
  Zn  Zn148  1  0.06764566  0.06166436  0.81523191  1
  Zn  Zn149  1  0.06042371  0.55076524  0.31366723  1
  Zn  Zn150  1  0.06273572  0.55732158  0.80969482  1
  Zn  Zn151  1  0.56828205  0.06640454  0.31470606  1
  Zn  Zn152  1  0.56637961  0.06351716  0.80857861  1
  Zn  Zn153  1  0.47873348  0.55061879  0.29493687  1
  Zn  Zn154  1  0.56564966  0.56289895  0.81094424  1
  Zn  Zn155  1  0.44124050  0.18765080  0.43770954  1
  Zn  Zn156  1  0.43925901  0.19284779  0.93644468  1
  Zn  Zn157  1  0.44647293  0.69731342  0.43752790  1
  Zn  Zn158  1  0.43850511  0.69291631  0.93421046  1
  Zn  Zn159  1  0.93947791  0.18742845  0.44130865  1
  Zn  Zn160  1  0.93530525  0.18750795  0.94180242  1
  Zn  Zn161  1  0.93484581  0.68489467  0.43981915  1
  Zn  Zn162  1  0.93593291  0.68486000  0.93849262  1
  Zn  Zn163  1  0.06034964  0.31403763  0.06804885  1
  Zn  Zn164  1  0.06032864  0.30733541  0.56480075  1
  Zn  Zn165  1  0.06506953  0.80817282  0.06594590  1
  Zn  Zn166  1  0.06844642  0.80790054  0.56058693  1
  Zn  Zn167  1  0.56010108  0.31213143  0.06527707  1
  Zn  Zn168  1  0.56573296  0.31153887  0.56127728  1
  Zn  Zn169  1  0.55813090  0.81080740  0.05652656  1
  Zn  Zn170  1  0.56113947  0.81617132  0.56112971  1
  O  O171  1  0.11662166  0.12543336  0.11757456  1
  O  O172  1  0.11682768  0.11562908  0.62807608  1
  O  O173  1  0.11684160  0.61702770  0.11698015  1
  O  O174  1  0.11575187  0.62148824  0.61911585  1
  O  O175  1  0.61406165  0.12025965  0.12468838  1
  O  O176  1  0.63083496  0.12185652  0.60622068  1
  O  O177  1  0.61573282  0.61903996  0.11551200  1
  O  O178  1  0.62298734  0.62050461  0.61812005  1
  O  O179  1  0.38692018  0.36588235  0.38516628  1
  O  O180  1  0.38446466  0.37342157  0.88168432  1
  O  O181  1  0.38543642  0.88913602  0.38101059  1
  O  O182  1  0.38132947  0.87933308  0.88384468  1
  O  O183  1  0.87162355  0.38695509  0.38052435  1
  O  O184  1  0.87419258  0.37458588  0.88496406  1
  O  O185  1  0.88835160  0.88467145  0.37538206  1
  O  O186  1  0.88132818  0.88412158  0.88374526  1
  O  O187  1  0.25886403  -0.00223718  0.36451833  1
  O  O188  1  0.23683193  0.00968216  0.86605326  1
  O  O189  1  0.23823994  0.50217875  0.37437828  1
  O  O190  1  0.25137037  0.51019126  0.86383703  1
  O  O191  1  0.76306868  0.00038540  0.36582463  1
  O  O192  1  0.75646468  0.00653156  0.87311365  1
  O  O193  1  0.75379458  0.50848486  0.37013408  1
  O  O194  1  0.75091624  0.50647752  0.86559234  1
  O  O195  1  0.26700063  0.50655265  0.14766825  1
  O  O196  1  0.24442914  0.48269584  0.63181697  1
  O  O197  1  0.24974078  0.99418870  0.13695416  1
  O  O198  1  0.24223412  0.99433749  0.63125463  1
  O  O199  1  0.74916884  0.49316310  0.13390228  1
  O  O200  1  0.74641623  0.49357406  0.62901565  1
  O  O201  1  0.73589485  1.00333403  0.13346697  1
  O  O202  1  0.76112200  1.00374543  0.63955235  1
  O  O203  1  0.00413458  0.36326613  0.24383234  1
  O  O204  1  0.00267809  0.35704858  0.75075014  1
  O  O205  1  0.00654288  0.86442059  0.25428384  1
  O  O206  1  0.00728095  0.86895530  0.75685705  1
  O  O207  1  0.50965980  0.36571627  0.25808194  1
  O  O208  1  0.50246249  0.36615678  0.75742395  1
  O  O209  1  0.49551797  0.86753601  0.25569277  1
  O  O210  1  0.51368415  0.87710446  0.75643754  1
  O  O211  1  0.49775613  0.13084873  0.24518779  1
  O  O212  1  0.49125185  0.13378300  0.75280545  1
  O  O213  1  0.50523053  0.63673411  0.22986756  1
  O  O214  1  0.49371965  0.62770181  0.74567651  1
  O  O215  1  1.00543645  0.13349259  0.23720618  1
  O  O216  1  1.00429470  0.13338988  0.74527083  1
  O  O217  1  0.99984590  0.62938730  0.24486119  1
  O  O218  1  0.99414532  0.63751907  0.75225706  1
  O  O219  1  0.36743145  0.25544283  0.00631254  1
  O  O220  1  0.37828671  0.25603971  0.50932390  1
  O  O221  1  0.36122956  0.76205218  -0.00903058  1
  O  O222  1  0.37776222  0.76636231  0.51258985  1
  O  O223  1  0.86430982  0.25867828  0.00581725  1
  O  O224  1  0.86787490  0.24370095  0.51476135  1
  O  O225  1  0.86825515  0.75155478  0.00836112  1
  O  O226  1  0.86744390  0.75279506  0.50891152  1
  O  O227  1  0.12159192  0.25044434  0.49020103  1
  O  O228  1  0.13045814  0.24599615  0.99940016  1
  O  O229  1  0.14102280  0.73586759  0.50108906  1
  O  O230  1  0.13550296  0.73563917  1.00573925  1
  O  O231  1  0.63430408  0.23974966  0.50182437  1
  O  O232  1  0.63675945  0.25492919  0.99333313  1
  O  O233  1  0.63202920  0.74537165  0.50181605  1
  O  O234  1  0.63309660  0.74000241  0.99976797  1
  O  O235  1  0.49608553  0.23909334  0.13334596  1
  O  O236  1  0.49525284  0.25607767  0.63651101  1
  O  O237  1  0.49923440  0.74719630  0.13213972  1
  O  O238  1  0.49110277  0.74748175  0.62829868  1
  O  O239  1  0.98966787  0.24353921  0.13127683  1
  O  O240  1  0.99220501  0.23874134  0.63241771  1
  O  O241  1  0.99635599  0.73942894  0.13681999  1
  O  O242  1  0.99534628  0.74542637  0.63602225  1
  O  O243  1  0.00420244  0.24354277  0.36452271  1
  O  O244  1  0.00451421  0.24857573  0.86997363  1
  O  O245  1  -0.00739433  0.75571904  0.36408965  1
  O  O246  1  -0.00615680  0.75647881  0.86604923  1
  O  O247  1  0.49891745  0.25537960  0.36259595  1
  O  O248  1  0.50882607  0.25686380  0.86684492  1
  O  O249  1  0.50867328  0.76372119  0.37120140  1
  O  O250  1  0.50282527  0.76442644  0.87276062  1
  O  O251  1  0.24497985  0.12781324  0.49842130  1
  O  O252  1  0.24095686  0.13501708  1.00341663  1
  O  O253  1  0.23645812  0.62338683  0.51454262  1
  O  O254  1  0.24607989  0.63194971  0.99005417  1
  O  O255  1  0.74347443  0.13316106  0.49678972  1
  O  O256  1  0.75458997  0.13353384  0.98679990  1
  O  O257  1  0.74545931  0.63749764  0.49612606  1
  O  O258  1  0.74474623  0.63121383  0.99335916  1
  O  O259  1  0.25708277  0.36305681  -0.00462940  1
  O  O260  1  0.25929778  0.36979040  0.50781694  1
  O  O261  1  0.25521410  0.87051998  0.00374362  1
  O  O262  1  0.25985026  0.87595181  0.50810553  1
  O  O263  1  0.75390225  0.36745454  0.00531279  1
  O  O264  1  0.74059261  0.36459478  0.50839839  1
  O  O265  1  0.75583943  0.85996863  -0.00470429  1
  O  O266  1  0.75054818  0.86482154  0.49449948  1
  O  O267  1  0.12443894  0.48346191  0.24726786  1
  O  O268  1  0.13368266  0.49373520  0.73782535  1
  O  O269  1  0.13483546  0.99384444  0.24920648  1
  O  O270  1  0.12080201  0.98942728  0.73894434  1
  O  O271  1  0.63694308  0.48865650  0.24776215  1
  O  O272  1  0.63731903  0.50248600  0.73827985  1
  O  O273  1  0.63159797  0.99773441  0.24230500  1
  O  O274  1  0.64002793  0.99143312  0.75133996  1
  O  O275  1  0.37176792  0.00317767  0.25594275  1
  O  O276  1  0.37807895  0.01616554  0.74461815  1
  O  O277  1  0.38018528  0.50608183  0.27015359  1
  O  O278  1  0.36409091  0.50784048  0.74735822  1
  O  O279  1  0.87699767  0.00138579  0.26063343  1
  O  O280  1  0.86185255  -0.00838759  0.76234926  1
  O  O281  1  0.86001027  0.49959452  0.25898458  1
  O  O282  1  0.86425596  0.50395420  0.74639854  1
  O  O283  1  0.12119071  0.36147305  0.36210487  1
  O  O284  1  0.12387932  0.36145692  0.87637538  1
  O  O285  1  0.11061042  0.88212233  0.36860406  1
  O  O286  1  0.11893019  0.87677600  0.86401562  1
  O  O287  1  0.62267030  0.37277250  0.36373855  1
  O  O288  1  0.62026057  0.36437050  0.87267287  1
  O  O289  1  0.61569650  0.88071582  0.37709605  1
  O  O290  1  0.61797319  0.87426232  0.86876511  1
  O  O291  1  0.38634650  0.13168095  0.12999964  1
  O  O292  1  0.37483234  0.13720997  0.63395719  1
  O  O293  1  0.38575499  0.63534800  0.11291366  1
  O  O294  1  0.38189846  0.63560210  0.63826554  1
  O  O295  1  0.88038995  0.13670528  0.11761889  1
  O  O296  1  0.88661462  0.12755688  0.62547031  1
  O  O297  1  0.88215617  0.63408211  0.12703493  1
  O  O298  1  0.88084059  0.63691011  0.63245810  1
  O  O299  1  0.26252930  0.24382096  0.11922436  1
  O  O300  1  0.26100483  0.25846713  0.62665068  1
  O  O301  1  0.25286317  0.76058270  0.11281266  1
  O  O302  1  0.26453070  0.75076211  0.61368537  1
  O  O303  1  0.75338952  0.25129661  0.11810130  1
  O  O304  1  0.75471589  0.25409348  0.62088952  1
  O  O305  1  0.75823206  0.74099672  0.11822840  1
  O  O306  1  0.76028779  0.74730308  0.61694977  1
  O  O307  1  0.23911675  0.24697393  0.37734199  1
  O  O308  1  0.24166512  0.24341252  0.88490652  1
  O  O309  1  0.24332077  0.76941108  0.38343778  1
  O  O310  1  0.24943534  0.73737383  0.87774015  1
  O  O311  1  0.76003706  0.24813463  0.38661631  1
  O  O312  1  0.74468529  0.24309782  0.87883396  1
  O  O313  1  0.74957024  0.74481618  0.38083440  1
  O  O314  1  0.75028300  0.74092597  0.88353716  1
  O  O315  1  0.00497579  0.12195864  0.01191758  1
  O  O316  1  0.00438612  0.11588914  0.51144457  1
  O  O317  1  0.00767847  0.62430144  0.00703266  1
  O  O318  1  0.00766314  0.63424273  0.51429626  1
  O  O319  1  0.49882815  0.13195606  0.01359561  1
  O  O320  1  0.51102277  0.11579210  0.49703949  1
  O  O321  1  0.50691744  0.63402317  0.00942439  1
  O  O322  1  0.50957190  0.62505403  0.50631163  1
  O  O323  1  0.49678708  0.37305129  0.49127733  1
  O  O324  1  0.49098681  0.36641515  0.98932009  1
  O  O325  1  0.49797847  0.88938715  0.49311601  1
  O  O326  1  0.48388885  0.87565563  0.99354492  1
  O  O327  1  1.01427429  0.40939232  0.57544407  1
  O  O328  1  0.98927371  0.37483960  1.00077764  1
  O  O329  1  1.00154601  0.87776008  0.49245710  1
  O  O330  1  0.99740063  0.87824065  0.99809521  1
  O  O331  1  0.51247328  0.48410614  0.38015902  1
  O  O332  1  0.50009293  0.48601725  0.86728944  1
  O  O333  1  0.49538348  0.99667687  0.37889817  1
  O  O334  1  0.50557279  0.99017627  0.87221580  1
  O  O335  1  0.97969369  0.50374599  0.37588472  1
  O  O336  1  0.99670465  0.49513625  0.87851712  1
  O  O337  1  0.99257256  0.99533367  0.37703526  1
  O  O338  1  0.99337990  0.99621808  0.88217195  1
  O  O339  1  -0.00126992  0.00698509  0.12211012  1
  O  O340  1  0.00436913  0.00406408  0.62335737  1
  O  O341  1  -0.00802982  0.51144662  0.12440880  1
  O  O342  1  0.00281844  0.52614674  0.65322612  1
  O  O343  1  0.51162023  0.01315421  0.12709619  1
  O  O344  1  0.49756639  -0.00008561  0.61010463  1
  O  O345  1  0.48942381  0.51673883  0.12708356  1
  O  O346  1  0.51037166  0.50587629  0.62489616  1
  O  O347  1  0.23896142  0.36854119  0.25045355  1
  O  O348  1  0.25332067  0.38154942  0.74734667  1
  O  O349  1  0.25179234  0.87918014  0.24247302  1
  O  O350  1  0.24299886  0.87237682  0.74364366  1
  O  O351  1  0.74379129  0.37811763  0.24470558  1
  O  O352  1  0.74714600  0.38292914  0.74336637  1
  O  O353  1  0.75985528  0.89589013  0.24944766  1
  O  O354  1  0.73977087  0.88630871  0.75546545  1
  O  O355  1  0.25858162  0.11593826  0.25049041  1
  O  O356  1  0.26815686  0.12737012  0.75156337  1
  O  O357  1  0.23536326  0.64503476  0.26506826  1
  O  O358  1  0.25406373  0.61907034  0.75173633  1
  O  O359  1  0.75012203  0.10625641  0.25191207  1
  O  O360  1  0.74634060  0.11117637  0.76109027  1
  O  O361  1  0.74640255  0.61817810  0.25925933  1
  O  O362  1  0.75462202  0.61995428  0.75663503  1
  O  O363  1  0.37611199  0.11508244  0.36932530  1
  O  O364  1  0.37657933  0.13197263  0.86200427  1
  O  O365  1  0.34180090  0.65848799  0.42129464  1
  O  O366  1  0.36976219  0.62403632  0.86268898  1
  O  O367  1  0.87588000  0.11080872  0.37864798  1
  O  O368  1  0.86974418  0.11231117  0.87966430  1
  O  O369  1  0.86209280  0.62122437  0.37519326  1
  O  O370  1  0.86337201  0.62193477  0.87055696  1
  O  O371  1  0.12588090  0.37556108  0.13918825  1
  O  O372  1  0.14213193  0.36833723  0.63180563  1
  O  O373  1  0.13751207  0.87440814  0.13272952  1
  O  O374  1  0.13082379  0.87920102  0.63212256  1
  O  O375  1  0.62716138  0.37830070  0.13360019  1
  O  O376  1  0.63329466  0.38383991  0.62710622  1
  O  O377  1  0.61631052  0.88973735  0.11720005  1
  O  O378  1  0.62252467  0.87503620  0.63961340  1
  O  O379  1  0.11716306  0.25793076  0.25355844  1
  O  O380  1  0.11953338  0.24544977  0.76207764  1
  O  O381  1  0.11970198  0.75245186  0.25691708  1
  O  O382  1  0.11636107  0.75908843  0.74277718  1
  O  O383  1  0.61821750  0.25612346  0.24371247  1
  O  O384  1  0.61932555  0.24887914  0.75569323  1
  O  O385  1  0.60839204  0.75070209  0.25147473  1
  O  O386  1  0.62817865  0.76431142  0.75270896  1
  O  O387  1  0.38316390  0.24571007  0.24276045  1
  O  O388  1  0.38423036  0.24351017  0.74461698  1
  O  O389  1  0.39844102  0.74449382  0.26181034  1
  O  O390  1  0.37526689  0.74499818  0.74492735  1
  O  O391  1  0.88081039  0.25225871  0.24065560  1
  O  O392  1  0.88053209  0.24793379  0.73897413  1
  O  O393  1  0.88085362  0.74617884  0.24463455  1
  O  O394  1  0.88057533  0.74901545  0.74544686  1
  O  O395  1  0.38059141  0.48306401  0.50432752  1
  O  O396  1  0.36692232  0.48458949  0.99561269  1
  O  O397  1  0.38586023  1.00265351  0.49374971  1
  O  O398  1  0.36571199  0.99097784  0.99778623  1
  O  O399  1  0.86734165  0.50291576  0.49008536  1
  O  O400  1  0.87141661  0.48599328  1.00134247  1
  O  O401  1  0.88164743  0.99683053  0.48915027  1
  O  O402  1  0.87799436  0.99312282  0.99707840  1
  O  O403  1  0.11715660  0.00896836  0.00529368  1
  O  O404  1  0.11919544  -0.00276207  0.51305405  1
  O  O405  1  0.12942780  0.50992170  0.00628809  1
  O  O406  1  0.12543924  0.50491044  0.51347733  1
  O  O407  1  0.63331998  0.00329318  0.01206479  1
  O  O408  1  0.61552127  0.00629397  0.50190424  1
  O  O409  1  0.62883373  0.51253311  0.00018701  1
  O  O410  1  0.62820630  0.50929971  0.51122201  1
  O  O411  1  0.38438328  0.36034009  0.11469031  1
  O  O412  1  0.37285112  0.36514629  0.62032554  1
  O  O413  1  0.36614316  0.88147908  0.11102484  1
  O  O414  1  0.37124884  0.87121710  0.62657986  1
  O  O415  1  0.86660475  0.36392779  0.11952266  1
  O  O416  1  0.85904578  0.36328719  0.62779391  1
  O  O417  1  0.88176785  0.85822610  0.11937741  1
  O  O418  1  0.88183355  0.86416679  0.62346278  1
  O  O419  1  0.12622178  0.13692698  0.37456874  1
  O  O420  1  0.11928399  0.13562971  0.89125854  1
  O  O421  1  0.11575914  0.62674519  0.38585330  1
  O  O422  1  0.13280867  0.62029070  0.88117339  1
  O  O423  1  0.63201310  0.11741886  0.39318763  1
  O  O424  1  0.63210433  0.13663856  0.87312172  1
  O  O425  1  0.63719069  0.62764787  0.39120692  1
  O  O426  1  0.63472079  0.62738567  0.87933629  1
