# generated using pymatgen
data_V85Zn86O256
_symmetry_space_group_name_H-M   'P 1'
_cell_length_a   16.92402104
_cell_length_b   16.92676509
_cell_length_c   16.91024615
_cell_angle_alpha   89.96875217
_cell_angle_beta   89.97879406
_cell_angle_gamma   89.96938406
_symmetry_Int_Tables_number   1
_chemical_formula_structural   V85Zn86O256
_chemical_formula_sum   'V85 Zn86 O256'
_cell_volume   4844.25835445
_cell_formula_units_Z   1
loop_
 _symmetry_equiv_pos_site_id
 _symmetry_equiv_pos_as_xyz
  1  'x, y, z'
loop_
 _atom_site_type_symbol
 _atom_site_label
 _atom_site_symmetry_multiplicity
 _atom_site_fract_x
 _atom_site_fract_y
 _atom_site_fract_z
 _atom_site_occupancy
  V  V0  1  0.38026490  0.11977002  0.73931329  1
  V  V1  1  0.63136598  0.24783626  0.87358026  1
  V  V2  1  0.37328113  0.12450721  0.25084997  1
  V  V3  1  0.87847129  0.12261619  0.25482846  1
  V  V4  1  0.88181589  0.12086300  0.74486714  1
  V  V5  1  0.87265161  0.50322964  0.37244298  1
  V  V6  1  0.37566929  0.37549003  0.00616086  1
  V  V7  1  0.36970431  0.62653422  0.24744446  1
  V  V8  1  0.12906820  0.37602493  0.75160899  1
  V  V9  1  0.12580479  0.62493732  0.00320073  1
  V  V10  1  0.62375947  0.62429690  -0.00083928  1
  V  V11  1  0.75619175  -0.00132115  0.75478274  1
  V  V12  1  0.87007394  0.50453756  0.87434937  1
  V  V13  1  0.00081746  0.62730613  0.63252857  1
  V  V14  1  0.87158347  0.63150413  0.75338615  1
  V  V15  1  0.00613844  0.11924662  0.12522005  1
  V  V16  1  0.75620787  0.74517736  0.00488086  1
  V  V17  1  0.50524114  0.62748903  0.61516212  1
  V  V18  1  0.12011744  0.12887038  0.50708237  1
  V  V19  1  0.13356709  0.87823456  0.75178571  1
  V  V20  1  0.37156898  0.76296389  0.12078007  1
  V  V21  1  0.86186000  0.25029815  0.12217629  1
  V  V22  1  -0.00270912  0.50035513  0.00244969  1
  V  V23  1  0.00625145  0.26127026  0.24617416  1
  V  V24  1  0.37167473  0.49862595  0.38333133  1
  V  V25  1  0.62173085  0.00864178  0.62575560  1
  V  V26  1  -0.00759053  0.87674774  0.86545233  1
  V  V27  1  -0.00254998  0.00455572  0.49870627  1
  V  V28  1  0.63156811  0.37382422  0.74102144  1
  V  V29  1  0.12548294  0.24663044  0.87470191  1
  V  V30  1  0.25412505  0.49352704  0.74880651  1
  V  V31  1  0.75255628  0.49944059  0.74354528  1
  V  V32  1  0.74268886  0.49286232  0.23913019  1
  V  V33  1  0.24518335  0.12490325  0.37879645  1
  V  V34  1  -0.00103928  0.74978097  0.24798837  1
  V  V35  1  0.75181637  0.87588947  0.62368862  1
  V  V36  1  0.49764598  0.87235438  0.88009678  1
  V  V37  1  0.49536986  -0.00279133  0.00037493  1
  V  V38  1  0.37504984  0.49816292  0.88036363  1
  V  V39  1  0.87046759  0.62959500  0.24248109  1
  V  V40  1  0.25202390  0.12266397  0.86877625  1
  V  V41  1  0.24506399  0.48428276  0.24499239  1
  V  V42  1  0.49993655  0.87673578  0.37410116  1
  V  V43  1  0.50030214  0.62722994  0.12238594  1
  V  V44  1  0.49871019  0.37563370  0.38322867  1
  V  V45  1  0.24960002  0.26475017  0.50813685  1
  V  V46  1  -0.00297017  0.37267039  0.87486517  1
  V  V47  1  0.00311036  0.24678432  0.74146925  1
  V  V48  1  0.37184951  -0.00049451  0.37610358  1
  V  V49  1  0.24172318  0.00029370  0.23658599  1
  V  V50  1  0.86128911  0.36930477  0.00075539  1
  V  V51  1  0.88087246  0.75367313  0.62556474  1
  V  V52  1  0.00646345  -0.00329819  0.00054947  1
  V  V53  1  0.75208966  0.12626620  0.38087467  1
  V  V54  1  0.49885998  0.12244285  0.12615150  1
  V  V55  1  0.50042627  0.25076974  0.25364407  1
  V  V56  1  0.50177855  0.74835576  0.74998466  1
  V  V57  1  0.37678890  0.62402981  0.74909395  1
  V  V58  1  0.63123945  0.12400775  -0.00118954  1
  V  V59  1  0.37881403  0.26752224  0.62376389  1
  V  V60  1  0.87483294  0.87765466  0.48906132  1
  V  V61  1  0.87041212  0.25365289  0.62480906  1
  V  V62  1  0.50499907  0.37834331  0.87371672  1
  V  V63  1  0.00127245  0.50155609  0.49924090  1
  V  V64  1  0.62624127  0.87539148  0.74997767  1
  V  V65  1  0.24126869  0.63418005  0.37501085  1
  V  V66  1  0.49719992  0.00767100  0.50417053  1
  V  V67  1  0.86930129  0.37806139  0.50303126  1
  V  V68  1  0.75421803  -0.00174434  0.25836468  1
  V  V69  1  0.01312063  0.87195075  0.37781664  1
  V  V70  1  0.13069401  0.49921548  0.62512037  1
  V  V71  1  0.62739877  -0.00204719  0.12669849  1
  V  V72  1  0.63001659  0.50238660  0.61392204  1
  V  V73  1  0.11942294  0.75042929  0.86996929  1
  V  V74  1  0.25216399  0.76145505  0.00141054  1
  V  V75  1  0.55799818  0.45659368  0.06077524  1
  V  V76  1  0.12789805  0.87362778  0.23483967  1
  V  V77  1  0.63268076  0.74495059  0.87477664  1
  V  V78  1  0.62211452  0.74205106  0.38164699  1
  V  V79  1  0.25184495  0.24934132  0.00470824  1
  V  V80  1  0.75614942  0.87014918  0.12848742  1
  V  V81  1  0.12616932  0.00428962  0.63128931  1
  V  V82  1  0.75979690  0.12267703  0.87848059  1
  V  V83  1  0.87355567  0.88144375  -0.00146399  1
  V  V84  1  0.37083705  -0.00363313  0.87348790  1
  Zn  Zn85  1  0.62801182  0.25312533  0.37736744  1
  Zn  Zn86  1  0.12120128  0.48590807  0.13347916  1
  Zn  Zn87  1  0.62044667  0.13100134  0.50179124  1
  Zn  Zn88  1  0.24911443  0.62382322  0.87625850  1
  Zn  Zn89  1  0.74253568  0.62066990  0.37970492  1
  Zn  Zn90  1  0.12975476  0.11857410  0.00190132  1
  Zn  Zn91  1  0.25261317  0.87663719  0.62625599  1
  Zn  Zn92  1  0.49932680  0.50068303  0.49939736  1
  Zn  Zn93  1  0.37112774  0.25240066  0.12779444  1
  Zn  Zn94  1  0.62670655  0.87231126  0.25163749  1
  Zn  Zn95  1  0.12881684  0.25787846  0.36948640  1
  Zn  Zn96  1  0.00507992  0.38090831  0.36866980  1
  Zn  Zn97  1  0.24223145  0.75781089  0.50326768  1
  Zn  Zn98  1  0.50417799  0.24605838  0.74297427  1
  Zn  Zn99  1  0.37086182  0.87310613  0.50363816  1
  Zn  Zn100  1  0.49876638  0.75195097  0.24928069  1
  Zn  Zn101  1  0.74553612  0.74442268  0.50237834  1
  Zn  Zn102  1  0.62336682  0.37811551  0.24181528  1
  Zn  Zn103  1  0.74789126  0.25531506  0.50161855  1
  Zn  Zn104  1  -0.00393561  0.63093160  0.12324872  1
  Zn  Zn105  1  0.37091400  0.75295279  0.62334253  1
  Zn  Zn106  1  0.12038201  0.63289176  0.49644617  1
  Zn  Zn107  1  0.18567863  0.18584687  0.18593112  1
  Zn  Zn108  1  0.19271791  0.18555129  0.68626750  1
  Zn  Zn109  1  0.18463742  0.68834342  0.18529630  1
  Zn  Zn110  1  0.18863892  0.68718604  0.68917296  1
  Zn  Zn111  1  0.68569885  0.18386933  0.19321885  1
  Zn  Zn112  1  0.69294019  0.18662172  0.68857660  1
  Zn  Zn113  1  0.68343267  0.68594076  0.19216343  1
  Zn  Zn114  1  0.69152403  0.68582563  0.68472231  1
  Zn  Zn115  1  0.31478054  0.31125501  0.31906121  1
  Zn  Zn116  1  0.31528773  0.31035793  0.81402111  1
  Zn  Zn117  1  0.31099832  0.81506833  0.30939361  1
  Zn  Zn118  1  0.31208379  0.80969954  0.81477035  1
  Zn  Zn119  1  0.81566170  0.31484751  0.31169046  1
  Zn  Zn120  1  0.81226654  0.31116792  0.81158336  1
  Zn  Zn121  1  0.81237943  0.80868431  0.31553034  1
  Zn  Zn122  1  0.81281834  0.81027558  0.81421490  1
  Zn  Zn123  1  0.18384426  0.44125485  0.43194087  1
  Zn  Zn124  1  0.16990952  0.41734473  0.97109502  1
  Zn  Zn125  1  0.18576542  0.93951750  0.43905898  1
  Zn  Zn126  1  0.18589561  0.93712039  0.93616123  1
  Zn  Zn127  1  0.68752145  0.43590979  0.42985721  1
  Zn  Zn128  1  0.69232495  0.43852233  0.92773136  1
  Zn  Zn129  1  0.68440180  0.93627825  0.43887586  1
  Zn  Zn130  1  0.68734322  0.93666482  0.93753066  1
  Zn  Zn131  1  0.31453366  0.06326987  0.05931402  1
  Zn  Zn132  1  0.30633174  0.05943908  0.56227903  1
  Zn  Zn133  1  0.31116948  0.56399710  0.06284490  1
  Zn  Zn134  1  0.31187708  0.56722390  0.56254601  1
  Zn  Zn135  1  0.81675690  0.05973236  0.06734645  1
  Zn  Zn136  1  0.81613401  0.06192024  0.56702223  1
  Zn  Zn137  1  0.80983333  0.56256311  0.06258766  1
  Zn  Zn138  1  0.81179102  0.56724312  0.56063704  1
  Zn  Zn139  1  0.42870581  0.43494904  0.19714836  1
  Zn  Zn140  1  0.44595653  0.43949566  0.68900694  1
  Zn  Zn141  1  0.43465077  0.93932986  0.19077430  1
  Zn  Zn142  1  0.43797470  0.93684705  0.68930124  1
  Zn  Zn143  1  0.92807388  0.43810774  0.18221864  1
  Zn  Zn144  1  0.94003037  0.43688414  0.68634835  1
  Zn  Zn145  1  0.93746206  0.93621603  0.18834850  1
  Zn  Zn146  1  0.94259426  0.93973675  0.68249397  1
  Zn  Zn147  1  0.06239680  0.06117130  0.31634439  1
  Zn  Zn148  1  0.05978966  0.05913668  0.81688214  1
  Zn  Zn149  1  0.06260893  0.56228180  0.30849712  1
  Zn  Zn150  1  0.06095608  0.56257870  0.81517050  1
  Zn  Zn151  1  0.56615840  0.06268855  0.31562785  1
  Zn  Zn152  1  0.56127504  0.06201878  0.81177498  1
  Zn  Zn153  1  0.55812943  0.56198160  0.30843437  1
  Zn  Zn154  1  0.56438115  0.56145344  0.81070835  1
  Zn  Zn155  1  0.43339064  0.18950684  0.44062885  1
  Zn  Zn156  1  0.43990071  0.18714208  0.93384734  1
  Zn  Zn157  1  0.43059814  0.69062026  0.43691260  1
  Zn  Zn158  1  0.43837442  0.68622847  0.93869304  1
  Zn  Zn159  1  0.93797356  0.19037067  0.43453579  1
  Zn  Zn160  1  0.93850369  0.18586357  0.93826474  1
  Zn  Zn161  1  0.93698442  0.68900926  0.43569747  1
  Zn  Zn162  1  0.93717129  0.68988705  0.93712114  1
  Zn  Zn163  1  0.05771668  0.30929616  0.06355614  1
  Zn  Zn164  1  0.06313297  0.31901939  0.56157505  1
  Zn  Zn165  1  0.06001799  0.81047148  0.06193679  1
  Zn  Zn166  1  0.06669696  0.81194951  0.56441689  1
  Zn  Zn167  1  0.56366867  0.29383309  0.06201366  1
  Zn  Zn168  1  0.56251581  0.31183138  0.56121050  1
  Zn  Zn169  1  0.56524440  0.81124571  0.06395648  1
  Zn  Zn170  1  0.55837850  0.81867513  0.56148241  1
  O  O171  1  0.11028006  0.12615562  0.12146435  1
  O  O172  1  0.12584683  0.12017889  0.61836737  1
  O  O173  1  0.12085182  0.61914587  0.11306830  1
  O  O174  1  0.11547816  0.61557722  0.63060129  1
  O  O175  1  0.62123863  0.11879818  0.11724020  1
  O  O176  1  0.63163784  0.11262808  0.62497799  1
  O  O177  1  0.60888008  0.62870134  0.11979962  1
  O  O178  1  0.61724262  0.61519107  0.63207439  1
  O  O179  1  0.38396278  0.38719120  0.36940515  1
  O  O180  1  0.38819993  0.37770117  0.88163348  1
  O  O181  1  0.38095185  0.88409868  0.37329223  1
  O  O182  1  0.38484180  0.88411596  0.86848405  1
  O  O183  1  0.88321130  0.38753838  0.37924362  1
  O  O184  1  0.87888332  0.38032642  0.87857188  1
  O  O185  1  0.88233671  0.87279710  0.38590139  1
  O  O186  1  0.88199783  0.86955743  0.88404854  1
  O  O187  1  0.25166893  0.01228579  0.37006091  1
  O  O188  1  0.26333239  0.00536894  0.88236346  1
  O  O189  1  0.25516835  0.50778349  0.36456073  1
  O  O190  1  0.26624944  0.50057003  0.86652881  1
  O  O191  1  0.74585605  0.00422594  0.36404009  1
  O  O192  1  0.74557110  0.00617396  0.86271360  1
  O  O193  1  0.75821331  0.50151630  0.36530066  1
  O  O194  1  0.76277358  0.50132939  0.86246640  1
  O  O195  1  0.25225036  0.50425552  0.14277753  1
  O  O196  1  0.24216789  0.50697647  0.63414671  1
  O  O197  1  0.25129300  1.00848533  0.13725605  1
  O  O198  1  0.23158429  0.99800762  0.62393227  1
  O  O199  1  0.75329777  0.49954996  0.13998007  1
  O  O200  1  0.74581612  0.50357858  0.63537349  1
  O  O201  1  0.74653523  0.99291331  0.13490972  1
  O  O202  1  0.74505425  0.99491060  0.63587264  1
  O  O203  1  -0.00340137  0.36366721  0.24224981  1
  O  O204  1  0.00609911  0.36763078  0.75686362  1
  O  O205  1  0.00775805  0.87226623  0.25613234  1
  O  O206  1  0.00389509  0.87933742  0.76206314  1
  O  O207  1  0.49958653  0.36601497  0.25699715  1
  O  O208  1  0.51168125  0.37022604  0.75794051  1
  O  O209  1  0.50082502  0.87667645  0.26272702  1
  O  O210  1  0.50782294  0.86950897  0.76097523  1
  O  O211  1  0.49491493  0.12966048  0.24827802  1
  O  O212  1  0.48524599  0.12944922  0.75578476  1
  O  O213  1  0.48590027  0.62624534  0.24161196  1
  O  O214  1  0.49493363  0.62914689  0.74390054  1
  O  O215  1  0.99415402  0.12843482  0.24371227  1
  O  O216  1  0.99129541  0.13327722  0.75815434  1
  O  O217  1  0.99323197  0.63294695  0.24822161  1
  O  O218  1  0.98876235  0.61791061  0.73963514  1
  O  O219  1  0.37158562  0.25594425  -0.00083501  1
  O  O220  1  0.36257388  0.24607989  0.51443668  1
  O  O221  1  0.36044372  0.74468001  0.00327781  1
  O  O222  1  0.36659696  0.75327086  0.50380786  1
  O  O223  1  0.87787594  0.25423393  0.01222052  1
  O  O224  1  0.87973859  0.25949083  0.50826484  1
  O  O225  1  0.86055486  0.75618719  -0.00330601  1
  O  O226  1  0.87557505  0.76065846  0.50781700  1
  O  O227  1  0.13555301  0.24562395  0.50720990  1
  O  O228  1  0.13343559  0.24292383  0.99015898  1
  O  O229  1  0.12680787  0.74490997  0.50091315  1
  O  O230  1  0.13255512  0.74429866  0.99471750  1
  O  O231  1  0.63106301  0.24718120  0.49890958  1
  O  O232  1  0.62697582  0.23268791  0.99066755  1
  O  O233  1  0.62316801  0.75833557  0.48589119  1
  O  O234  1  0.63274167  0.74359928  0.99368191  1
  O  O235  1  0.49503461  0.23904552  0.13432000  1
  O  O236  1  0.48355495  0.25143791  0.62336442  1
  O  O237  1  0.49110096  0.74413857  0.12396278  1
  O  O238  1  0.50249745  0.74405499  0.63328976  1
  O  O239  1  0.99242857  0.24174062  0.13213647  1
  O  O240  1  0.99508526  0.25492209  0.63737214  1
  O  O241  1  1.00029509  0.75114071  0.14021372  1
  O  O242  1  0.98889742  0.74273830  0.62471517  1
  O  O243  1  -0.00358249  0.25153226  0.35389475  1
  O  O244  1  0.00480696  0.25323725  0.86664400  1
  O  O245  1  -0.00356801  0.76018017  0.36307348  1
  O  O246  1  0.00922204  0.76284431  0.88394312  1
  O  O247  1  0.49735731  0.25696334  0.36986947  1
  O  O248  1  0.51342308  0.25955237  0.87445194  1
  O  O249  1  0.50526090  0.75867585  0.37501725  1
  O  O250  1  0.50815606  0.75649291  0.87248413  1
  O  O251  1  0.23865903  0.13018042  0.49468481  1
  O  O252  1  0.25274324  0.13082615  0.98714921  1
  O  O253  1  0.24901386  0.62303505  0.48226158  1
  O  O254  1  0.23963847  0.62886326  0.99577388  1
  O  O255  1  0.75721201  0.12220493  0.48743769  1
  O  O256  1  0.74434507  0.11171001  0.99049249  1
  O  O257  1  0.75368730  0.63123361  0.49270152  1
  O  O258  1  0.73608878  0.63246923  1.00789887  1
  O  O259  1  0.26741223  0.35973818  -0.01611060  1
  O  O260  1  0.24744678  0.36261152  0.49818454  1
  O  O261  1  0.24627911  0.86036756  -0.00200274  1
  O  O262  1  0.25192304  0.87743641  0.50319663  1
  O  O263  1  0.76177075  0.37582815  -0.00708311  1
  O  O264  1  0.76564480  0.37598909  0.49304764  1
  O  O265  1  0.75536295  0.87007615  0.00651367  1
  O  O266  1  0.75905264  0.87588556  0.50612308  1
  O  O267  1  0.13884284  0.49863555  0.24879047  1
  O  O268  1  0.13459133  0.49723743  0.74808641  1
  O  O269  1  0.13016637  0.98911241  0.25328741  1
  O  O270  1  0.11732032  0.99238588  0.74323728  1
  O  O271  1  0.63814600  0.50119266  0.25093221  1
  O  O272  1  0.63494741  0.49344749  0.74492052  1
  O  O273  1  0.63444509  0.99848127  0.24329124  1
  O  O274  1  0.63135205  0.99569203  0.74499692  1
  O  O275  1  0.36498984  0.00596650  0.25718415  1
  O  O276  1  0.38030746  0.01190771  0.75869391  1
  O  O277  1  0.36341676  0.50868315  0.25755569  1
  O  O278  1  0.37180326  0.50359456  0.75442168  1
  O  O279  1  0.86687605  0.01014183  0.24495258  1
  O  O280  1  0.86872642  0.00794182  0.74370668  1
  O  O281  1  0.86744344  0.50501190  0.25536750  1
  O  O282  1  0.87007632  0.50462825  0.75428680  1
  O  O283  1  0.11618247  0.36894324  0.38243000  1
  O  O284  1  0.11742214  0.36701043  0.87189835  1
  O  O285  1  0.11500228  0.87818315  0.36774951  1
  O  O286  1  0.11596975  0.87056523  0.86963921  1
  O  O287  1  0.61375903  0.37315829  0.36761127  1
  O  O288  1  0.62290629  0.36698686  0.86755990  1
  O  O289  1  0.61511585  0.86933540  0.37321722  1
  O  O290  1  0.61940814  0.86739357  0.86989622  1
  O  O291  1  0.38233912  0.12442011  0.13303119  1
  O  O292  1  0.36868643  0.12449262  0.63807612  1
  O  O293  1  0.38225865  0.63210325  0.12822794  1
  O  O294  1  0.38467205  0.62329287  0.63699675  1
  O  O295  1  0.88196247  0.13381479  0.13241778  1
  O  O296  1  0.87578523  0.13396247  0.63742561  1
  O  O297  1  0.87619367  0.62090280  0.13794275  1
  O  O298  1  0.88164592  0.63309583  0.63231891  1
  O  O299  1  0.25228898  0.24127338  0.10945405  1
  O  O300  1  0.25957243  0.25008271  0.61551688  1
  O  O301  1  0.25586200  0.74468168  0.11040421  1
  O  O302  1  0.25206667  0.75473696  0.62734600  1
  O  O303  1  0.76308411  0.24158943  0.12883280  1
  O  O304  1  0.76579628  0.24808205  0.62349378  1
  O  O305  1  0.74166052  0.75844741  0.11754733  1
  O  O306  1  0.76027001  0.75853467  0.62433103  1
  O  O307  1  0.25240168  0.24133837  0.38883176  1
  O  O308  1  0.24678880  0.24050120  0.87964541  1
  O  O309  1  0.25381365  0.73548142  0.37085291  1
  O  O310  1  0.24233575  0.74683809  0.88590513  1
  O  O311  1  0.75224589  0.24105117  0.37546650  1
  O  O312  1  0.73953680  0.23901635  0.86949345  1
  O  O313  1  0.73239411  0.75102579  0.37600037  1
  O  O314  1  0.73826634  0.75421747  0.88477398  1
  O  O315  1  -0.00203171  0.11434717  0.00656155  1
  O  O316  1  0.01072121  0.12090266  0.49295482  1
  O  O317  1  0.00275197  0.61880877  0.00205950  1
  O  O318  1  -0.00390710  0.61592999  0.51112479  1
  O  O319  1  0.50856923  0.11680551  0.00280370  1
  O  O320  1  0.50094452  0.11207402  0.49368477  1
  O  O321  1  0.51137793  0.62592394  0.00666170  1
  O  O322  1  0.49577227  0.62493120  0.51256154  1
  O  O323  1  0.50044865  0.37779858  0.48732304  1
  O  O324  1  0.50278968  0.38099826  0.99612271  1
  O  O325  1  0.49670264  0.88797091  0.48912752  1
  O  O326  1  0.50758192  0.88174720  0.98858811  1
  O  O327  1  0.99134737  0.39037274  0.50269736  1
  O  O328  1  0.98641363  0.38242743  0.99148590  1
  O  O329  1  0.99551063  0.88098226  0.49342226  1
  O  O330  1  0.99159841  0.87936489  0.99619758  1
  O  O331  1  0.49089338  0.49452803  0.37499386  1
  O  O332  1  0.49284660  0.48650539  0.86776040  1
  O  O333  1  0.49385259  0.99522317  0.37984827  1
  O  O334  1  0.49451735  0.99280046  0.88129186  1
  O  O335  1  0.99398951  0.50358043  0.38307849  1
  O  O336  1  0.98785456  0.49434015  0.88046866  1
  O  O337  1  1.00302944  0.99128902  0.38890148  1
  O  O338  1  0.99756689  0.98915443  0.88627596  1
  O  O339  1  -0.00877591  0.00832124  0.11547785  1
  O  O340  1  0.01180485  -0.00251116  0.61008872  1
  O  O341  1  -0.00119975  0.49988875  0.11152793  1
  O  O342  1  0.00573703  0.50828319  0.61972672  1
  O  O343  1  0.50471570  0.00196226  0.11806471  1
  O  O344  1  0.50999853  -0.00438862  0.61741437  1
  O  O345  1  0.49285097  0.50766424  0.12621948  1
  O  O346  1  0.51084440  0.50837950  0.62311028  1
  O  O347  1  0.25555400  0.38518295  0.25070059  1
  O  O348  1  0.24682725  0.38596036  0.75634636  1
  O  O349  1  0.23538501  0.88374323  0.25285536  1
  O  O350  1  0.23634444  0.87604207  0.75620775  1
  O  O351  1  0.74664860  0.38770875  0.25142601  1
  O  O352  1  0.74217371  0.38373619  0.75402351  1
  O  O353  1  0.75271542  0.88095072  0.24479437  1
  O  O354  1  0.74718391  0.88205983  0.74670179  1
  O  O355  1  0.25109086  0.12159205  0.25836904  1
  O  O356  1  0.26342107  0.12821524  0.76121371  1
  O  O357  1  0.25607161  0.62337031  0.25648509  1
  O  O358  1  0.26019718  0.61477469  0.75481796  1
  O  O359  1  0.75743845  0.11783474  0.25900314  1
  O  O360  1  0.75941157  0.11693165  0.75697600  1
  O  O361  1  0.75534792  0.61715705  0.25464807  1
  O  O362  1  0.76348553  0.61720510  0.74725622  1
  O  O363  1  0.36561814  0.12029323  0.37054380  1
  O  O364  1  0.37095847  0.11832034  0.86702894  1
  O  O365  1  0.36847648  0.61869305  0.36432465  1
  O  O366  1  0.38033418  0.61463133  0.86606016  1
  O  O367  1  0.87068521  0.12880506  0.36161266  1
  O  O368  1  0.86441322  0.13105837  0.86614254  1
  O  O369  1  0.87669165  0.61378633  0.36574181  1
  O  O370  1  0.88109603  0.61738911  0.86609381  1
  O  O371  1  0.13276264  0.38805284  0.07931010  1
  O  O372  1  0.11954003  0.39135437  0.63488268  1
  O  O373  1  0.12079171  0.87779701  0.13606217  1
  O  O374  1  0.12100887  0.88297028  0.63871571  1
  O  O375  1  0.60915347  0.38427513  0.11842297  1
  O  O376  1  0.62016035  0.38331253  0.63537877  1
  O  O377  1  0.63623536  0.88091633  0.12630062  1
  O  O378  1  0.63140270  0.88353026  0.63124720  1
  O  O379  1  0.11002414  0.24863874  0.24617684  1
  O  O380  1  0.12074003  0.25331952  0.75322697  1
  O  O381  1  0.11963249  0.76468513  0.24701451  1
  O  O382  1  0.12645599  0.75676413  0.76408653  1
  O  O383  1  0.61130844  0.25133605  0.24984481  1
  O  O384  1  0.62582684  0.25587697  0.75346644  1
  O  O385  1  0.61851846  0.75320860  0.26238102  1
  O  O386  1  0.62394394  0.75312190  0.75786217  1
  O  O387  1  0.38320373  0.24337957  0.25000400  1
  O  O388  1  0.37502617  0.24189763  0.73723904  1
  O  O389  1  0.37400996  0.74329717  0.23953982  1
  O  O390  1  0.38263377  0.73873490  0.75370342  1
  O  O391  1  0.88242396  0.24511559  0.23859297  1
  O  O392  1  0.88306487  0.24528361  0.74370847  1
  O  O393  1  0.88130751  0.73970334  0.25507098  1
  O  O394  1  0.87115459  0.74178366  0.74241993  1
  O  O395  1  0.37475429  0.50516257  0.48700047  1
  O  O396  1  0.37089470  0.49173871  0.99099716  1
  O  O397  1  0.38022442  1.00146175  0.49306667  1
  O  O398  1  0.38870277  1.00386862  0.99166000  1
  O  O399  1  0.88131211  0.49647786  0.49386288  1
  O  O400  1  0.87705314  0.49561347  0.99236885  1
  O  O401  1  0.88527049  0.99045709  0.50879238  1
  O  O402  1  0.88027322  0.98646516  1.00164455  1
  O  O403  1  0.11193247  -0.00041869  -0.00195369  1
  O  O404  1  0.11792430  0.01145084  0.50575516  1
  O  O405  1  0.10950775  0.51477686  -0.01661509  1
  O  O406  1  0.11843495  0.50711865  0.50883461  1
  O  O407  1  0.61644343  0.00693388  0.00259620  1
  O  O408  1  0.61757338  0.00238257  0.50932616  1
  O  O409  1  0.62655745  0.50682246  -0.00488532  1
  O  O410  1  0.62664993  0.49407265  0.51139768  1
  O  O411  1  0.38174374  0.37317426  0.11034859  1
  O  O412  1  0.37576383  0.36603024  0.63097024  1
  O  O413  1  0.37919615  0.86252182  0.12654808  1
  O  O414  1  0.37269654  0.87335782  0.62590503  1
  O  O415  1  0.87463189  0.35941599  0.11619542  1
  O  O416  1  0.87988040  0.36732964  0.61669316  1
  O  O417  1  0.86286159  0.87575935  0.11765507  1
  O  O418  1  0.87300957  0.86852990  0.61934962  1
  O  O419  1  0.13141300  0.13367881  0.38227695  1
  O  O420  1  0.13554027  0.12773865  0.87416311  1
  O  O421  1  0.13869698  0.62150529  0.37275496  1
  O  O422  1  0.12228706  0.63550079  0.88134712  1
  O  O423  1  0.63762884  0.12894295  0.37733379  1
  O  O424  1  0.63351418  0.12889660  0.87867999  1
  O  O425  1  0.61785849  0.63905310  0.37314273  1
  O  O426  1  0.61888817  0.63415950  0.88375517  1
