# generated using pymatgen
data_V85Zn86O256
_symmetry_space_group_name_H-M   'P 1'
_cell_length_a   16.92256144
_cell_length_b   16.91941330
_cell_length_c   16.91835774
_cell_angle_alpha   89.99198305
_cell_angle_beta   90.00217387
_cell_angle_gamma   89.93504058
_symmetry_Int_Tables_number   1
_chemical_formula_structural   V85Zn86O256
_chemical_formula_sum   'V85 Zn86 O256'
_cell_volume   4844.05783014
_cell_formula_units_Z   1
loop_
 _symmetry_equiv_pos_site_id
 _symmetry_equiv_pos_as_xyz
  1  'x, y, z'
loop_
 _atom_site_type_symbol
 _atom_site_label
 _atom_site_symmetry_multiplicity
 _atom_site_fract_x
 _atom_site_fract_y
 _atom_site_fract_z
 _atom_site_occupancy
  V  V0  1  0.25402831  0.24751956  0.49688168  1
  V  V1  1  0.62722915  0.87641820  0.25084649  1
  V  V2  1  0.14566077  0.49781836  0.12712415  1
  V  V3  1  0.75511638  0.49648413  0.25587056  1
  V  V4  1  0.00637602  0.74808114  0.75835210  1
  V  V5  1  0.62595237  0.24901928  0.37584314  1
  V  V6  1  0.62226191  0.51537467  0.12468374  1
  V  V7  1  0.74622867  0.37463408  0.12368659  1
  V  V8  1  0.49800886  0.87310412  0.87399989  1
  V  V9  1  0.49141474  0.12361221  0.62851069  1
  V  V10  1  0.37380453  0.25244439  0.62978450  1
  V  V11  1  0.12476533  0.37761660  0.74425411  1
  V  V12  1  0.37484251  0.62442950  0.74912826  1
  V  V13  1  0.00064488  0.74618333  0.24593416  1
  V  V14  1  0.00350357  0.50059713  0.01492586  1
  V  V15  1  0.49658651  -0.00051215  0.00011184  1
  V  V16  1  0.74253000  0.25471651  -0.01341515  1
  V  V17  1  0.37366474  0.49540120  0.87613785  1
  V  V18  1  0.25088866  0.61795281  0.36669908  1
  V  V19  1  0.74964906  0.50334270  0.75436267  1
  V  V20  1  0.75023363  0.87482169  0.62393146  1
  V  V21  1  0.87971929  0.74838695  0.62495683  1
  V  V22  1  0.62549716  0.74981507  0.37430705  1
  V  V23  1  0.62235019  0.87290478  0.75027471  1
  V  V24  1  0.37212572  0.87904439  0.48907346  1
  V  V25  1  0.50243650  0.51197575  0.00450305  1
  V  V26  1  0.62571738  0.00063245  0.12418765  1
  V  V27  1  0.12502649  0.87740656  0.24901635  1
  V  V28  1  0.75165442  0.37566894  0.62612280  1
  V  V29  1  0.75245986  0.24576079  0.49547277  1
  V  V30  1  0.87893699  0.24950755  0.62440229  1
  V  V31  1  0.75149757  0.74929039  0.49929417  1
  V  V32  1  0.87692516  0.74915618  0.11975176  1
  V  V33  1  0.62331923  -0.00169251  0.62296523  1
  V  V34  1  0.49593043  0.12609303  0.12753359  1
  V  V35  1  0.87612943  0.50351535  0.87771566  1
  V  V36  1  0.24934222  0.87789782  0.62475706  1
  V  V37  1  -0.00488002  0.87884152  0.37973946  1
  V  V38  1  0.37899502  0.61423328  0.24515269  1
  V  V39  1  0.12328535  0.00554068  0.12255297  1
  V  V40  1  -0.00898361  0.88216229  0.87679914  1
  V  V41  1  0.11729456  -0.00107929  0.62074185  1
  V  V42  1  0.62136326  0.37653236  0.25008867  1
  V  V43  1  0.37135242  0.12084972  0.26568629  1
  V  V44  1  0.49969205  0.37880559  0.39161067  1
  V  V45  1  0.24872885  0.74889347  0.49710293  1
  V  V46  1  0.50552883  0.24686350  0.75792293  1
  V  V47  1  0.37135474  0.74653942  0.12152617  1
  V  V48  1  0.62666442  0.73585946  0.88075482  1
  V  V49  1  0.12426290  0.74772320  0.37367675  1
  V  V50  1  0.49355085  0.00159811  0.49151788  1
  V  V51  1  0.49798024  0.25185863  0.25178780  1
  V  V52  1  0.12913391  0.87307471  0.75947533  1
  V  V53  1  0.37744182  0.75164553  0.62213597  1
  V  V54  1  0.25250689  0.00232981  0.26233100  1
  V  V55  1  0.87468052  0.01503921  0.37931728  1
  V  V56  1  0.87546029  0.12006836  0.75720162  1
  V  V57  1  0.00366184  0.37622917  0.87553070  1
  V  V58  1  0.13855983  0.37587262  0.24640473  1
  V  V59  1  0.61743830  0.50054627  0.62222528  1
  V  V60  1  0.24685193  0.63781313  0.87940586  1
  V  V61  1  -0.00740329  0.24937547  0.24611046  1
  V  V62  1  0.36436139  0.87188139  -0.00135311  1
  V  V63  1  0.12770604  0.61265826  0.50408084  1
  V  V64  1  0.62754032  0.12403176  0.49773380  1
  V  V65  1  0.25155386  0.01630218  0.75024910  1
  V  V66  1  0.87422721  0.62514460  0.75474853  1
  V  V67  1  -0.01228225  0.50038477  0.49920891  1
  V  V68  1  0.36499368  0.25170563  0.13002689  1
  V  V69  1  0.62270190  0.12941386  -0.00905704  1
  V  V70  1  0.88176180  0.61899514  0.24608906  1
  V  V71  1  0.24395565  0.50008302  0.74913357  1
  V  V72  1  0.37108301  0.37584434  0.00697507  1
  V  V73  1  0.75708940  0.62289957  0.37589292  1
  V  V74  1  0.25136977  0.24280909  -0.00398616  1
  V  V75  1  0.25195998  0.37993140  0.61779150  1
  V  V76  1  0.36980005  0.01121353  0.87107277  1
  V  V77  1  0.12678119  0.63541903  0.00364971  1
  V  V78  1  0.75637789  0.01435314  0.25151956  1
  V  V79  1  0.12784535  0.24748212  0.37233915  1
  V  V80  1  0.87489780  0.37550098  0.00254670  1
  V  V81  1  0.37947153  0.49776275  0.39106172  1
  V  V82  1  0.50058536  0.74520827  0.24394078  1
  V  V83  1  0.12993360  0.24277932  0.87254097  1
  V  V84  1  0.12032852  0.12317487  0.49610957  1
  Zn  Zn85  1  0.49651592  0.87777336  0.37090537  1
  Zn  Zn86  1  0.24779494  0.87356380  0.12276795  1
  Zn  Zn87  1  0.62984236  0.36991993  0.75993093  1
  Zn  Zn88  1  -0.01167309  0.12218888  0.12547535  1
  Zn  Zn89  1  0.74109818  0.73435348  0.00189903  1
  Zn  Zn90  1  0.75343711  0.11606579  0.87895334  1
  Zn  Zn91  1  0.88021707  0.88044008  0.50119059  1
  Zn  Zn92  1  0.75175865  0.87363491  0.12181510  1
  Zn  Zn93  1  -0.00441018  0.11968332  0.62000367  1
  Zn  Zn94  1  -0.00554850  0.38305896  0.36924868  1
  Zn  Zn95  1  0.86356985  0.87989137  -0.00429812  1
  Zn  Zn96  1  0.12323011  0.12421911  -0.00161949  1
  Zn  Zn97  1  0.01058377  0.61820401  0.63055344  1
  Zn  Zn98  1  0.50051249  0.74503485  0.74761503  1
  Zn  Zn99  1  0.00007681  0.24987218  0.74843988  1
  Zn  Zn100  1  0.86736605  0.24289778  0.12710644  1
  Zn  Zn101  1  0.49149027  0.61569854  0.61250383  1
  Zn  Zn102  1  0.75458878  -0.00370607  0.75621411  1
  Zn  Zn103  1  0.51094946  0.37153436  0.88116376  1
  Zn  Zn104  1  0.62023143  0.62042501  0.49666776  1
  Zn  Zn105  1  0.87262563  0.37811769  0.49319375  1
  Zn  Zn106  1  -0.01117996  0.00966404  -0.00549506  1
  Zn  Zn107  1  0.18789825  0.18494274  0.18905659  1
  Zn  Zn108  1  0.18333117  0.18996230  0.68224662  1
  Zn  Zn109  1  0.19006824  0.68575512  0.18451149  1
  Zn  Zn110  1  0.19048650  0.68926723  0.68724800  1
  Zn  Zn111  1  0.68572682  0.18863563  0.18308076  1
  Zn  Zn112  1  0.68861346  0.18493235  0.68568548  1
  Zn  Zn113  1  0.69358603  0.68728849  0.18851766  1
  Zn  Zn114  1  0.68746158  0.68567645  0.68984429  1
  Zn  Zn115  1  0.31483557  0.31567940  0.31686939  1
  Zn  Zn116  1  0.31483327  0.31061367  0.81082686  1
  Zn  Zn117  1  0.31073236  0.80876672  0.30774314  1
  Zn  Zn118  1  0.31360099  0.81622606  0.81046632  1
  Zn  Zn119  1  0.81429736  0.31557419  0.31735123  1
  Zn  Zn120  1  0.81565488  0.31293001  0.81181199  1
  Zn  Zn121  1  0.81391492  0.81392978  0.30867347  1
  Zn  Zn122  1  0.80864398  0.80831439  0.81233921  1
  Zn  Zn123  1  0.18955307  0.43493615  0.43151325  1
  Zn  Zn124  1  0.19015449  0.43536016  0.93839370  1
  Zn  Zn125  1  0.18481714  0.93797584  0.43611563  1
  Zn  Zn126  1  0.18542776  0.94125006  0.93532825  1
  Zn  Zn127  1  0.68894530  0.43530761  0.43891727  1
  Zn  Zn128  1  0.68550217  0.44887452  0.93694797  1
  Zn  Zn129  1  0.69106440  0.93878708  0.43515344  1
  Zn  Zn130  1  0.69238556  0.93181442  0.93918199  1
  Zn  Zn131  1  0.30936517  0.06092153  0.06759412  1
  Zn  Zn132  1  0.30833591  0.06477256  0.56043552  1
  Zn  Zn133  1  0.31394372  0.56688810  0.06069408  1
  Zn  Zn134  1  0.30827836  0.56273900  0.56256480  1
  Zn  Zn135  1  0.81575164  0.06413605  0.06140007  1
  Zn  Zn136  1  0.81230008  0.06248290  0.56414428  1
  Zn  Zn137  1  0.81126789  0.56746790  0.06421322  1
  Zn  Zn138  1  0.81082958  0.56637598  0.56841533  1
  Zn  Zn139  1  0.43805459  0.43670011  0.18740098  1
  Zn  Zn140  1  0.43569617  0.43111257  0.69040633  1
  Zn  Zn141  1  0.43597954  0.93603502  0.18738119  1
  Zn  Zn142  1  0.43513695  0.93882370  0.68605403  1
  Zn  Zn143  1  0.93798874  0.43067320  0.19034988  1
  Zn  Zn144  1  0.94043385  0.44007545  0.68146268  1
  Zn  Zn145  1  0.93623303  0.93749615  0.18718632  1
  Zn  Zn146  1  0.93842889  0.93549427  0.69013482  1
  Zn  Zn147  1  0.06073040  0.06481839  0.31267109  1
  Zn  Zn148  1  0.06105591  0.06260482  0.80625296  1
  Zn  Zn149  1  0.06478630  0.55846113  0.31149678  1
  Zn  Zn150  1  0.06402200  0.56369036  0.81980158  1
  Zn  Zn151  1  0.56318861  0.06437924  0.31315455  1
  Zn  Zn152  1  0.56198403  0.05886406  0.81128017  1
  Zn  Zn153  1  0.56283030  0.56289713  0.31434786  1
  Zn  Zn154  1  0.55763572  0.55490092  0.80890788  1
  Zn  Zn155  1  0.43844757  0.19235755  0.44249152  1
  Zn  Zn156  1  0.43571907  0.18696371  0.94012951  1
  Zn  Zn157  1  0.44038756  0.68706234  0.43399161  1
  Zn  Zn158  1  0.43651963  0.68885109  0.93489292  1
  Zn  Zn159  1  0.94262540  0.19363054  0.43447635  1
  Zn  Zn160  1  0.93796997  0.19119947  0.94203585  1
  Zn  Zn161  1  0.93954664  0.68550136  0.43606725  1
  Zn  Zn162  1  0.94496450  0.68612694  0.93806944  1
  Zn  Zn163  1  0.06688595  0.31341554  0.06446305  1
  Zn  Zn164  1  0.06366957  0.31684544  0.55980593  1
  Zn  Zn165  1  0.05861516  0.81630371  0.06475085  1
  Zn  Zn166  1  0.06401979  0.80961200  0.56298099  1
  Zn  Zn167  1  0.55846485  0.31636201  0.06250497  1
  Zn  Zn168  1  0.56608411  0.31125116  0.57057147  1
  Zn  Zn169  1  0.55860741  0.81261684  0.06142985  1
  Zn  Zn170  1  0.56026712  0.80957865  0.55830722  1
  O  O171  1  0.12324932  0.11644175  0.12327777  1
  O  O172  1  0.12045809  0.11687439  0.61721353  1
  O  O173  1  0.13284335  0.60996989  0.11674823  1
  O  O174  1  0.12730864  0.63283074  0.61030409  1
  O  O175  1  0.61686523  0.11486277  0.12105418  1
  O  O176  1  0.61529300  0.12029013  0.61533706  1
  O  O177  1  0.62370742  0.61421470  0.13555759  1
  O  O178  1  0.62428018  0.61052244  0.62687888  1
  O  O179  1  0.38353016  0.38967040  0.37330622  1
  O  O180  1  0.37601668  0.38611423  0.88014055  1
  O  O181  1  0.37422401  0.86957224  0.38589174  1
  O  O182  1  0.38342512  0.87847526  0.87990132  1
  O  O183  1  0.88023393  0.37763580  0.38038348  1
  O  O184  1  0.88464219  0.38129732  0.88075000  1
  O  O185  1  0.88179131  0.88060054  0.37586515  1
  O  O186  1  0.88787825  0.86815248  0.87244633  1
  O  O187  1  0.24794760  -0.00200311  0.36218122  1
  O  O188  1  0.25730966  -0.00447862  0.86275387  1
  O  O189  1  0.26547870  0.50566328  0.37728110  1
  O  O190  1  0.25705643  0.50567971  0.86858344  1
  O  O191  1  0.76121078  -0.00218687  0.36301483  1
  O  O192  1  0.73673547  0.00352228  0.86770436  1
  O  O193  1  0.74402453  0.50641430  0.36375701  1
  O  O194  1  0.76101816  0.49585281  0.86144245  1
  O  O195  1  0.24394817  0.49667076  0.12329361  1
  O  O196  1  0.25460669  0.49158477  0.63538754  1
  O  O197  1  0.23799154  0.99555711  0.13308324  1
  O  O198  1  0.24248720  0.99519470  0.63108319  1
  O  O199  1  0.74216949  0.49066762  0.13535592  1
  O  O200  1  0.74640948  0.49337038  0.63459182  1
  O  O201  1  0.74085180  0.99849936  0.13687116  1
  O  O202  1  0.74260736  0.99007025  0.62762397  1
  O  O203  1  0.01291379  0.36599632  0.25022817  1
  O  O204  1  0.00821031  0.37775091  0.75635112  1
  O  O205  1  0.00661516  0.86780195  0.25916799  1
  O  O206  1  0.00651019  0.86900345  0.75862971  1
  O  O207  1  0.50523529  0.36944475  0.25751692  1
  O  O208  1  0.50103659  0.35889992  0.75261847  1
  O  O209  1  0.51090926  0.87131582  0.25155118  1
  O  O210  1  0.50425275  0.87266840  0.75577173  1
  O  O211  1  0.49368251  0.13069022  0.24581273  1
  O  O212  1  0.50451906  0.13365200  0.74092520  1
  O  O213  1  0.49228281  0.63414927  0.25471509  1
  O  O214  1  0.48362295  0.62216234  0.74459503  1
  O  O215  1  1.00964525  0.14604090  0.24809936  1
  O  O216  1  0.98904408  0.12877563  0.74362187  1
  O  O217  1  0.99306138  0.63215945  0.25849629  1
  O  O218  1  0.99934100  0.63163645  0.74937858  1
  O  O219  1  0.37060779  0.25568953  0.00794743  1
  O  O220  1  0.36562018  0.24632610  0.51333183  1
  O  O221  1  0.38245406  0.75857549  0.00906916  1
  O  O222  1  0.36876406  0.75695871  0.50407594  1
  O  O223  1  0.86200194  0.26004482  0.00132399  1
  O  O224  1  0.86759647  0.24823794  0.50599276  1
  O  O225  1  0.88418444  0.74702573  0.01397892  1
  O  O226  1  0.87163990  0.75028045  0.50934684  1
  O  O227  1  0.13040075  0.24718285  0.49108350  1
  O  O228  1  0.13560588  0.25405011  0.99103817  1
  O  O229  1  0.13008860  0.74225522  0.49158565  1
  O  O230  1  0.12217939  0.73380879  1.01306772  1
  O  O231  1  0.63194888  0.24250973  0.49932152  1
  O  O232  1  0.62957804  0.24127036  1.00868893  1
  O  O233  1  0.63390326  0.75016511  0.49127320  1
  O  O234  1  0.61540115  0.74924347  0.98414466  1
  O  O235  1  0.49022664  0.24555206  0.13258273  1
  O  O236  1  0.49253035  0.24311090  0.63100454  1
  O  O237  1  0.49095065  0.75597575  0.13726249  1
  O  O238  1  0.48599997  0.75049741  0.62587066  1
  O  O239  1  1.00036812  0.25412813  0.13749673  1
  O  O240  1  0.98752841  0.25369517  0.62349374  1
  O  O241  1  0.99531441  0.75306938  0.13932347  1
  O  O242  1  0.98993112  0.75208230  0.63430381  1
  O  O243  1  0.01094570  0.25587930  0.36420492  1
  O  O244  1  0.00759263  0.26434755  0.87485222  1
  O  O245  1  0.00485663  0.75547515  0.36552708  1
  O  O246  1  0.00129374  0.75797167  0.86297283  1
  O  O247  1  0.50473182  0.25888142  0.37130454  1
  O  O248  1  0.49221545  0.24789321  0.86056334  1
  O  O249  1  0.50767904  0.75430007  0.36248541  1
  O  O250  1  0.50363984  0.75746232  0.86902777  1
  O  O251  1  0.23817726  0.13979826  0.50676001  1
  O  O252  1  0.24945859  0.13865009  1.00256499  1
  O  O253  1  0.24478832  0.62908218  0.48962787  1
  O  O254  1  0.23844265  0.62159492  0.99260446  1
  O  O255  1  0.73932618  0.13344244  0.50728522  1
  O  O256  1  0.73897563  0.13698103  0.99972150  1
  O  O257  1  0.74896830  0.63015956  0.49209800  1
  O  O258  1  0.74326939  0.62254012  1.00060553  1
  O  O259  1  0.26418352  0.36608087  -0.00366822  1
  O  O260  1  0.24135878  0.36665529  0.51186086  1
  O  O261  1  0.26118666  0.87689674  -0.00209958  1
  O  O262  1  0.25450108  0.87070602  0.50380286  1
  O  O263  1  0.75136078  0.37359907  0.00707501  1
  O  O264  1  0.74997410  0.36681647  0.51132295  1
  O  O265  1  0.74798910  0.85661209  0.00414513  1
  O  O266  1  0.75101147  0.86927837  0.51104274  1
  O  O267  1  0.12433291  0.49147099  0.23649420  1
  O  O268  1  0.13632019  0.49496974  0.75602371  1
  O  O269  1  0.13053879  0.99375414  0.24699832  1
  O  O270  1  0.13239648  0.99293941  0.74201702  1
  O  O271  1  0.63078868  0.49442628  0.24478438  1
  O  O272  1  0.63467917  0.49886847  0.74161676  1
  O  O273  1  0.63088762  0.99487011  0.24654606  1
  O  O274  1  0.62053754  0.98571489  0.74071901  1
  O  O275  1  0.36624882  0.00842597  0.24541311  1
  O  O276  1  0.36382282  -0.00521789  0.75763252  1
  O  O277  1  0.38108363  0.51146855  0.25476739  1
  O  O278  1  0.36703565  0.50405753  0.75740325  1
  O  O279  1  0.86129820  -0.00253574  0.25674323  1
  O  O280  1  0.87425008  0.01570516  0.74308970  1
  O  O281  1  0.86668321  0.50533094  0.24497377  1
  O  O282  1  0.87196496  0.50705612  0.75289554  1
  O  O283  1  0.12362987  0.36927051  0.36211108  1
  O  O284  1  0.12091485  0.37107378  0.86524328  1
  O  O285  1  0.11854858  0.87071816  0.36503958  1
  O  O286  1  0.11843560  0.87621012  0.86289908  1
  O  O287  1  0.61842002  0.37112776  0.37019386  1
  O  O288  1  0.62396727  0.38028695  0.87288948  1
  O  O289  1  0.62501649  0.86808704  0.36744137  1
  O  O290  1  0.61184820  0.86951817  0.86712588  1
  O  O291  1  0.38026188  0.13274096  0.13146569  1
  O  O292  1  0.38605432  0.12995816  0.62138885  1
  O  O293  1  0.37228912  0.63211296  0.13351596  1
  O  O294  1  0.37132801  0.63240460  0.63121846  1
  O  O295  1  0.87353249  0.13038401  0.13027116  1
  O  O296  1  0.87627606  0.13315030  0.63083876  1
  O  O297  1  0.87650693  0.63003359  0.13949785  1
  O  O298  1  0.88100358  0.63272507  0.63643248  1
  O  O299  1  0.26053730  0.24769141  0.11886689  1
  O  O300  1  0.25614705  0.25794797  0.62094631  1
  O  O301  1  0.26594470  0.75495902  0.13167233  1
  O  O302  1  0.26004628  0.75620059  0.61796855  1
  O  O303  1  0.74549106  0.26439655  0.11992963  1
  O  O304  1  0.75781408  0.25679734  0.61815925  1
  O  O305  1  0.76295635  0.75131170  0.12711641  1
  O  O306  1  0.76067146  0.75423837  0.62267432  1
  O  O307  1  0.24386674  0.25743156  0.38668945  1
  O  O308  1  0.24252079  0.25497651  0.88170506  1
  O  O309  1  0.24469571  0.74112568  0.37847049  1
  O  O310  1  0.25573144  0.73677059  0.87015308  1
  O  O311  1  0.74306331  0.25414091  0.38828625  1
  O  O312  1  0.74973297  0.24942685  0.88467143  1
  O  O313  1  0.74629645  0.74371933  0.37723502  1
  O  O314  1  0.72967892  0.75160790  0.87289178  1
  O  O315  1  0.00476687  0.12608687  0.00479694  1
  O  O316  1  0.01489474  0.13102000  0.50136456  1
  O  O317  1  0.01733159  0.61347232  -0.00468772  1
  O  O318  1  0.00949567  0.61730443  0.50088791  1
  O  O319  1  0.50380994  0.12036145  0.00831373  1
  O  O320  1  0.50444715  0.11875581  0.50757887  1
  O  O321  1  0.49090575  0.61011997  0.00021549  1
  O  O322  1  0.50667481  0.62933424  0.50125938  1
  O  O323  1  0.50660511  0.36939069  0.49069740  1
  O  O324  1  0.48624345  0.38134347  0.99853363  1
  O  O325  1  0.48992312  0.88352135  0.49868525  1
  O  O326  1  0.49178999  0.88179878  0.99131036  1
  O  O327  1  1.00042083  0.39081025  0.49882487  1
  O  O328  1  0.99796225  0.38088877  0.99422948  1
  O  O329  1  1.00193949  0.86961257  0.48414762  1
  O  O330  1  1.00235717  0.87272563  0.98171146  1
  O  O331  1  0.48984861  0.49331153  0.37401505  1
  O  O332  1  0.49096677  0.49859538  0.88613915  1
  O  O333  1  0.50287024  0.99851167  0.38789474  1
  O  O334  1  0.49242249  0.99135567  0.87863217  1
  O  O335  1  1.00864211  0.50194492  0.39370167  1
  O  O336  1  0.99793242  0.49007440  0.88449612  1
  O  O337  1  0.98403849  0.99333601  0.36492338  1
  O  O338  1  1.00333907  0.98522062  0.87148773  1
  O  O339  1  0.01314991  -0.00017283  0.12952229  1
  O  O340  1  0.01334918  -0.00387796  0.62586825  1
  O  O341  1  0.00606829  0.49427959  0.11660668  1
  O  O342  1  0.00360889  0.50283248  0.60796282  1
  O  O343  1  0.50508458  0.00570102  0.12094219  1
  O  O344  1  0.50343743  0.00622680  0.61658378  1
  O  O345  1  0.50669371  0.49663704  0.11356213  1
  O  O346  1  0.51418758  0.49564507  0.63224867  1
  O  O347  1  0.23797157  0.37254238  0.25175264  1
  O  O348  1  0.24442847  0.38215037  0.74380121  1
  O  O349  1  0.24095600  0.88117607  0.24961676  1
  O  O350  1  0.24281725  0.87864772  0.74291338  1
  O  O351  1  0.74369659  0.38001230  0.24495451  1
  O  O352  1  0.75337687  0.38105840  0.73962306  1
  O  O353  1  0.73727592  0.88142680  0.24751695  1
  O  O354  1  0.74201079  0.87279403  0.73895803  1
  O  O355  1  0.25993078  0.11590214  0.24782264  1
  O  O356  1  0.24615721  0.11542129  0.74424952  1
  O  O357  1  0.25975610  0.62920813  0.26111046  1
  O  O358  1  0.25634204  0.61805517  0.75495429  1
  O  O359  1  0.74124159  0.11248164  0.25129127  1
  O  O360  1  0.76279215  0.12532036  0.75017725  1
  O  O361  1  0.75917493  0.61542218  0.25622497  1
  O  O362  1  0.76207622  0.61600952  0.74579032  1
  O  O363  1  0.38104096  0.12990158  0.36458598  1
  O  O364  1  0.37784819  0.11009632  0.87869330  1
  O  O365  1  0.37060572  0.61509918  0.36906323  1
  O  O366  1  0.36868379  0.61570526  0.86881906  1
  O  O367  1  0.87953969  0.11392845  0.37658417  1
  O  O368  1  0.87535497  0.13394081  0.85994162  1
  O  O369  1  0.86367872  0.63005528  0.36519075  1
  O  O370  1  0.88549021  0.61948550  0.86289850  1
  O  O371  1  0.12764615  0.38543040  0.13487606  1
  O  O372  1  0.13305951  0.36991440  0.63819656  1
  O  O373  1  0.12478030  0.87974902  0.13667996  1
  O  O374  1  0.13067072  0.88081911  0.62946579  1
  O  O375  1  0.62925211  0.38256048  0.13160262  1
  O  O376  1  0.63428774  0.38380211  0.63181404  1
  O  O377  1  0.62189334  0.88723156  0.13077022  1
  O  O378  1  0.63012451  0.87498682  0.62987263  1
  O  O379  1  0.12436730  0.25982988  0.25381669  1
  O  O380  1  0.12321461  0.25916625  0.75565928  1
  O  O381  1  0.12007811  0.75516171  0.25279160  1
  O  O382  1  0.11764227  0.76020397  0.74201360  1
  O  O383  1  0.61961708  0.25510384  0.25583698  1
  O  O384  1  0.60969539  0.24970478  0.74200012  1
  O  O385  1  0.62061851  0.75700878  0.25233444  1
  O  O386  1  0.62120728  0.75937994  0.75300585  1
  O  O387  1  0.37671665  0.24434337  0.24582703  1
  O  O388  1  0.38388142  0.25001964  0.73816118  1
  O  O389  1  0.38361283  0.74189310  0.24518801  1
  O  O390  1  0.37350999  0.74191222  0.74038169  1
  O  O391  1  0.88947823  0.25677061  0.25004340  1
  O  O392  1  0.87680803  0.24292528  0.74056370  1
  O  O393  1  0.88280362  0.74187307  0.24376128  1
  O  O394  1  0.88148904  0.74294975  0.74519637  1
  O  O395  1  0.37686591  0.50374496  0.48979392  1
  O  O396  1  0.38022837  0.49446372  0.99613543  1
  O  O397  1  0.38107086  0.99190792  0.50547434  1
  O  O398  1  0.37756541  0.99292138  0.99474330  1
  O  O399  1  0.88493280  0.50527138  0.50269051  1
  O  O400  1  0.88534950  0.49534752  0.99926491  1
  O  O401  1  0.86830636  0.99877287  0.48427678  1
  O  O402  1  0.87638516  0.99236979  1.00192079  1
  O  O403  1  0.12204849  0.00153521  0.00898609  1
  O  O404  1  0.13251404  0.01005833  0.50764786  1
  O  O405  1  0.12317245  0.49893336  0.01305941  1
  O  O406  1  0.12809629  0.51066972  0.49719525  1
  O  O407  1  0.61832833  0.00550151  0.00934392  1
  O  O408  1  0.61911135  0.00531958  0.50333607  1
  O  O409  1  0.60979490  0.49902056  0.00929403  1
  O  O410  1  0.63413900  0.49966366  0.51858711  1
  O  O411  1  0.37813864  0.36471286  0.11974344  1
  O  O412  1  0.36391970  0.36695461  0.62734714  1
  O  O413  1  0.37381723  0.86854461  0.11487508  1
  O  O414  1  0.36886186  0.86875775  0.61635834  1
  O  O415  1  0.86343099  0.37314201  0.11947878  1
  O  O416  1  0.86790687  0.36869740  0.62009466  1
  O  O417  1  0.87395745  0.86244347  0.12654021  1
  O  O418  1  0.86823793  0.86864658  0.62406732  1
  O  O419  1  0.12421512  0.13774019  0.37969400  1
  O  O420  1  0.11902089  0.13982274  0.87242361  1
  O  O421  1  0.13517714  0.62729776  0.37820363  1
  O  O422  1  0.13409462  0.62155575  0.89127362  1
  O  O423  1  0.61792240  0.13222689  0.38968982  1
  O  O424  1  0.61863983  0.12376464  0.88896870  1
  O  O425  1  0.63843170  0.63270018  0.37193619  1
  O  O426  1  0.61439130  0.63885859  0.86385898  1
