# generated using pymatgen
data_V85Zn86O256
_symmetry_space_group_name_H-M   'P 1'
_cell_length_a   16.96248045
_cell_length_b   16.94585857
_cell_length_c   16.97439926
_cell_angle_alpha   90.04659984
_cell_angle_beta   89.98741132
_cell_angle_gamma   90.07988706
_symmetry_Int_Tables_number   1
_chemical_formula_structural   V85Zn86O256
_chemical_formula_sum   'V85 Zn86 O256'
_cell_volume   4879.17926093
_cell_formula_units_Z   1
loop_
 _symmetry_equiv_pos_site_id
 _symmetry_equiv_pos_as_xyz
  1  'x, y, z'
loop_
 _atom_site_type_symbol
 _atom_site_label
 _atom_site_symmetry_multiplicity
 _atom_site_fract_x
 _atom_site_fract_y
 _atom_site_fract_z
 _atom_site_occupancy
  V  V0  1  0.56411246  0.57123032  -0.04891880  1
  V  V1  1  0.12548343  0.12751613  0.00019147  1
  V  V2  1  0.75098449  0.12550328  0.37745557  1
  V  V3  1  0.62663453  0.86810252  0.25466377  1
  V  V4  1  0.24855470  0.73987779  0.00042420  1
  V  V5  1  0.37641500  0.50160136  0.37309326  1
  V  V6  1  0.50362573  0.86628107  0.37777077  1
  V  V7  1  0.38453751  0.39105642  -0.00516205  1
  V  V8  1  0.00927002  0.87416661  0.36187990  1
  V  V9  1  0.62028280  0.12122753  0.49939480  1
  V  V10  1  0.74600606  0.74215144  -0.00181615  1
  V  V11  1  0.12221547  0.38240345  0.74804026  1
  V  V12  1  0.38249675  0.74419882  0.12872803  1
  V  V13  1  0.49892689  0.12327733  0.12768029  1
  V  V14  1  0.37567935  0.13417343  0.74958727  1
  V  V15  1  0.50083101  0.25130735  0.25310811  1
  V  V16  1  0.75132432  -0.00097637  0.25009955  1
  V  V17  1  0.24481425  0.62341606  0.37648083  1
  V  V18  1  0.37212026  0.87664839  0.00164446  1
  V  V19  1  0.00090450  0.13149614  0.12562357  1
  V  V20  1  0.75133310  0.00480601  0.74720342  1
  V  V21  1  0.75059998  0.87238120  0.62455850  1
  V  V22  1  0.63802088  0.38034380  0.25133981  1
  V  V23  1  0.38351053  -0.00045889  0.37909565  1
  V  V24  1  0.88776436  0.62783044  0.74778867  1
  V  V25  1  0.86480427  0.49986323  0.37167324  1
  V  V26  1  0.75036982  0.50287209  0.74697995  1
  V  V27  1  0.62605216  -0.00109754  0.12507313  1
  V  V28  1  0.37592041  0.37540411  0.50235038  1
  V  V29  1  0.24589557  0.87168343  0.13091796  1
  V  V30  1  0.25054402  0.87288261  0.62422998  1
  V  V31  1  0.24455122  0.49455399  0.25024253  1
  V  V32  1  0.25718439  0.50364683  0.76403131  1
  V  V33  1  0.87631240  -0.00052134  0.37474495  1
  V  V34  1  0.24606135  0.74511247  0.50019517  1
  V  V35  1  0.00060940  0.37731837  0.88567814  1
  V  V36  1  0.75289638  0.37447776  0.62500409  1
  V  V37  1  -0.00089291  0.24537947  0.75052091  1
  V  V38  1  -0.00065410  0.86512657  0.87184328  1
  V  V39  1  0.12364457  0.12788341  0.50259029  1
  V  V40  1  0.37578035  0.12436203  0.25336269  1
  V  V41  1  0.75276062  0.63105535  0.35989490  1
  V  V42  1  0.50277471  0.00037427  -0.00211869  1
  V  V43  1  0.12490428  -0.00041791  0.62644348  1
  V  V44  1  0.85938545  0.36930307  -0.00575163  1
  V  V45  1  0.24657096  0.12257423  0.87448413  1
  V  V46  1  0.50136274  0.37676116  0.37498611  1
  V  V47  1  0.37543650  0.63065734  0.76260050  1
  V  V48  1  0.88780165  0.74763770  0.62941209  1
  V  V49  1  0.75267019  0.87415639  0.12396428  1
  V  V50  1  0.12359742  -0.00359574  0.13090631  1
  V  V51  1  0.61840549  0.75324227  0.87422788  1
  V  V52  1  0.62763461  0.25128057  0.37790512  1
  V  V53  1  0.37345797  -0.00143814  0.87448837  1
  V  V54  1  0.05824710  0.56655405  0.56419218  1
  V  V55  1  0.24638372  0.38290023  0.62489746  1
  V  V56  1  0.87594799  0.12746145  0.25066415  1
  V  V57  1  0.00326758  0.26262096  0.25391940  1
  V  V58  1  0.12750651  0.73942560  0.87393854  1
  V  V59  1  0.63193258  0.63022873  0.49778719  1
  V  V60  1  0.23911697  0.37391871  0.12636383  1
  V  V61  1  0.75122434  0.13113836  0.87969345  1
  V  V62  1  0.87563366  0.24152545  0.62585445  1
  V  V63  1  0.87420233  0.87124170  0.00088839  1
  V  V64  1  0.11185820  0.61843806  0.00782428  1
  V  V65  1  0.24809684  -0.00207737  0.25103023  1
  V  V66  1  0.61667090  0.87259314  0.74725769  1
  V  V67  1  0.24928994  0.12589214  0.37707512  1
  V  V68  1  0.61876572  0.51466968  0.13296156  1
  V  V69  1  0.00227970  0.73009750  0.24166007  1
  V  V70  1  0.37943669  0.87637836  0.50182669  1
  V  V71  1  0.87805181  0.87160676  0.49804252  1
  V  V72  1  0.00142786  -0.00142258  0.49992906  1
  V  V73  1  0.00162241  -0.00159065  -0.00074653  1
  V  V74  1  0.49867789  0.13128256  0.62449222  1
  V  V75  1  0.25288334  0.25049840  0.00062397  1
  V  V76  1  0.86617091  0.25202311  0.11962241  1
  V  V77  1  0.00901179  0.38498073  0.38405996  1
  V  V78  1  0.87686909  0.00187833  0.86779334  1
  V  V79  1  0.87709434  0.50184018  0.87860306  1
  V  V80  1  0.49602332  0.63175802  0.62295784  1
  V  V81  1  0.24895205  -0.00082435  0.75023803  1
  V  V82  1  0.61079934  0.36506883  0.74804637  1
  V  V83  1  0.61620300  -0.00192476  0.62269404  1
  V  V84  1  0.12203326  0.86600725  0.74927677  1
  Zn  Zn85  1  0.74645769  0.62570425  0.87152811  1
  Zn  Zn86  1  0.87609544  0.72735406  0.12926902  1
  Zn  Zn87  1  0.63564856  0.13745408  0.00428826  1
  Zn  Zn88  1  0.37701854  0.25665026  0.62955001  1
  Zn  Zn89  1  0.12398220  0.25170058  0.87416920  1
  Zn  Zn90  1  0.50279215  0.50284682  0.50068166  1
  Zn  Zn91  1  0.62498131  0.50054864  0.62192868  1
  Zn  Zn92  1  0.74643572  0.37613046  0.12181934  1
  Zn  Zn93  1  0.37751027  0.75110618  0.62933283  1
  Zn  Zn94  1  0.74943930  0.75121859  0.49455845  1
  Zn  Zn95  1  0.25011566  0.25166638  0.50364577  1
  Zn  Zn96  1  0.49761068  0.87698220  0.86861232  1
  Zn  Zn97  1  0.11890136  0.50618258  0.13120272  1
  Zn  Zn98  1  -0.00391441  0.12143530  0.63093555  1
  Zn  Zn99  1  0.12641186  0.75035075  0.37117024  1
  Zn  Zn100  1  0.38173681  0.61796247  0.24487582  1
  Zn  Zn101  1  0.37509850  0.25625164  0.12788125  1
  Zn  Zn102  1  0.12751486  0.25466159  0.37269038  1
  Zn  Zn103  1  0.50876632  0.73984820  0.24971038  1
  Zn  Zn104  1  0.88149366  0.38182279  0.50542829  1
  Zn  Zn105  1  0.58706204  0.27574617  0.89422065  1
  Zn  Zn106  1  0.75257941  0.25188571  0.50146593  1
  Zn  Zn107  1  0.18582584  0.18912751  0.18804363  1
  Zn  Zn108  1  0.18796451  0.19438481  0.68654947  1
  Zn  Zn109  1  0.18786663  0.68547261  0.19231415  1
  Zn  Zn110  1  0.18927874  0.68241241  0.68486823  1
  Zn  Zn111  1  0.68505472  0.18823867  0.19060286  1
  Zn  Zn112  1  0.68835398  0.18719035  0.69054301  1
  Zn  Zn113  1  0.69062951  0.68913037  0.18299382  1
  Zn  Zn114  1  0.68926649  0.68856091  0.68554553  1
  Zn  Zn115  1  0.31208308  0.31350937  0.31248228  1
  Zn  Zn116  1  0.31100310  0.31549784  0.81690580  1
  Zn  Zn117  1  0.31299988  0.81214760  0.31230540  1
  Zn  Zn118  1  0.30977510  0.81016085  0.81427677  1
  Zn  Zn119  1  0.81914206  0.31432835  0.31609456  1
  Zn  Zn120  1  0.81412292  0.31391539  0.80457131  1
  Zn  Zn121  1  0.81939059  0.80773365  0.30969675  1
  Zn  Zn122  1  0.80808834  0.81129761  0.81019138  1
  Zn  Zn123  1  0.18496878  0.44335955  0.44370378  1
  Zn  Zn124  1  0.18811759  0.43590406  0.93969446  1
  Zn  Zn125  1  0.18985743  0.93851285  0.43926369  1
  Zn  Zn126  1  0.18608295  0.93297674  0.94035882  1
  Zn  Zn127  1  0.68953632  0.44306086  0.44069268  1
  Zn  Zn128  1  0.68563766  0.43618140  0.93095440  1
  Zn  Zn129  1  0.68797969  0.93712422  0.43852359  1
  Zn  Zn130  1  0.68764106  0.93929849  0.93471730  1
  Zn  Zn131  1  0.31320042  0.06218283  0.06458451  1
  Zn  Zn132  1  0.31273225  0.06104489  0.56225371  1
  Zn  Zn133  1  0.31042876  0.56072511  0.06195418  1
  Zn  Zn134  1  0.31094452  0.56107307  0.56457084  1
  Zn  Zn135  1  0.81686588  0.06102037  0.06032625  1
  Zn  Zn136  1  0.81020365  0.06157774  0.56112044  1
  Zn  Zn137  1  0.79971160  0.55562242  0.06105097  1
  Zn  Zn138  1  0.82307044  0.56173414  0.56006537  1
  Zn  Zn139  1  0.43654504  0.43628478  0.18185919  1
  Zn  Zn140  1  0.43549516  0.44740260  0.68493300  1
  Zn  Zn141  1  0.43737769  0.93320410  0.19060274  1
  Zn  Zn142  1  0.43736632  0.94400965  0.68522589  1
  Zn  Zn143  1  0.93501624  0.54407128  0.17815593  1
  Zn  Zn144  1  0.93904244  0.43841617  0.68845623  1
  Zn  Zn145  1  0.93660202  0.93741968  0.18491635  1
  Zn  Zn146  1  0.93897361  0.93419532  0.68714161  1
  Zn  Zn147  1  0.06170994  0.06563100  0.31214135  1
  Zn  Zn148  1  0.06179755  0.05932851  0.81223535  1
  Zn  Zn149  1  0.06532194  0.55921528  0.32020131  1
  Zn  Zn150  1  0.06368281  0.55916172  0.81032269  1
  Zn  Zn151  1  0.56416052  0.05797075  0.31366364  1
  Zn  Zn152  1  0.54614182  0.10207065  0.83045945  1
  Zn  Zn153  1  0.56482365  0.56485936  0.31329439  1
  Zn  Zn154  1  0.56063510  0.56041795  0.79110463  1
  Zn  Zn155  1  0.43913738  0.18971402  0.44149452  1
  Zn  Zn156  1  0.43375925  0.18828127  0.94097748  1
  Zn  Zn157  1  0.43581770  0.68692973  0.43871345  1
  Zn  Zn158  1  0.43521926  0.69383296  0.93852599  1
  Zn  Zn159  1  0.93804303  0.19156048  0.44102130  1
  Zn  Zn160  1  0.93630538  0.18797237  0.93546294  1
  Zn  Zn161  1  0.93723842  0.68558228  0.43510071  1
  Zn  Zn162  1  0.93497907  0.68508039  0.93818059  1
  Zn  Zn163  1  0.01634142  0.36927782  0.10301827  1
  Zn  Zn164  1  0.06430234  0.31299036  0.56556496  1
  Zn  Zn165  1  0.06255673  0.80848728  0.06354893  1
  Zn  Zn166  1  0.06388270  0.80749252  0.55850487  1
  Zn  Zn167  1  0.56157214  0.31313013  0.06821264  1
  Zn  Zn168  1  0.56452741  0.31261288  0.56340697  1
  Zn  Zn169  1  0.56325382  0.81430587  0.06056124  1
  Zn  Zn170  1  0.56181930  0.80872737  0.55892529  1
  O  O171  1  0.12012408  0.11841849  0.11811417  1
  O  O172  1  0.12575061  0.11935660  0.61747067  1
  O  O173  1  0.12839190  0.62502926  0.11160798  1
  O  O174  1  0.11561531  0.62218266  0.62815550  1
  O  O175  1  0.61527887  0.11816349  0.12638698  1
  O  O176  1  0.61873318  0.11871955  0.62031959  1
  O  O177  1  0.62230626  0.61500021  0.13146573  1
  O  O178  1  0.61885134  0.62644035  0.61586857  1
  O  O179  1  0.37916437  0.38311743  0.38133768  1
  O  O180  1  0.37036290  0.36699639  0.89660849  1
  O  O181  1  0.38081988  0.88194306  0.38070993  1
  O  O182  1  0.37643640  0.88053061  0.88123327  1
  O  O183  1  0.88419932  0.38389736  0.37960899  1
  O  O184  1  0.87986814  0.37975888  0.87616028  1
  O  O185  1  0.88430134  0.87969213  0.38141899  1
  O  O186  1  0.88158605  0.87992527  0.87923545  1
  O  O187  1  0.25734069  0.00857926  0.37121450  1
  O  O188  1  0.25187257  0.00240649  0.87041174  1
  O  O189  1  0.25728227  0.50324258  0.37077386  1
  O  O190  1  0.25108290  0.49607670  0.86218029  1
  O  O191  1  0.75782969  0.00453720  0.36997008  1
  O  O192  1  0.76040130  0.00068124  0.86514860  1
  O  O193  1  0.75801152  0.50884303  0.37416802  1
  O  O194  1  0.75586659  0.50128050  0.86175429  1
  O  O195  1  0.24655794  0.49262102  0.13359596  1
  O  O196  1  0.25583847  0.48754883  0.63646841  1
  O  O197  1  0.24253363  0.99344706  0.12973412  1
  O  O198  1  0.24357789  0.99276161  0.63017279  1
  O  O199  1  0.72567961  0.49067153  0.11794829  1
  O  O200  1  0.75496033  0.49274891  0.63364892  1
  O  O201  1  0.74702842  0.99513387  0.12988785  1
  O  O202  1  0.74651231  0.99061291  0.62944306  1
  O  O203  1  -0.00051796  0.36219753  0.26498606  1
  O  O204  1  0.00763000  0.36902289  0.75722248  1
  O  O205  1  0.00065751  0.88137200  0.26187002  1
  O  O206  1  0.01173005  0.87966680  0.75952540  1
  O  O207  1  0.50363710  0.36689814  0.25815175  1
  O  O208  1  0.51238936  0.37928475  0.73850867  1
  O  O209  1  0.51026693  0.87387350  0.25872472  1
  O  O210  1  0.51281249  0.88154040  0.74739144  1
  O  O211  1  0.49718206  0.12822647  0.24689705  1
  O  O212  1  0.48469675  0.10999213  0.73449414  1
  O  O213  1  0.49324199  0.62953274  0.25936970  1
  O  O214  1  0.48341646  0.62460650  0.73951927  1
  O  O215  1  0.99282250  0.13083075  0.24365555  1
  O  O216  1  1.00903276  0.13948999  0.74985465  1
  O  O217  1  1.00026224  0.62800241  0.25162884  1
  O  O218  1  0.98694699  0.62395371  0.75512749  1
  O  O219  1  0.35947686  0.23940772  0.00779064  1
  O  O220  1  0.37254872  0.26416451  0.49950670  1
  O  O221  1  0.36661406  0.75719474  0.00976079  1
  O  O222  1  0.36596374  0.76309446  0.49969281  1
  O  O223  1  0.87830754  0.25455521  0.00877458  1
  O  O224  1  0.87256663  0.25538144  0.51082116  1
  O  O225  1  0.86801669  0.76004706  -0.00153923  1
  O  O226  1  0.87520723  0.76123077  0.50586529  1
  O  O227  1  0.12686358  0.23719940  0.49825364  1
  O  O228  1  0.13638937  0.23328108  0.99907302  1
  O  O229  1  0.14206215  0.75880786  0.49245232  1
  O  O230  1  0.13040763  0.74225382  0.99438498  1
  O  O231  1  0.62832162  0.24081236  0.49454458  1
  O  O232  1  0.61970440  0.24881571  0.99759821  1
  O  O233  1  0.62905189  0.73609889  0.49912443  1
  O  O234  1  0.63615245  0.76280419  0.99011344  1
  O  O235  1  0.49667007  0.23819408  0.13610359  1
  O  O236  1  0.49709514  0.23550379  0.62050742  1
  O  O237  1  0.48469100  0.76031766  0.12554488  1
  O  O238  1  0.49709845  0.73817283  0.62129721  1
  O  O239  1  0.98958952  0.25614302  0.13897652  1
  O  O240  1  0.99360305  0.24780487  0.63258711  1
  O  O241  1  0.99904050  0.75130705  0.13877028  1
  O  O242  1  0.98647995  0.76336314  0.62801172  1
  O  O243  1  -0.00007992  0.25554043  0.36630826  1
  O  O244  1  0.00079760  0.25694821  0.86708644  1
  O  O245  1  0.00063227  0.76056964  0.36384053  1
  O  O246  1  0.00693243  0.76082860  0.87918502  1
  O  O247  1  0.50714547  0.25557312  0.37177694  1
  O  O248  1  0.50575288  0.20713334  0.86117131  1
  O  O249  1  0.49326803  0.76388269  0.37205339  1
  O  O250  1  0.51381919  0.75808208  0.88087824  1
  O  O251  1  0.24342850  0.12524850  0.49307592  1
  O  O252  1  0.24318862  0.12581074  0.99647877  1
  O  O253  1  0.25939403  0.63512731  0.49209561  1
  O  O254  1  0.24462482  0.63743548  1.00208660  1
  O  O255  1  0.73952169  0.12601322  0.49426755  1
  O  O256  1  0.75420822  0.11917387  0.98521241  1
  O  O257  1  0.74007159  0.62795330  0.50236795  1
  O  O258  1  0.75026380  0.63959176  0.99375591  1
  O  O259  1  0.25379645  0.36471966  0.00595701  1
  O  O260  1  0.25625495  0.37585267  0.50752007  1
  O  O261  1  0.25325426  0.86880064  0.01227579  1
  O  O262  1  0.25749067  0.87094444  0.50599396  1
  O  O263  1  0.75674750  0.36905771  -0.00732806  1
  O  O264  1  0.74778764  0.37410374  0.51530160  1
  O  O265  1  0.75881865  0.87198735  0.00255620  1
  O  O266  1  0.75959222  0.87428003  0.50545609  1
  O  O267  1  0.14144504  0.50419875  0.25335421  1
  O  O268  1  0.13719714  0.48954195  0.75492889  1
  O  O269  1  0.13004706  1.00731458  0.23743608  1
  O  O270  1  0.13066973  0.99008550  0.74615441  1
  O  O271  1  0.62390861  0.49148544  0.24341650  1
  O  O272  1  0.63556745  0.49173356  0.74149363  1
  O  O273  1  0.63266032  0.99162143  0.24462603  1
  O  O274  1  0.63562620  0.99036997  0.73602150  1
  O  O275  1  0.36866294  0.00415282  0.25925965  1
  O  O276  1  0.36505171  0.00446925  0.75471540  1
  O  O277  1  0.36693158  0.49637496  0.25780002  1
  O  O278  1  0.36485209  0.51060570  0.75156692  1
  O  O279  1  0.87045863  0.00689728  0.25418081  1
  O  O280  1  0.86752521  -0.00766783  0.75745782  1
  O  O281  1  0.88243105  0.50113629  0.27298651  1
  O  O282  1  0.86872492  0.50649646  0.75709682  1
  O  O283  1  0.11346648  0.37412009  0.37909440  1
  O  O284  1  0.11595434  0.37381447  0.87132948  1
  O  O285  1  0.11178745  0.87729473  0.37762667  1
  O  O286  1  0.11740352  0.86768787  0.86936366  1
  O  O287  1  0.62094374  0.37298513  0.37102341  1
  O  O288  1  0.62441440  0.37602003  0.85472419  1
  O  O289  1  0.61584610  0.88305567  0.36757016  1
  O  O290  1  0.62386708  0.87206771  0.86314989  1
  O  O291  1  0.38623483  0.12060450  0.13534410  1
  O  O292  1  0.38124455  0.12480879  0.63001814  1
  O  O293  1  0.36912896  0.64170432  0.12405255  1
  O  O294  1  0.38180726  0.62766562  0.62833093  1
  O  O295  1  0.88346314  0.13122620  0.12797056  1
  O  O296  1  0.87570659  0.13614071  0.62049242  1
  O  O297  1  0.87347381  0.61529433  0.11873704  1
  O  O298  1  0.86945062  0.63748973  0.63397411  1
  O  O299  1  0.25097101  0.25470752  0.11969102  1
  O  O300  1  0.25515158  0.26498059  0.62417225  1
  O  O301  1  0.25452818  0.75709729  0.12111219  1
  O  O302  1  0.25187570  0.75642785  0.61684631  1
  O  O303  1  0.76359534  0.24826352  0.13308905  1
  O  O304  1  0.75900355  0.25554225  0.62778903  1
  O  O305  1  0.75519530  0.75735505  0.11573175  1
  O  O306  1  0.75612159  0.76428290  0.62289736  1
  O  O307  1  0.24846926  0.23706819  0.37576735  1
  O  O308  1  0.24554881  0.24078769  0.88353183  1
  O  O309  1  0.25235987  0.74151001  0.37988608  1
  O  O310  1  0.23790957  0.75954188  0.88919498  1
  O  O311  1  0.74557407  0.24274334  0.37669122  1
  O  O312  1  0.76146114  0.22894832  0.86348917  1
  O  O313  1  0.75790333  0.73609709  0.37628276  1
  O  O314  1  0.73884058  0.75025837  0.88116482  1
  O  O315  1  0.00770696  0.12111422  0.00539627  1
  O  O316  1  0.00873933  0.11709545  0.50062950  1
  O  O317  1  0.01342482  0.62848424  -0.00094311  1
  O  O318  1  0.00686697  0.63292865  0.50447778  1
  O  O319  1  0.49678790  0.11225627  0.01371587  1
  O  O320  1  0.51222618  0.12444628  0.50517483  1
  O  O321  1  0.50362793  0.63039490  0.00404696  1
  O  O322  1  0.51094398  0.62623876  0.50246148  1
  O  O323  1  0.49389340  0.37636959  0.49367740  1
  O  O324  1  0.48215933  0.36676972  1.00512645  1
  O  O325  1  0.49193716  0.87340347  0.49241840  1
  O  O326  1  0.49292164  0.88867077  1.00029509  1
  O  O327  1  1.00009381  0.36550692  0.48566521  1
  O  O328  1  0.98674672  0.36956088  0.98705023  1
  O  O329  1  0.99467488  0.87904388  0.49051650  1
  O  O330  1  0.99403685  0.87758412  0.99316087  1
  O  O331  1  0.49235094  0.49250785  0.37748481  1
  O  O332  1  0.51133691  0.51712846  0.88640708  1
  O  O333  1  0.48733686  0.99280575  0.37147137  1
  O  O334  1  0.49387897  1.00436534  0.88447567  1
  O  O335  1  0.99632415  0.48729986  0.37634921  1
  O  O336  1  0.98961774  0.48909971  0.86855510  1
  O  O337  1  0.99615831  0.99146584  0.37886639  1
  O  O338  1  0.99476518  0.99049829  0.87988381  1
  O  O339  1  0.00717230  0.00607177  0.11880844  1
  O  O340  1  0.00675433  0.00052387  0.61892893  1
  O  O341  1  0.01060974  0.47717248  0.13274393  1
  O  O342  1  -0.00530365  0.50564272  0.61805983  1
  O  O343  1  0.50505919  0.00409685  0.12254749  1
  O  O344  1  0.51194440  0.00653043  0.62110179  1
  O  O345  1  0.52003968  0.48975123  0.12558530  1
  O  O346  1  0.50252154  0.51601878  0.62041783  1
  O  O347  1  0.25398226  0.38072358  0.24024240  1
  O  O348  1  0.24580518  0.38372052  0.74674852  1
  O  O349  1  0.25211032  0.88097615  0.23893487  1
  O  O350  1  0.24303896  0.88026888  0.74434850  1
  O  O351  1  0.73964884  0.36989528  0.25338952  1
  O  O352  1  0.74567102  0.38185757  0.73935100  1
  O  O353  1  0.74687088  0.87935898  0.24682698  1
  O  O354  1  0.74357904  0.88324217  0.74082974  1
  O  O355  1  0.25495282  0.11973344  0.25779465  1
  O  O356  1  0.25300242  0.11830756  0.75323397  1
  O  O357  1  0.25937742  0.61729354  0.25867967  1
  O  O358  1  0.26006412  0.61161248  0.74614972  1
  O  O359  1  0.75548183  0.11907091  0.25722086  1
  O  O360  1  0.74728017  0.10999898  0.75587171  1
  O  O361  1  0.74892730  0.62908468  0.26170191  1
  O  O362  1  0.75429070  0.61602571  0.75041689  1
  O  O363  1  0.37005206  0.11784719  0.37550423  1
  O  O364  1  0.36411028  0.11596395  0.86699452  1
  O  O365  1  0.36877136  0.61061283  0.37872085  1
  O  O366  1  0.37674671  0.63277139  0.86142621  1
  O  O367  1  0.87188710  0.11890524  0.37249642  1
  O  O368  1  0.87041418  0.10834636  0.87878623  1
  O  O369  1  0.86041146  0.61642863  0.38149550  1
  O  O370  1  0.87181848  0.61789554  0.86866815  1
  O  O371  1  0.13779801  0.37370723  0.11795483  1
  O  O372  1  0.13326608  0.37233569  0.63561990  1
  O  O373  1  0.13256529  0.88564426  0.11806862  1
  O  O374  1  0.12875905  0.87741773  0.63291169  1
  O  O375  1  0.62755511  0.37000163  0.14191459  1
  O  O376  1  0.63334425  0.37624256  0.63190071  1
  O  O377  1  0.63237755  0.88148915  0.13224481  1
  O  O378  1  0.63091656  0.87905640  0.62637332  1
  O  O379  1  0.10714479  0.24147617  0.25354205  1
  O  O380  1  0.11911993  0.26273629  0.75257323  1
  O  O381  1  0.10929288  0.74690938  0.25287634  1
  O  O382  1  0.13571240  0.75938828  0.75865446  1
  O  O383  1  0.61857991  0.25521525  0.25987468  1
  O  O384  1  0.62483776  0.26386644  0.74686010  1
  O  O385  1  0.62667166  0.76479997  0.24439669  1
  O  O386  1  0.63308059  0.76151589  0.75879463  1
  O  O387  1  0.38313876  0.24158529  0.25194431  1
  O  O388  1  0.36755939  0.23697965  0.75010232  1
  O  O389  1  0.37479480  0.75324086  0.23415715  1
  O  O390  1  0.36413780  0.73555083  0.74687732  1
  O  O391  1  0.88422821  0.24459486  0.24635520  1
  O  O392  1  0.88808501  0.25342718  0.73980401  1
  O  O393  1  0.89661876  0.75529429  0.24520245  1
  O  O394  1  0.86932030  0.74143929  0.74214270  1
  O  O395  1  0.37564351  0.48896742  0.49243593  1
  O  O396  1  0.37451152  0.49117054  1.00082995  1
  O  O397  1  0.36885008  0.98742134  0.49146094  1
  O  O398  1  0.37985492  0.99532354  0.99525836  1
  O  O399  1  0.87424368  0.49634890  0.48414517  1
  O  O400  1  0.86422775  0.48878033  0.98314869  1
  O  O401  1  0.88041263  0.99001229  0.49615987  1
  O  O402  1  0.88226799  0.98840270  0.99205497  1
  O  O403  1  0.12116074  0.00782597  0.00799786  1
  O  O404  1  0.12183761  0.00788138  0.50599927  1
  O  O405  1  0.13134417  0.51769198  -0.00257916  1
  O  O406  1  0.11979011  0.50856694  0.50646120  1
  O  O407  1  0.61735465  0.00069521  0.00765249  1
  O  O408  1  0.63318757  0.00877917  0.51104765  1
  O  O409  1  0.62383262  0.50431738  0.00396835  1
  O  O410  1  0.62378159  0.51385921  0.50373793  1
  O  O411  1  0.36259888  0.37341057  0.11382252  1
  O  O412  1  0.37115072  0.37628059  0.61725800  1
  O  O413  1  0.36553409  0.87028242  0.12023542  1
  O  O414  1  0.37077170  0.87549385  0.61796946  1
  O  O415  1  0.86851762  0.36599163  0.10834204  1
  O  O416  1  0.86861623  0.36578303  0.62580709  1
  O  O417  1  0.86967789  0.87707058  0.11352218  1
  O  O418  1  0.86822147  0.87246299  0.61706186  1
  O  O419  1  0.13379359  0.12268880  0.38429230  1
  O  O420  1  0.12979665  0.12213836  0.88371701  1
  O  O421  1  0.14137886  0.62675111  0.37438584  1
  O  O422  1  0.12020639  0.63631975  0.88021186  1
  O  O423  1  0.62906043  0.12690349  0.38266042  1
  O  O424  1  0.64783840  0.11271450  0.88104103  1
  O  O425  1  0.64239020  0.61911013  0.38601908  1
  O  O426  1  0.62114190  0.63103159  0.87714210  1
