# generated using pymatgen
data_V85Zn86O256
_symmetry_space_group_name_H-M   'P 1'
_cell_length_a   16.93649894
_cell_length_b   16.93194117
_cell_length_c   16.92379163
_cell_angle_alpha   90.03950117
_cell_angle_beta   89.98010161
_cell_angle_gamma   90.09985226
_symmetry_Int_Tables_number   1
_chemical_formula_structural   V85Zn86O256
_chemical_formula_sum   'V85 Zn86 O256'
_cell_volume   4853.18974187
_cell_formula_units_Z   1
loop_
 _symmetry_equiv_pos_site_id
 _symmetry_equiv_pos_as_xyz
  1  'x, y, z'
loop_
 _atom_site_type_symbol
 _atom_site_label
 _atom_site_symmetry_multiplicity
 _atom_site_fract_x
 _atom_site_fract_y
 _atom_site_fract_z
 _atom_site_occupancy
  V  V0  1  0.12915076  0.37881675  0.74980416  1
  V  V1  1  0.75044244  0.50266052  0.25206390  1
  V  V2  1  -0.00619933  0.49301465  0.49747606  1
  V  V3  1  0.87522002  0.37385342  -0.00070358  1
  V  V4  1  0.75060264  0.37354314  0.12667897  1
  V  V5  1  0.36106931  0.50382239  0.37367227  1
  V  V6  1  0.62824736  0.00339702  0.62026079  1
  V  V7  1  0.12823517  0.50038932  0.12753031  1
  V  V8  1  0.12041751  0.75013497  0.87894873  1
  V  V9  1  0.25081846  0.87770849  0.63027174  1
  V  V10  1  0.88157921  0.12218692  0.25693001  1
  V  V11  1  0.00104626  0.25067856  0.74793264  1
  V  V12  1  0.61583895  0.24320186  0.37869053  1
  V  V13  1  0.50564259  0.62633582  0.62368274  1
  V  V14  1  0.25688843  0.37918748  0.12576977  1
  V  V15  1  0.24752312  0.87548993  0.12718312  1
  V  V16  1  0.62496665  0.12300597  -0.00157378  1
  V  V17  1  0.24693250  -0.00022504  0.24765767  1
  V  V18  1  0.86931562  0.74570760  0.12692334  1
  V  V19  1  0.37669801  0.25260424  0.62244181  1
  V  V20  1  0.37863641  0.49492797  0.87324770  1
  V  V21  1  0.86860032  0.87734688  0.48321944  1
  V  V22  1  0.11655739  0.24917303  0.36742133  1
  V  V23  1  0.37309109  0.12256840  0.74769752  1
  V  V24  1  0.62251299  0.74654824  0.38581600  1
  V  V25  1  0.25247530  0.11745585  0.87439140  1
  V  V26  1  0.12973340  0.25075192  0.87471845  1
  V  V27  1  0.12664067  0.88002480  0.75573162  1
  V  V28  1  0.37476271  0.75085081  0.12444362  1
  V  V29  1  0.38442547  -0.00262473  0.86909747  1
  V  V30  1  0.11670407  0.00041462  0.12125597  1
  V  V31  1  0.62597073  -0.00093202  0.12692650  1
  V  V32  1  -0.00210413  0.62762881  0.13043189  1
  V  V33  1  0.49558760  0.48491136  -0.00437442  1
  V  V34  1  0.87573898  0.25234091  0.61769506  1
  V  V35  1  0.74635138  0.86868798  0.11505299  1
  V  V36  1  0.62388249  0.49928507  0.12528229  1
  V  V37  1  0.25688429  0.51278789  0.74872821  1
  V  V38  1  0.62669377  0.38545472  0.75063097  1
  V  V39  1  0.37463774  0.74181975  0.62993687  1
  V  V40  1  0.24828184  0.74761232  0.48990659  1
  V  V41  1  0.74691691  0.11764063  0.37614626  1
  V  V42  1  0.25061822  0.74956712  -0.00429516  1
  V  V43  1  0.75354537  -0.01145635  0.74967663  1
  V  V44  1  0.88391815  0.24866135  0.13081861  1
  V  V45  1  0.75208183  0.24868741  -0.00028103  1
  V  V46  1  0.12669850  0.50447790  0.62399747  1
  V  V47  1  -0.00086680  0.75480750  0.75247955  1
  V  V48  1  0.88848404  -0.00495070  0.88204508  1
  V  V49  1  0.49935198  0.25646471  0.75230153  1
  V  V50  1  0.49869212  0.62273970  0.12302098  1
  V  V51  1  0.00071529  0.12272007  0.62457505  1
  V  V52  1  0.86922666  0.76254282  0.62775959  1
  V  V53  1  0.49529274  0.74821937  0.76081330  1
  V  V54  1  0.13014546  -0.00160842  0.62718281  1
  V  V55  1  0.62011675  0.87437401  0.74811143  1
  V  V56  1  0.37684719  0.87577813  0.50072590  1
  V  V57  1  0.24911288  0.25379789  0.49784536  1
  V  V58  1  0.00042198  0.37653976  0.87354656  1
  V  V59  1  0.75207103  0.12243157  0.87467676  1
  V  V60  1  0.62238194  0.36526185  0.25095169  1
  V  V61  1  0.12347237  0.12431828  0.49970913  1
  V  V62  1  0.25005758  0.12744896  0.37154156  1
  V  V63  1  0.12869081  0.62647143  0.48522723  1
  V  V64  1  0.26270866  0.25596827  -0.00048138  1
  V  V65  1  -0.00081077  0.50172096  -0.00142682  1
  V  V66  1  0.11993252  0.37361480  0.24718769  1
  V  V67  1  0.75047044  0.61474656  0.87656942  1
  V  V68  1  0.50017715  0.75037054  0.25274877  1
  V  V69  1  0.89461704  0.87230137  0.00178529  1
  V  V70  1  0.38200348  0.87579598  -0.00626579  1
  V  V71  1  0.62892642  0.50385838  0.61552288  1
  V  V72  1  0.75402073  0.37867841  0.62456763  1
  V  V73  1  0.49721012  0.12931200  0.12967359  1
  V  V74  1  0.63349713  0.75574834  0.88214402  1
  V  V75  1  0.37723530  0.00120091  0.37302088  1
  V  V76  1  -0.00432357  -0.00599746  0.48834681  1
  V  V77  1  0.49786987  0.37884141  0.37378158  1
  V  V78  1  0.74437571  0.62343662  0.38733580  1
  V  V79  1  0.62304149  0.25457758  0.87277130  1
  V  V80  1  0.12022938  0.12431531  -0.00049581  1
  V  V81  1  0.74495937  0.24581819  0.49963664  1
  V  V82  1  0.87554950  0.12237165  0.75031385  1
  V  V83  1  -0.00279581  0.63125963  0.62385922  1
  V  V84  1  0.36170539  0.62233139  0.25279172  1
  Zn  Zn85  1  0.25297123  0.37833818  0.62380175  1
  Zn  Zn86  1  0.00223661  0.12790749  0.12702037  1
  Zn  Zn87  1  0.87558588  0.62884737  0.25711735  1
  Zn  Zn88  1  0.12425377  0.62506116  -0.00221918  1
  Zn  Zn89  1  0.62907213  0.87264681  0.25158535  1
  Zn  Zn90  1  0.50823717  0.12939607  0.61922060  1
  Zn  Zn91  1  0.25558318  0.62811216  0.87058722  1
  Zn  Zn92  1  0.74240247  0.75142056  0.51076613  1
  Zn  Zn93  1  0.50149337  0.87534288  0.37508027  1
  Zn  Zn94  1  0.37883964  0.13698268  0.25240187  1
  Zn  Zn95  1  0.75130256  -0.00406257  0.25384693  1
  Zn  Zn96  1  0.86972613  0.49623939  0.86749913  1
  Zn  Zn97  1  0.50129880  0.50841789  0.49558973  1
  Zn  Zn98  1  0.06196919  0.81211067  0.31296332  1
  Zn  Zn99  1  -0.01073606  0.36821388  0.37040344  1
  Zn  Zn100  1  0.62652605  0.62867665  0.00224043  1
  Zn  Zn101  1  0.37645619  0.37876757  0.49879117  1
  Zn  Zn102  1  0.86854903  0.49310975  0.38074578  1
  Zn  Zn103  1  0.38343936  0.26187653  0.12886474  1
  Zn  Zn104  1  0.50348039  -0.00263656  -0.00471246  1
  Zn  Zn105  1  0.86722171  0.62133918  0.74749755  1
  Zn  Zn106  1  0.50593560  0.00601725  0.49699375  1
  Zn  Zn107  1  0.19302970  0.19018195  0.18603510  1
  Zn  Zn108  1  0.19140959  0.18771561  0.68690119  1
  Zn  Zn109  1  0.18494640  0.68510425  0.18747002  1
  Zn  Zn110  1  0.18416083  0.69298028  0.68280169  1
  Zn  Zn111  1  0.69079214  0.18487724  0.18943173  1
  Zn  Zn112  1  0.69046244  0.18624828  0.68969738  1
  Zn  Zn113  1  0.68657453  0.68765117  0.19156637  1
  Zn  Zn114  1  0.68632103  0.68569217  0.69420950  1
  Zn  Zn115  1  0.30962412  0.31643282  0.30650664  1
  Zn  Zn116  1  0.31416226  0.31646382  0.81353047  1
  Zn  Zn117  1  0.31010272  0.81373728  0.31066561  1
  Zn  Zn118  1  0.31166923  0.81451885  0.81118518  1
  Zn  Zn119  1  0.81194593  0.31022173  0.31490210  1
  Zn  Zn120  1  0.81176538  0.31299916  0.80830299  1
  Zn  Zn121  1  0.80747575  0.80846450  0.30706829  1
  Zn  Zn122  1  0.81494845  0.81176192  0.81944150  1
  Zn  Zn123  1  0.18264847  0.43514104  0.43528317  1
  Zn  Zn124  1  0.19087891  0.44017692  0.93819467  1
  Zn  Zn125  1  0.19087396  0.93834093  0.43787785  1
  Zn  Zn126  1  0.18896928  0.93652034  0.93989373  1
  Zn  Zn127  1  0.68941349  0.43072648  0.43952611  1
  Zn  Zn128  1  0.68362115  0.43804076  0.94008428  1
  Zn  Zn129  1  0.68876792  0.92986100  0.43812983  1
  Zn  Zn130  1  0.69013270  0.93714150  0.93580139  1
  Zn  Zn131  1  0.31229364  0.06238830  0.05768968  1
  Zn  Zn132  1  0.31463875  0.06552359  0.56003410  1
  Zn  Zn133  1  0.31433704  0.56245274  0.05975843  1
  Zn  Zn134  1  0.31331056  0.56397163  0.55936130  1
  Zn  Zn135  1  0.81461647  0.05904951  0.06393988  1
  Zn  Zn136  1  0.81029667  0.05948636  0.56194411  1
  Zn  Zn137  1  0.80984811  0.56348501  0.05670248  1
  Zn  Zn138  1  0.81253280  0.56454281  0.56702999  1
  Zn  Zn139  1  0.43759431  0.43897517  0.19305546  1
  Zn  Zn140  1  0.44028399  0.43902162  0.68788592  1
  Zn  Zn141  1  0.43721438  0.93957342  0.18613829  1
  Zn  Zn142  1  0.44172352  0.93593079  0.68836453  1
  Zn  Zn143  1  0.93727748  0.43869520  0.18862597  1
  Zn  Zn144  1  0.93690631  0.44008583  0.68604892  1
  Zn  Zn145  1  0.93103478  0.93804314  0.19175081  1
  Zn  Zn146  1  0.94378332  0.93701584  0.68682453  1
  Zn  Zn147  1  0.06335920  0.05643457  0.30858583  1
  Zn  Zn148  1  0.06507587  0.06273122  0.81206324  1
  Zn  Zn149  1  0.06290012  0.56134501  0.31039504  1
  Zn  Zn150  1  0.06066443  0.56707914  0.81179524  1
  Zn  Zn151  1  0.56339913  0.06076249  0.31084469  1
  Zn  Zn152  1  0.56246711  0.06711526  0.80623372  1
  Zn  Zn153  1  0.56165023  0.56314683  0.31121279  1
  Zn  Zn154  1  0.56084975  0.56850886  0.81278775  1
  Zn  Zn155  1  0.43935587  0.18572924  0.43954843  1
  Zn  Zn156  1  0.44113188  0.18687536  0.93845712  1
  Zn  Zn157  1  0.43515612  0.68570362  0.43966436  1
  Zn  Zn158  1  0.43614478  0.67975555  0.93592467  1
  Zn  Zn159  1  0.93535644  0.18440522  0.43878176  1
  Zn  Zn160  1  0.93884897  0.18817237  0.93636014  1
  Zn  Zn161  1  0.93001684  0.68471708  0.43650271  1
  Zn  Zn162  1  0.93450988  0.69063576  0.94188021  1
  Zn  Zn163  1  0.06659576  0.31271854  0.05964860  1
  Zn  Zn164  1  0.06532166  0.31375596  0.56271540  1
  Zn  Zn165  1  0.05987198  0.81656046  0.14862557  1
  Zn  Zn166  1  0.05701520  0.80869455  0.47334951  1
  Zn  Zn167  1  0.56506537  0.30966670  0.06189956  1
  Zn  Zn168  1  0.56274542  0.31580252  0.56036197  1
  Zn  Zn169  1  0.56021107  0.81307638  0.06332013  1
  Zn  Zn170  1  0.56040930  0.81733011  0.56796959  1
  O  O171  1  0.12682646  0.12088879  0.11595323  1
  O  O172  1  0.12228472  0.11960968  0.62131082  1
  O  O173  1  0.11540236  0.61618313  0.11963841  1
  O  O174  1  0.11870663  0.61557280  0.62209625  1
  O  O175  1  0.61879846  0.11911120  0.12038207  1
  O  O176  1  0.62624521  0.10831683  0.63437848  1
  O  O177  1  0.61610156  0.61821642  0.12619912  1
  O  O178  1  0.62042314  0.61505897  0.63081624  1
  O  O179  1  0.38097903  0.38680116  0.37242017  1
  O  O180  1  0.37030610  0.39259319  0.87551774  1
  O  O181  1  0.37523312  0.88221795  0.38340706  1
  O  O182  1  0.36917942  0.88678175  0.87988109  1
  O  O183  1  0.87687311  0.37959767  0.37166475  1
  O  O184  1  0.88230454  0.37298694  0.87924047  1
  O  O185  1  0.87017542  0.87046456  0.38436956  1
  O  O186  1  0.87431015  0.88066907  0.89112017  1
  O  O187  1  0.25536729  0.00528073  0.36691355  1
  O  O188  1  0.25959398  0.01367642  0.87858610  1
  O  O189  1  0.26253919  0.49538125  0.37654000  1
  O  O190  1  0.25478934  0.50321707  0.86512913  1
  O  O191  1  0.74108497  0.01406984  0.37753252  1
  O  O192  1  0.75838859  0.00589806  0.86808538  1
  O  O193  1  0.74440597  0.50537541  0.36954637  1
  O  O194  1  0.74778432  0.50993242  0.87610193  1
  O  O195  1  0.23930287  0.49257851  0.11364027  1
  O  O196  1  0.24454901  0.49918626  0.63031713  1
  O  O197  1  0.24896632  0.99578525  0.13105351  1
  O  O198  1  0.23911228  0.99482275  0.61758291  1
  O  O199  1  0.74284672  0.49415772  0.12971442  1
  O  O200  1  0.74379135  0.49096799  0.62246756  1
  O  O201  1  0.73689786  0.99531533  0.12413982  1
  O  O202  1  0.74053112  1.00325546  0.63735252  1
  O  O203  1  0.01355795  0.37859260  0.24952560  1
  O  O204  1  0.01262952  0.37042674  0.75168623  1
  O  O205  1  0.00930046  0.87634158  0.23291251  1
  O  O206  1  0.01148632  0.86299395  0.74554616  1
  O  O207  1  0.51021315  0.37953212  0.26110717  1
  O  O208  1  0.50975313  0.36340098  0.74581722  1
  O  O209  1  0.49598164  0.85939141  0.24855997  1
  O  O210  1  0.50923559  0.86408284  0.75029934  1
  O  O211  1  0.49964603  0.12064332  0.23320608  1
  O  O212  1  0.48973049  0.13813277  0.74490756  1
  O  O213  1  0.49335460  0.63308019  0.24056010  1
  O  O214  1  0.50297241  0.63618948  0.73824677  1
  O  O215  1  0.98565361  0.12399632  0.25113100  1
  O  O216  1  0.99683932  0.13174701  0.74429492  1
  O  O217  1  0.99265095  0.61196190  0.23504345  1
  O  O218  1  1.00529532  0.63774179  0.73769814  1
  O  O219  1  0.36614521  0.24737615  0.00353690  1
  O  O220  1  0.36650394  0.25300653  0.50599620  1
  O  O221  1  0.37098108  0.75573554  0.00237717  1
  O  O222  1  0.36926069  0.75692063  0.50868044  1
  O  O223  1  0.87000917  0.25409446  0.00593416  1
  O  O224  1  0.86967513  0.24648597  0.51290218  1
  O  O225  1  0.87507686  0.76432988  0.00893243  1
  O  O226  1  0.87292996  0.76220137  0.51306709  1
  O  O227  1  0.13173334  0.24403046  0.49589521  1
  O  O228  1  0.13461898  0.24390660  0.99169003  1
  O  O229  1  0.13483229  0.73226266  0.51204413  1
  O  O230  1  0.13428325  0.75360257  0.98512707  1
  O  O231  1  0.63249012  0.25130701  0.49221822  1
  O  O232  1  0.63141635  0.24496682  0.99053143  1
  O  O233  1  0.62354772  0.75762141  0.49083361  1
  O  O234  1  0.61591125  0.75048557  0.98429519  1
  O  O235  1  0.50101031  0.23407551  0.11882909  1
  O  O236  1  0.49281407  0.25073703  0.63072934  1
  O  O237  1  0.49414784  0.74214765  0.13087616  1
  O  O238  1  0.49378653  0.74617575  0.63379846  1
  O  O239  1  0.98732554  0.24988360  0.11900115  1
  O  O240  1  0.99453841  0.24565229  0.62753183  1
  O  O241  1  0.98708808  0.73371170  0.11463916  1
  O  O242  1  0.98700506  0.74255951  0.63280383  1
  O  O243  1  0.01352328  0.24976714  0.38434841  1
  O  O244  1  0.00811283  0.25638311  0.86768934  1
  O  O245  1  0.00723277  0.74628718  0.39020115  1
  O  O246  1  0.00811626  0.74384760  0.86594193  1
  O  O247  1  0.50971615  0.25736381  0.37836053  1
  O  O248  1  0.51134704  0.24605071  0.86682685  1
  O  O249  1  0.50382479  0.74874241  0.36899400  1
  O  O250  1  0.50889113  0.74082172  0.86517018  1
  O  O251  1  0.24476036  0.13590027  0.49332831  1
  O  O252  1  0.24536503  0.13504373  0.99177671  1
  O  O253  1  0.23697293  0.63122278  0.50437726  1
  O  O254  1  0.24881844  0.64077347  1.00238286  1
  O  O255  1  0.75631439  0.13649418  0.49268865  1
  O  O256  1  0.74486998  0.12903185  0.99487110  1
  O  O257  1  0.75068739  0.62775923  0.49095217  1
  O  O258  1  0.74244580  0.62313370  0.98584530  1
  O  O259  1  0.24340997  0.36490472  0.00843581  1
  O  O260  1  0.24912271  0.36394978  0.50071522  1
  O  O261  1  0.26134612  0.86596251  0.00296302  1
  O  O262  1  0.25995347  0.86894021  0.51140741  1
  O  O263  1  0.75482570  0.36981913  0.00599819  1
  O  O264  1  0.74705202  0.36148644  0.51421028  1
  O  O265  1  0.75158054  0.87816026  0.01245329  1
  O  O266  1  0.76442641  0.87158689  0.50193843  1
  O  O267  1  0.12205890  0.49407396  0.23499274  1
  O  O268  1  0.12966590  0.49569258  0.74297020  1
  O  O269  1  0.13924257  1.00583357  0.23858435  1
  O  O270  1  0.12185963  0.99210222  0.74191229  1
  O  O271  1  0.63283061  0.49154224  0.24458057  1
  O  O272  1  0.61790190  0.48788322  0.74661908  1
  O  O273  1  0.62738649  0.99506091  0.24050213  1
  O  O274  1  0.63267359  0.99213714  0.74905117  1
  O  O275  1  0.36748894  0.00146894  0.25984670  1
  O  O276  1  0.37911038  0.01137375  0.75348269  1
  O  O277  1  0.37856473  0.50923988  0.26354987  1
  O  O278  1  0.36620958  0.49622731  0.75472967  1
  O  O279  1  0.86838278  0.01818417  0.24399033  1
  O  O280  1  0.87037102  0.00115673  0.75584996  1
  O  O281  1  0.85761992  0.49981446  0.24673092  1
  O  O282  1  0.88995657  0.50988726  0.75687047  1
  O  O283  1  0.12190807  0.36691592  0.36485553  1
  O  O284  1  0.12151833  0.37186227  0.86710911  1
  O  O285  1  0.11796362  0.86895576  0.39696472  1
  O  O286  1  0.13360304  0.87079548  0.86271576  1
  O  O287  1  0.61873606  0.36746914  0.36894925  1
  O  O288  1  0.63444031  0.36242617  0.86620203  1
  O  O289  1  0.62114591  0.86467719  0.37126578  1
  O  O290  1  0.62877725  0.86328798  0.86729894  1
  O  O291  1  0.39162577  0.11957369  0.12170381  1
  O  O292  1  0.37099409  0.13758609  0.63240286  1
  O  O293  1  0.38148505  0.62922972  0.13113654  1
  O  O294  1  0.37924247  0.63787072  0.62377319  1
  O  O295  1  0.87676407  0.13243573  0.13231797  1
  O  O296  1  0.88048852  0.12982353  0.63145969  1
  O  O297  1  0.87827407  0.63080845  0.12200605  1
  O  O298  1  0.88359077  0.63458429  0.62547668  1
  O  O299  1  0.25082106  0.26043373  0.11396166  1
  O  O300  1  0.25703549  0.25330559  0.61613482  1
  O  O301  1  0.25734786  0.75859014  0.11600137  1
  O  O302  1  0.25840862  0.75830710  0.62072906  1
  O  O303  1  0.75664657  0.25444197  0.11810357  1
  O  O304  1  0.75669394  0.25209153  0.61928221  1
  O  O305  1  0.75339392  0.75577225  0.12459021  1
  O  O306  1  0.76519017  0.74220075  0.62849143  1
  O  O307  1  0.24094844  0.24778736  0.38152447  1
  O  O308  1  0.24823226  0.24431839  0.88083815  1
  O  O309  1  0.25612423  0.75289094  0.39052042  1
  O  O310  1  0.24543286  0.74898470  0.87989803  1
  O  O311  1  0.73924640  0.24410007  0.38349732  1
  O  O312  1  0.74567183  0.24236854  0.87866465  1
  O  O313  1  0.73950774  0.74051395  0.37656294  1
  O  O314  1  0.73636801  0.74509330  0.87563767  1
  O  O315  1  0.01672541  0.13122734  -0.00084187  1
  O  O316  1  0.00306059  0.11735725  0.50747243  1
  O  O317  1  -0.00067044  0.61489350  0.00597407  1
  O  O318  1  0.01178844  0.61744910  0.50951216  1
  O  O319  1  0.50953966  0.12167875  0.00778992  1
  O  O320  1  0.49331362  0.11763662  0.50796492  1
  O  O321  1  0.50192031  0.62009558  0.01395039  1
  O  O322  1  0.49698471  0.62746062  0.51734485  1
  O  O323  1  0.49801371  0.37810847  0.48599780  1
  O  O324  1  0.50200681  0.38627012  1.00358630  1
  O  O325  1  0.48614893  0.88086244  0.50216541  1
  O  O326  1  0.48597958  0.87674832  1.00225669  1
  O  O327  1  1.00835717  0.39101262  0.49972404  1
  O  O328  1  0.99550941  0.38055139  0.99412233  1
  O  O329  1  0.98055539  0.88520447  0.51066513  1
  O  O330  1  0.98979695  0.87414421  1.01040674  1
  O  O331  1  0.49506468  0.49386678  0.37658054  1
  O  O332  1  0.49720566  0.50378770  0.88829486  1
  O  O333  1  0.49102791  0.99655061  0.37474916  1
  O  O334  1  0.48856211  1.00749405  0.87430930  1
  O  O335  1  1.00033452  0.50155163  0.39033534  1
  O  O336  1  1.00494937  0.49481017  0.88622176  1
  O  O337  1  1.00168480  1.00497000  0.38929282  1
  O  O338  1  0.98741008  1.00402695  0.87177634  1
  O  O339  1  0.01497456  0.00642169  0.12597760  1
  O  O340  1  0.01139450  0.00562019  0.62065123  1
  O  O341  1  0.00393575  0.50274085  0.11321972  1
  O  O342  1  0.00855232  0.50675184  0.61549403  1
  O  O343  1  0.51080670  0.00643826  0.12137214  1
  O  O344  1  0.51731771  0.00124061  0.62972693  1
  O  O345  1  0.50250140  0.50477938  0.11854717  1
  O  O346  1  0.50807205  0.50881392  0.62372756  1
  O  O347  1  0.23444371  0.37451594  0.23677459  1
  O  O348  1  0.23885160  0.38170203  0.74797481  1
  O  O349  1  0.25718152  0.88491541  0.23749806  1
  O  O350  1  0.24388862  0.87322249  0.73760066  1
  O  O351  1  0.74064108  0.38029022  0.24492589  1
  O  O352  1  0.73955406  0.36663158  0.73545910  1
  O  O353  1  0.74961269  0.87807113  0.23515280  1
  O  O354  1  0.74479761  0.88453181  0.75783490  1
  O  O355  1  0.25388217  0.11731312  0.25480342  1
  O  O356  1  0.26389771  0.13344363  0.75963763  1
  O  O357  1  0.26268995  0.62482338  0.24300037  1
  O  O358  1  0.24501578  0.61501678  0.74602815  1
  O  O359  1  0.75732566  0.12284083  0.25983046  1
  O  O360  1  0.75802053  0.11653735  0.75696284  1
  O  O361  1  0.74874925  0.61579904  0.25981549  1
  O  O362  1  0.75051434  0.62993118  0.76999359  1
  O  O363  1  0.36801384  0.11764773  0.37344670  1
  O  O364  1  0.37116412  0.12048271  0.86802511  1
  O  O365  1  0.37740075  0.61301721  0.36842902  1
  O  O366  1  0.37038091  0.60762016  0.87855812  1
  O  O367  1  0.86535516  0.13287662  0.36312190  1
  O  O368  1  0.87120106  0.11845445  0.87099867  1
  O  O369  1  0.86180500  0.61614286  0.37462741  1
  O  O370  1  0.85953703  0.62644559  0.87896080  1
  O  O371  1  0.13006639  0.38092880  0.12845542  1
  O  O372  1  0.12637376  0.38792595  0.63146559  1
  O  O373  1  0.14292393  0.88818420  0.10697534  1
  O  O374  1  0.13532760  0.88447522  0.63487997  1
  O  O375  1  0.62888613  0.37692244  0.13321984  1
  O  O376  1  0.63125692  0.38242095  0.63188167  1
  O  O377  1  0.62873185  0.88118138  0.12530379  1
  O  O378  1  0.62620675  0.88355967  0.63994225  1
  O  O379  1  0.12763251  0.25598503  0.25773806  1
  O  O380  1  0.12315042  0.25841388  0.75360335  1
  O  O381  1  0.12301981  0.76279468  0.22905424  1
  O  O382  1  0.12015012  0.75811686  0.75741439  1
  O  O383  1  0.63024301  0.25999684  0.25795186  1
  O  O384  1  0.61859295  0.25507205  0.75486075  1
  O  O385  1  0.61422583  0.75019798  0.25953366  1
  O  O386  1  0.61837294  0.75764331  0.75856515  1
  O  O387  1  0.36972181  0.24926096  0.24138195  1
  O  O388  1  0.38143333  0.24828159  0.74391004  1
  O  O389  1  0.37968737  0.74272903  0.24518632  1
  O  O390  1  0.38428038  0.75688292  0.74273661  1
  O  O391  1  0.86710791  0.23714060  0.23973939  1
  O  O392  1  0.88161745  0.24313818  0.74123087  1
  O  O393  1  0.87114760  0.74629736  0.23316870  1
  O  O394  1  0.88211977  0.74929875  0.74515725  1
  O  O395  1  0.37706836  0.49962505  0.48766409  1
  O  O396  1  0.38992601  0.50146270  0.99575277  1
  O  O397  1  0.36976092  0.99265084  0.48808205  1
  O  O398  1  0.37628587  0.99262863  0.98886587  1
  O  O399  1  0.89153852  0.50273398  0.50537367  1
  O  O400  1  0.88227357  0.49064717  0.99544437  1
  O  O401  1  0.87975033  0.98655516  0.50456031  1
  O  O402  1  0.87361609  0.98823813  0.99384914  1
  O  O403  1  0.13679572  0.01321621  0.00758133  1
  O  O404  1  0.11802128  0.00747079  0.50863072  1
  O  O405  1  0.11654980  0.49996326  0.00807815  1
  O  O406  1  0.12202316  0.50924565  0.50591278  1
  O  O407  1  0.62412395  0.00624933  0.00382071  1
  O  O408  1  0.62758256  -0.00962306  0.51768130  1
  O  O409  1  0.61205750  0.50086098  0.00720523  1
  O  O410  1  0.62291989  0.49465455  0.51253114  1
  O  O411  1  0.36147448  0.38173375  0.12859471  1
  O  O412  1  0.37440867  0.36485410  0.62253615  1
  O  O413  1  0.36722972  0.87237691  0.11589264  1
  O  O414  1  0.36930226  0.87114883  0.62020445  1
  O  O415  1  0.86980948  0.36698140  0.12147834  1
  O  O416  1  0.86725576  0.36433122  0.63189297  1
  O  O417  1  0.86627345  0.87034995  0.11578124  1
  O  O418  1  0.87373086  0.86340175  0.63025918  1
  O  O419  1  0.13050484  0.13082110  0.37804314  1
  O  O420  1  0.13484032  0.12931434  0.87844400  1
  O  O421  1  0.12768668  0.61943500  0.38656544  1
  O  O422  1  0.13038415  0.63545380  0.87708166  1
  O  O423  1  0.63103023  0.13506169  0.36854370  1
  O  O424  1  0.63180456  0.13379307  0.87650658  1
  O  O425  1  0.63035089  0.63365006  0.37242544  1
  O  O426  1  0.63294881  0.63606728  0.87586818  1
