# generated using pymatgen
data_V85Zn86O256
_symmetry_space_group_name_H-M   'P 1'
_cell_length_a   16.93389244
_cell_length_b   16.94898050
_cell_length_c   16.93549603
_cell_angle_alpha   90.07397916
_cell_angle_beta   89.97747860
_cell_angle_gamma   90.04459778
_symmetry_Int_Tables_number   1
_chemical_formula_structural   V85Zn86O256
_chemical_formula_sum   'V85 Zn86 O256'
_cell_volume   4860.68829269
_cell_formula_units_Z   1
loop_
 _symmetry_equiv_pos_site_id
 _symmetry_equiv_pos_as_xyz
  1  'x, y, z'
loop_
 _atom_site_type_symbol
 _atom_site_label
 _atom_site_symmetry_multiplicity
 _atom_site_fract_x
 _atom_site_fract_y
 _atom_site_fract_z
 _atom_site_occupancy
  V  V0  1  0.37863569  0.75070173  0.11994437  1
  V  V1  1  0.87068407  0.88259409  0.51054227  1
  V  V2  1  0.56466988  0.56691310  0.06507204  1
  V  V3  1  0.75672181  0.63245468  0.37461701  1
  V  V4  1  0.75369933  0.75521648  0.51392454  1
  V  V5  1  0.37195692  0.24926877  0.62682556  1
  V  V6  1  0.00379616  0.00520846  0.50452320  1
  V  V7  1  0.87957651  0.50341681  0.38068265  1
  V  V8  1  0.12091571  0.50887711  0.12453903  1
  V  V9  1  0.24818025  0.62527323  0.87631730  1
  V  V10  1  0.87601920  0.12110492  0.25061134  1
  V  V11  1  0.62670179  0.62737117  0.50215872  1
  V  V12  1  0.86500607  0.24990298  0.62788410  1
  V  V13  1  0.50150328  0.38415925  0.37354470  1
  V  V14  1  0.38130498  0.38145607  0.00207819  1
  V  V15  1  0.00025862  0.25137007  0.25080700  1
  V  V16  1  0.87087066  0.24950258  0.12028124  1
  V  V17  1  0.37575133  0.62563124  0.24711525  1
  V  V18  1  0.24983009  0.37634599  0.12429150  1
  V  V19  1  0.37852608  0.50372868  0.87973522  1
  V  V20  1  0.12559763  -0.00198756  0.12566396  1
  V  V21  1  0.62182939  0.74680563  0.88032290  1
  V  V22  1  0.37595887  0.12324776  0.24926816  1
  V  V23  1  0.37112540  -0.00263874  0.88419813  1
  V  V24  1  0.12360111  0.37649783  0.24886705  1
  V  V25  1  0.74583251  0.12852192  0.89038821  1
  V  V26  1  0.12835488  0.88844704  0.74015521  1
  V  V27  1  0.00222820  0.74250604  0.23923759  1
  V  V28  1  0.87675357  0.74650564  0.11564580  1
  V  V29  1  0.12095900  0.87338123  0.26051416  1
  V  V30  1  0.24902733  -0.00255976  0.25464237  1
  V  V31  1  -0.00458970  0.24300985  0.75063405  1
  V  V32  1  0.87515908  0.00160692  0.87172209  1
  V  V33  1  0.37442087  0.50449916  0.38486213  1
  V  V34  1  0.50102948  -0.00635675  0.50164443  1
  V  V35  1  0.23735339  0.63926288  0.38494380  1
  V  V36  1  0.37546858  -0.00097527  0.37986086  1
  V  V37  1  0.00619202  0.85466659  0.39356934  1
  V  V38  1  0.37779663  0.11680253  0.75362894  1
  V  V39  1  0.25078235  0.12039108  0.86884314  1
  V  V40  1  0.74488256  0.49587577  0.73464208  1
  V  V41  1  0.50352523  0.37611225  0.87248438  1
  V  V42  1  0.63357104  -0.00583233  0.62402585  1
  V  V43  1  0.37666938  0.24862591  0.12579445  1
  V  V44  1  0.12791777  0.13082619  0.50711565  1
  V  V45  1  0.00435189  0.62868921  0.61004934  1
  V  V46  1  0.51598046  0.11876595  0.12481568  1
  V  V47  1  0.75516685  0.00870456  0.74781063  1
  V  V48  1  0.74726711  0.50617113  0.24613782  1
  V  V49  1  0.37474976  0.62683049  0.74898261  1
  V  V50  1  0.62748696  0.88002644  0.24357845  1
  V  V51  1  -0.00036184  0.37129773  0.87783026  1
  V  V52  1  0.50335098  0.74580127  0.24576902  1
  V  V53  1  0.86921348  0.37221019  -0.00069757  1
  V  V54  1  0.49389846  0.87548126  0.87725298  1
  V  V55  1  0.49981803  0.75056721  0.74808365  1
  V  V56  1  0.12163690  0.75080179  0.86421902  1
  V  V57  1  -0.00492752  0.87075132  0.87010125  1
  V  V58  1  0.50094178  0.25014028  0.25119069  1
  V  V59  1  0.25411620  0.24785187  -0.00110708  1
  V  V60  1  0.51259098  -0.00465122  0.00631463  1
  V  V61  1  0.49901377  0.62496994  0.61778021  1
  V  V62  1  0.75318918  0.75553094  -0.00494979  1
  V  V63  1  0.74435964  0.62228434  0.87537724  1
  V  V64  1  0.12643032  0.37704247  0.75246104  1
  V  V65  1  0.56128623  0.45655092  0.55893609  1
  V  V66  1  0.74773703  0.37770021  0.12238375  1
  V  V67  1  0.62447010  0.37921216  0.24445120  1
  V  V68  1  0.24973183  0.50286009  0.25118291  1
  V  V69  1  0.12698432  0.12487953  0.00082103  1
  V  V70  1  0.49859885  0.87240084  0.37501291  1
  V  V71  1  -0.00526145  -0.00619506  -0.00029241  1
  V  V72  1  -0.00365755  0.50674216  0.00473514  1
  V  V73  1  0.75112469  0.12522453  0.37410158  1
  V  V74  1  -0.00119590  0.37915490  0.38361957  1
  V  V75  1  0.00090951  0.12321170  0.12510126  1
  V  V76  1  0.25290165  0.87521349  0.12393060  1
  V  V77  1  0.87192226  0.49795511  0.87374516  1
  V  V78  1  0.36725679  0.75388581  0.61108011  1
  V  V79  1  0.62732106  0.12266558  0.49961521  1
  V  V80  1  0.11838505  0.49920081  0.61011769  1
  V  V81  1  0.88469823  0.62948723  0.75074529  1
  V  V82  1  0.63227028  0.87341770  0.74718875  1
  V  V83  1  0.24970036  0.75685449  -0.00257796  1
  V  V84  1  0.75282015  0.87996201  0.12025748  1
  Zn  Zn85  1  0.74698639  0.25733608  0.50542813  1
  Zn  Zn86  1  0.24725361  0.49894897  0.74995998  1
  Zn  Zn87  1  0.62716739  0.25296951  0.37550332  1
  Zn  Zn88  1  0.24675063  0.12853314  0.37449611  1
  Zn  Zn89  1  0.62706751  0.37490078  0.73845028  1
  Zn  Zn90  1  0.62872413  0.75267699  0.37502272  1
  Zn  Zn91  1  0.12592127  0.24893608  0.87505924  1
  Zn  Zn92  1  0.37658669  0.37785778  0.50396273  1
  Zn  Zn93  1  -0.00234646  0.12433732  0.63158981  1
  Zn  Zn94  1  0.87866208  0.62346918  0.24104138  1
  Zn  Zn95  1  0.86910393  0.38078720  0.51056382  1
  Zn  Zn96  1  0.50488941  0.24894928  0.75126021  1
  Zn  Zn97  1  0.24923125  0.37724931  0.62363436  1
  Zn  Zn98  1  0.11857146  0.63107148  0.00249268  1
  Zn  Zn99  1  0.74626521  0.00157624  0.24427234  1
  Zn  Zn100  1  0.87727331  -0.00451994  0.37415986  1
  Zn  Zn101  1  0.12738933  0.25044656  0.37441987  1
  Zn  Zn102  1  0.63675685  0.25435504  0.88024043  1
  Zn  Zn103  1  0.88755424  0.75740077  0.63074902  1
  Zn  Zn104  1  0.25496468  0.87924172  0.61759795  1
  Zn  Zn105  1  0.50203784  0.12078934  0.63028679  1
  Zn  Zn106  1  0.25227489  0.25589265  0.49473160  1
  Zn  Zn107  1  0.18874276  0.18677898  0.18922970  1
  Zn  Zn108  1  0.18678468  0.18874320  0.68863229  1
  Zn  Zn109  1  0.18881364  0.68847298  0.19149438  1
  Zn  Zn110  1  0.18493514  0.68402776  0.68656603  1
  Zn  Zn111  1  0.69025214  0.19277820  0.18914058  1
  Zn  Zn112  1  0.68439372  0.18660848  0.69402140  1
  Zn  Zn113  1  0.68882218  0.69283525  0.18460067  1
  Zn  Zn114  1  0.68740019  0.68170138  0.68983432  1
  Zn  Zn115  1  0.31362442  0.31519534  0.31504484  1
  Zn  Zn116  1  0.31519749  0.31006504  0.81293998  1
  Zn  Zn117  1  0.31443396  0.81362303  0.31423403  1
  Zn  Zn118  1  0.30905820  0.81503771  0.80368911  1
  Zn  Zn119  1  0.81277233  0.31326549  0.31504491  1
  Zn  Zn120  1  0.81045633  0.31096833  0.80850952  1
  Zn  Zn121  1  0.82198645  0.81256054  0.31092215  1
  Zn  Zn122  1  0.81380831  0.81503401  0.81111264  1
  Zn  Zn123  1  0.19126362  0.43599544  0.43603402  1
  Zn  Zn124  1  0.18808688  0.43777820  0.93899773  1
  Zn  Zn125  1  0.20833014  0.95065729  0.47373773  1
  Zn  Zn126  1  0.18367656  0.93602982  0.93494815  1
  Zn  Zn127  1  0.69618187  0.43839785  0.42980357  1
  Zn  Zn128  1  0.68369825  0.44231575  0.94033618  1
  Zn  Zn129  1  0.69022380  0.93739683  0.43184478  1
  Zn  Zn130  1  0.68760584  0.93578744  0.93360600  1
  Zn  Zn131  1  0.31780774  0.06020823  0.06050226  1
  Zn  Zn132  1  0.31364377  0.06672589  0.56590423  1
  Zn  Zn133  1  0.31202239  0.56655752  0.06301055  1
  Zn  Zn134  1  0.30434793  0.56594190  0.56327190  1
  Zn  Zn135  1  0.81500043  0.05919707  0.06067974  1
  Zn  Zn136  1  0.81541251  0.06899253  0.56554911  1
  Zn  Zn137  1  0.80368570  0.56476016  0.05835573  1
  Zn  Zn138  1  0.81766219  0.56732319  0.56159196  1
  Zn  Zn139  1  0.43925130  0.44385678  0.18605107  1
  Zn  Zn140  1  0.43137918  0.43608711  0.69543755  1
  Zn  Zn141  1  0.43773555  0.93462616  0.18793804  1
  Zn  Zn142  1  0.43842172  0.93597361  0.68903608  1
  Zn  Zn143  1  0.93504618  0.43964827  0.19008497  1
  Zn  Zn144  1  0.93839580  0.43553360  0.68887392  1
  Zn  Zn145  1  0.93592587  0.93118881  0.18580745  1
  Zn  Zn146  1  0.94279446  0.93848537  0.68756926  1
  Zn  Zn147  1  0.06215739  0.05797419  0.32253780  1
  Zn  Zn148  1  0.06536863  0.06053444  0.81400379  1
  Zn  Zn149  1  0.06183814  0.56535986  0.31252006  1
  Zn  Zn150  1  0.06213453  0.55897586  0.81676499  1
  Zn  Zn151  1  0.56413167  0.06028353  0.31224736  1
  Zn  Zn152  1  0.56425763  0.06113029  0.81551869  1
  Zn  Zn153  1  0.56610444  0.56562054  0.31154063  1
  Zn  Zn154  1  0.56179556  0.55990568  0.80977903  1
  Zn  Zn155  1  0.44021040  0.18731197  0.43775925  1
  Zn  Zn156  1  0.47526318  0.20256837  0.95589585  1
  Zn  Zn157  1  0.43624335  0.68612991  0.43470499  1
  Zn  Zn158  1  0.43876564  0.68632561  0.94179282  1
  Zn  Zn159  1  0.93525273  0.19158412  0.43991437  1
  Zn  Zn160  1  0.93455691  0.18278004  0.93600898  1
  Zn  Zn161  1  0.94736859  0.69621647  0.44136374  1
  Zn  Zn162  1  0.93504230  0.68809278  0.93478734  1
  Zn  Zn163  1  0.06198651  0.31408924  0.06246584  1
  Zn  Zn164  1  0.05883415  0.31175208  0.56639768  1
  Zn  Zn165  1  0.06535245  0.81467737  0.05986813  1
  Zn  Zn166  1  0.10702054  0.81223715  0.54180918  1
  Zn  Zn167  1  0.56587194  0.31326153  0.06046504  1
  Zn  Zn168  1  0.55629023  0.29469617  0.56103046  1
  Zn  Zn169  1  0.56415247  0.81173801  0.06133534  1
  Zn  Zn170  1  0.56261796  0.81121748  0.56226777  1
  O  O171  1  0.11964159  0.11777349  0.12230926  1
  O  O172  1  0.12024957  0.13119881  0.61146163  1
  O  O173  1  0.13166020  0.61243578  0.12173243  1
  O  O174  1  0.11379216  0.61140651  0.63081646  1
  O  O175  1  0.61501519  0.12611191  0.13313193  1
  O  O176  1  0.62420302  0.11582174  0.61686679  1
  O  O177  1  0.61805000  0.62876716  0.12678799  1
  O  O178  1  0.61790055  0.62742866  0.61174435  1
  O  O179  1  0.38429506  0.38644330  0.37635003  1
  O  O180  1  0.37438010  0.38771513  0.88260072  1
  O  O181  1  0.38888065  0.88418381  0.36863982  1
  O  O182  1  0.38634093  0.88098586  0.86481096  1
  O  O183  1  0.88462318  0.38603584  0.36729030  1
  O  O184  1  0.87753791  0.37685288  0.88362995  1
  O  O185  1  0.88714585  0.87389414  0.38807646  1
  O  O186  1  0.88329890  0.88488749  0.87250018  1
  O  O187  1  0.26090562  0.00006383  0.37605240  1
  O  O188  1  0.25808380  0.00713068  0.88215819  1
  O  O189  1  0.25826547  0.50585744  0.36745731  1
  O  O190  1  0.25626865  0.51087356  0.87711798  1
  O  O191  1  0.75492555  0.01136934  0.36795685  1
  O  O192  1  0.75755456  0.00392730  0.87028016  1
  O  O193  1  0.75793170  0.51476080  0.36497717  1
  O  O194  1  0.75503730  0.50853336  0.87302645  1
  O  O195  1  0.24316398  0.49553388  0.12973352  1
  O  O196  1  0.23338524  0.50213201  0.62971724  1
  O  O197  1  0.24831846  0.99198038  0.13039215  1
  O  O198  1  0.24382363  0.98589365  0.58160188  1
  O  O199  1  0.75824486  0.48743741  0.13264042  1
  O  O200  1  0.75516849  0.50500417  0.63629020  1
  O  O201  1  0.75652826  0.98477778  0.12458270  1
  O  O202  1  0.74117798  1.00341615  0.63118663  1
  O  O203  1  0.00468898  0.36685724  0.25130330  1
  O  O204  1  0.00570499  0.36723947  0.76083206  1
  O  O205  1  0.00685059  0.86764564  0.25288914  1
  O  O206  1  0.00685306  0.87896524  0.76421401  1
  O  O207  1  0.50648003  0.37337258  0.25362281  1
  O  O208  1  0.50605911  0.37825768  0.75879047  1
  O  O209  1  0.50670548  0.86632470  0.25425094  1
  O  O210  1  0.51051049  0.87083123  0.75767327  1
  O  O211  1  0.49419871  0.12655136  0.24474858  1
  O  O212  1  0.49181468  0.12567090  0.75300894  1
  O  O213  1  0.49299285  0.63851664  0.25712384  1
  O  O214  1  0.49682060  0.62873586  0.73682566  1
  O  O215  1  0.99529153  0.13127617  0.24603790  1
  O  O216  1  1.00768182  0.13951491  0.75466604  1
  O  O217  1  1.00113813  0.63868415  0.24257268  1
  O  O218  1  0.98625234  0.61949420  0.75352865  1
  O  O219  1  0.37414578  0.25755319  0.00873815  1
  O  O220  1  0.37810306  0.24866829  0.51319058  1
  O  O221  1  0.36795171  0.74685680  0.01234856  1
  O  O222  1  0.37957592  0.74840358  0.51279361  1
  O  O223  1  0.88221843  0.25643830  0.01299417  1
  O  O224  1  0.87218513  0.25176768  0.51451027  1
  O  O225  1  0.86569093  0.75096106  0.00142049  1
  O  O226  1  0.86923624  0.76010999  0.50641523  1
  O  O227  1  0.12160626  0.24103304  0.49744128  1
  O  O228  1  0.13336434  0.24293398  1.00183298  1
  O  O229  1  0.04446161  0.77457962  0.45661463  1
  O  O230  1  0.13377439  0.74908339  0.99149652  1
  O  O231  1  0.62691689  0.23677076  0.49502957  1
  O  O232  1  0.58439028  0.24015236  0.98034821  1
  O  O233  1  0.63462231  0.74515016  0.49716287  1
  O  O234  1  0.63105029  0.75376512  0.98512362  1
  O  O235  1  0.49409049  0.23989550  0.13277925  1
  O  O236  1  0.48663182  0.24099856  0.63119672  1
  O  O237  1  0.48931186  0.75862253  0.13249651  1
  O  O238  1  0.49297537  0.74257310  0.62913844  1
  O  O239  1  0.99365515  0.24628791  0.13423541  1
  O  O240  1  0.99358352  0.24770340  0.63659746  1
  O  O241  1  0.99131738  0.75767383  0.12846295  1
  O  O242  1  1.00544639  0.72917143  0.62276453  1
  O  O243  1  -0.00348969  0.25866282  0.36173136  1
  O  O244  1  -0.00073844  0.25593958  0.87175819  1
  O  O245  1  -0.02452101  0.75451659  0.34196816  1
  O  O246  1  0.00849825  0.75942646  0.88208855  1
  O  O247  1  0.49962084  0.26527445  0.36953232  1
  O  O248  1  0.47624491  0.27283286  0.86507699  1
  O  O249  1  0.49988860  0.75794457  0.36710070  1
  O  O250  1  0.50426871  0.75607695  0.87084849  1
  O  O251  1  0.23613719  0.13162209  0.49722452  1
  O  O252  1  0.24826643  0.12965125  0.99472069  1
  O  O253  1  0.25069773  0.62713679  0.48434314  1
  O  O254  1  0.24934553  0.63723214  0.99012172  1
  O  O255  1  0.74100656  0.12555906  0.49158684  1
  O  O256  1  0.75141458  0.12145679  0.98966037  1
  O  O257  1  0.74665857  0.63333902  0.49380199  1
  O  O258  1  0.75320753  0.63700912  0.98267335  1
  O  O259  1  0.25839179  0.36765395  0.00459527  1
  O  O260  1  0.25669563  0.37336473  0.50455471  1
  O  O261  1  0.24543771  0.86498126  0.00742363  1
  O  O262  1  0.21081031  0.84560903  0.51331009  1
  O  O263  1  0.76065630  0.37842875  0.00661102  1
  O  O264  1  0.75752309  0.36804075  0.48577338  1
  O  O265  1  0.74500700  0.86422236  0.00371415  1
  O  O266  1  0.75816557  0.86687793  0.49317032  1
  O  O267  1  0.12827962  0.49565196  0.24151854  1
  O  O268  1  0.12503658  0.48651408  0.75314491  1
  O  O269  1  0.12964612  0.99382188  0.24512603  1
  O  O270  1  0.12405841  0.98811454  0.74872244  1
  O  O271  1  0.63873580  0.49496164  0.25314025  1
  O  O272  1  0.64077882  0.50072473  0.74881192  1
  O  O273  1  0.62511408  0.98462082  0.25015405  1
  O  O274  1  0.63018742  0.99285507  0.74207279  1
  O  O275  1  0.37152848  0.00507977  0.25870423  1
  O  O276  1  0.38059102  0.00940773  0.75965841  1
  O  O277  1  0.37017420  0.50973827  0.25542988  1
  O  O278  1  0.36836479  0.50926682  0.76012366  1
  O  O279  1  0.87797268  0.01267764  0.24809957  1
  O  O280  1  0.86661664  -0.00577330  0.75744778  1
  O  O281  1  0.86397113  0.50464290  0.25502552  1
  O  O282  1  0.86704484  0.50692933  0.75571224  1
  O  O283  1  0.11636147  0.37632865  0.36553076  1
  O  O284  1  0.11825347  0.37185086  0.87186601  1
  O  O285  1  0.11732600  0.88027590  0.36194475  1
  O  O286  1  0.11999818  0.86877335  0.86359279  1
  O  O287  1  0.61791827  0.37805745  0.36161998  1
  O  O288  1  0.61337206  0.37778346  0.87786077  1
  O  O289  1  0.61488267  0.87341826  0.36699728  1
  O  O290  1  0.61405731  0.86826365  0.86772549  1
  O  O291  1  0.37995482  0.12554841  0.13746068  1
  O  O292  1  0.37698065  0.12947600  0.63477670  1
  O  O293  1  0.36786594  0.63517762  0.13857171  1
  O  O294  1  0.38135990  0.63109156  0.62813148  1
  O  O295  1  0.87983286  0.13165014  0.12958518  1
  O  O296  1  0.87964747  0.14202707  0.62621363  1
  O  O297  1  0.86758839  0.64006306  0.12051959  1
  O  O298  1  0.88936395  0.62185603  0.63587953  1
  O  O299  1  0.25722159  0.25458862  0.12007072  1
  O  O300  1  0.26262549  0.24952878  0.62351264  1
  O  O301  1  0.25409524  0.75639137  0.11813838  1
  O  O302  1  0.26659523  0.74148428  0.62938609  1
  O  O303  1  0.75936200  0.26407410  0.12971670  1
  O  O304  1  0.76077922  0.24678327  0.62925013  1
  O  O305  1  0.75642123  0.75617017  0.11246868  1
  O  O306  1  0.75333756  0.74365513  0.61554868  1
  O  O307  1  0.24752154  0.24777651  0.37556121  1
  O  O308  1  0.25190495  0.24059868  0.88467436  1
  O  O309  1  0.25182606  0.73758909  0.36728407  1
  O  O310  1  0.24556585  0.74750495  0.88109029  1
  O  O311  1  0.74870510  0.23525595  0.37067603  1
  O  O312  1  0.75519155  0.23321739  0.87472276  1
  O  O313  1  0.75438928  0.74097050  0.37879385  1
  O  O314  1  0.74257800  0.74646380  0.87723871  1
  O  O315  1  0.00586891  0.11720719  0.00653936  1
  O  O316  1  0.00496430  0.11976280  0.49814873  1
  O  O317  1  -0.00115240  0.61045307  -0.00588396  1
  O  O318  1  -0.00518707  0.61783995  0.51178631  1
  O  O319  1  0.48988245  0.10486904  0.01403608  1
  O  O320  1  0.51356948  0.11249703  0.49652891  1
  O  O321  1  0.50895906  0.62318797  -0.00001713  1
  O  O322  1  0.50852200  0.62907771  0.50886536  1
  O  O323  1  0.50393228  0.38441923  0.49425321  1
  O  O324  1  0.48531486  0.37841937  0.99486970  1
  O  O325  1  0.50629825  0.88566337  0.49110916  1
  O  O326  1  0.50075460  0.88443662  0.99266309  1
  O  O327  1  0.99578300  0.37029067  0.48548516  1
  O  O328  1  0.98858049  0.38109582  0.99729090  1
  O  O329  1  0.99027817  0.89555537  0.50289595  1
  O  O330  1  1.01116643  0.88623043  0.98637023  1
  O  O331  1  0.49199768  0.49170034  0.36587337  1
  O  O332  1  0.48635512  0.49418548  0.87049925  1
  O  O333  1  0.49608977  0.99222643  0.37992764  1
  O  O334  1  0.49565210  0.99301044  0.88573563  1
  O  O335  1  0.99048394  0.49193122  0.36348056  1
  O  O336  1  0.99213699  0.49013823  0.88374808  1
  O  O337  1  0.99664723  0.98730341  0.38667763  1
  O  O338  1  0.99342284  0.99610255  0.88085736  1
  O  O339  1  0.00365537  0.00116578  0.11732653  1
  O  O340  1  -0.00592431  0.00794525  0.61014874  1
  O  O341  1  0.00777742  0.49373679  0.11703559  1
  O  O342  1  0.01259980  0.50614488  0.63194947  1
  O  O343  1  0.49698991  0.00149750  0.11495174  1
  O  O344  1  0.50892044  -0.00078691  0.61627724  1
  O  O345  1  0.50261998  0.50794020  0.12137721  1
  O  O346  1  0.49274246  0.50783187  0.62240899  1
  O  O347  1  0.24496319  0.38273517  0.24424163  1
  O  O348  1  0.24078984  0.37504796  0.74891609  1
  O  O349  1  0.24223893  0.87929591  0.24508262  1
  O  O350  1  0.23433138  0.87267136  0.73931197  1
  O  O351  1  0.74300823  0.38270639  0.24486897  1
  O  O352  1  0.74839024  0.39172966  0.75371026  1
  O  O353  1  0.74459635  0.87373074  0.24243694  1
  O  O354  1  0.73688860  0.88437443  0.75790991  1
  O  O355  1  0.25819389  0.11548821  0.25111611  1
  O  O356  1  0.25436167  0.12796261  0.76329757  1
  O  O357  1  0.25764375  0.61996068  0.25541007  1
  O  O358  1  0.25471466  0.62630801  0.76375234  1
  O  O359  1  0.75908380  0.12290872  0.25279652  1
  O  O360  1  0.74795878  0.11063671  0.75760949  1
  O  O361  1  0.75087314  0.62160023  0.25578323  1
  O  O362  1  0.75796479  0.61500704  0.75651261  1
  O  O363  1  0.37822352  0.11834896  0.36329448  1
  O  O364  1  0.36807145  0.11433349  0.86992673  1
  O  O365  1  0.36967638  0.62063683  0.36471158  1
  O  O366  1  0.36931474  0.62107905  0.87196415  1
  O  O367  1  0.87013638  0.12545496  0.36565272  1
  O  O368  1  0.86516506  0.11024732  0.87850568  1
  O  O369  1  0.87136036  0.62111842  0.37199617  1
  O  O370  1  0.86803170  0.62040949  0.86470599  1
  O  O371  1  0.13112208  0.38344733  0.12923487  1
  O  O372  1  0.12267302  0.38521782  0.63331845  1
  O  O373  1  0.13534887  0.88024739  0.13168987  1
  O  O374  1  0.10648132  0.86674936  0.64417845  1
  O  O375  1  0.63233257  0.37032721  0.13462168  1
  O  O376  1  0.60945326  0.38411758  0.61660573  1
  O  O377  1  0.63802139  0.86520327  0.13268506  1
  O  O378  1  0.62135845  0.88225613  0.63399309  1
  O  O379  1  0.11573070  0.25644491  0.24801101  1
  O  O380  1  0.11809170  0.26162514  0.75151938  1
  O  O381  1  0.11052719  0.75824318  0.24002736  1
  O  O382  1  0.12781464  0.75152677  0.76230410  1
  O  O383  1  0.61814916  0.26041947  0.25324665  1
  O  O384  1  0.62284863  0.25686395  0.75903028  1
  O  O385  1  0.61791745  0.75849535  0.25290900  1
  O  O386  1  0.62100715  0.75570981  0.75575007  1
  O  O387  1  0.38048417  0.24234055  0.24596123  1
  O  O388  1  0.37355897  0.23739570  0.74133633  1
  O  O389  1  0.38203240  0.74486678  0.24179904  1
  O  O390  1  0.38354928  0.74221779  0.74804999  1
  O  O391  1  0.88078537  0.24146627  0.24030553  1
  O  O392  1  0.88366431  0.25371713  0.74157242  1
  O  O393  1  0.88032439  0.74668173  0.23142253  1
  O  O394  1  0.86748146  0.73407904  0.74693805  1
  O  O395  1  0.37298069  0.50404968  0.48765563  1
  O  O396  1  0.36664225  0.49376882  0.99229779  1
  O  O397  1  0.38899600  1.01003217  0.48693148  1
  O  O398  1  0.38201580  0.99585731  0.98789023  1
  O  O399  1  0.87049354  0.49982599  0.48465443  1
  O  O400  1  0.87885354  0.49285008  0.99600234  1
  O  O401  1  0.87883080  0.99843451  0.49778248  1
  O  O402  1  0.88842431  1.00007607  0.99296084  1
  O  O403  1  0.11874403  0.00587531  0.00630464  1
  O  O404  1  0.10896520  0.01666393  0.49319316  1
  O  O405  1  0.11507537  0.49979846  0.00755589  1
  O  O406  1  0.12223323  0.49358826  0.51189762  1
  O  O407  1  0.61127420  -0.00344896  -0.00226938  1
  O  O408  1  0.62322419  0.00200946  0.50606628  1
  O  O409  1  0.63139126  0.50898814  0.01287884  1
  O  O410  1  0.62711754  0.50933750  0.49493692  1
  O  O411  1  0.36993228  0.37270943  0.11970587  1
  O  O412  1  0.37438778  0.36299302  0.62640797  1
  O  O413  1  0.36064231  0.86623461  0.13282682  1
  O  O414  1  0.37599483  0.85800569  0.63086289  1
  O  O415  1  0.86918652  0.36815370  0.11966218  1
  O  O416  1  0.88331194  0.35901014  0.62508590  1
  O  O417  1  0.86451782  0.86173548  0.12549012  1
  O  O418  1  0.87775761  0.87459378  0.61550343  1
  O  O419  1  0.12477881  0.12993160  0.38588032  1
  O  O420  1  0.13410621  0.12565657  0.88281448  1
  O  O421  1  0.13828306  0.62370904  0.37018073  1
  O  O422  1  0.13175793  0.63151026  0.87783730  1
  O  O423  1  0.63287460  0.12391537  0.38043499  1
  O  O424  1  0.64345490  0.11994531  0.87427997  1
  O  O425  1  0.63425549  0.62879397  0.38523951  1
  O  O426  1  0.63261442  0.63513178  0.86395958  1
