# generated using pymatgen
data_V85Zn86O256
_symmetry_space_group_name_H-M   'P 1'
_cell_length_a   16.94642437
_cell_length_b   16.95085477
_cell_length_c   16.93251495
_cell_angle_alpha   90.06234174
_cell_angle_beta   89.94973347
_cell_angle_gamma   90.03118565
_symmetry_Int_Tables_number   1
_chemical_formula_structural   V85Zn86O256
_chemical_formula_sum   'V85 Zn86 O256'
_cell_volume   4863.96745113
_cell_formula_units_Z   1
loop_
 _symmetry_equiv_pos_site_id
 _symmetry_equiv_pos_as_xyz
  1  'x, y, z'
loop_
 _atom_site_type_symbol
 _atom_site_label
 _atom_site_symmetry_multiplicity
 _atom_site_fract_x
 _atom_site_fract_y
 _atom_site_fract_z
 _atom_site_occupancy
  V  V0  1  0.50127397  0.12747071  0.62088262  1
  V  V1  1  0.75116839  0.62212230  0.36902665  1
  V  V2  1  0.62725484  0.00693757  0.62206807  1
  V  V3  1  0.87137053  0.25115375  0.62042321  1
  V  V4  1  0.12797149  0.62260725  -0.00576227  1
  V  V5  1  0.62466405  0.00294046  0.12380055  1
  V  V6  1  0.25366764  0.24771427  0.50062629  1
  V  V7  1  0.38270268  0.62994242  0.74077375  1
  V  V8  1  0.00312666  0.12449459  0.12934733  1
  V  V9  1  0.24810835  0.49447251  0.24554149  1
  V  V10  1  -0.00909723  0.62919427  0.63165866  1
  V  V11  1  0.37493181  0.49834995  0.86592821  1
  V  V12  1  0.36770349  0.37446826  0.00102582  1
  V  V13  1  0.87368898  0.87161840  0.50738031  1
  V  V14  1  0.49725151  0.62194678  0.12646835  1
  V  V15  1  0.75295412  0.74227400  0.50450463  1
  V  V16  1  0.62380469  0.87396081  0.25129279  1
  V  V17  1  0.63131944  0.25162396  0.88208520  1
  V  V18  1  0.13336814  0.37223193  0.74717076  1
  V  V19  1  0.00408782  -0.00377215  0.49887671  1
  V  V20  1  0.75180446  0.87642959  0.12651627  1
  V  V21  1  0.87334235  0.00509574  0.87228909  1
  V  V22  1  0.25445157  0.87544338  0.11955272  1
  V  V23  1  0.37166609  0.62302124  0.24920554  1
  V  V24  1  0.12510836  0.87298547  0.24923201  1
  V  V25  1  0.75056669  0.37640154  0.61074746  1
  V  V26  1  0.00181971  0.48548784  -0.01514400  1
  V  V27  1  0.37397698  0.75149867  0.12016990  1
  V  V28  1  0.00097764  -0.00011374  0.00170377  1
  V  V29  1  0.50040832  0.13281777  0.12483521  1
  V  V30  1  0.12694183  0.00038666  0.64452558  1
  V  V31  1  0.62684487  0.38098427  0.25990428  1
  V  V32  1  0.61854725  0.23236785  0.37402976  1
  V  V33  1  0.37291412  -0.00037443  0.37476039  1
  V  V34  1  0.62411332  0.88277515  0.75271631  1
  V  V35  1  0.63830788  0.72832981  0.85417533  1
  V  V36  1  0.37409223  0.11459485  0.75247390  1
  V  V37  1  0.62157447  0.51005142  0.62638596  1
  V  V38  1  0.63925809  0.49967585  0.12905683  1
  V  V39  1  0.31520634  0.42271863  0.55741522  1
  V  V40  1  0.12363760  0.25021301  0.37841337  1
  V  V41  1  0.75387474  0.01205520  0.74957532  1
  V  V42  1  0.25341140  0.62200414  0.86533783  1
  V  V43  1  0.50394711  0.00129382  0.49915419  1
  V  V44  1  -0.01028854  0.49736114  0.50594103  1
  V  V45  1  0.37496415  0.87114472  0.50567539  1
  V  V46  1  0.74472326  0.23328195  0.49157334  1
  V  V47  1  0.49950622  0.37381171  0.87478870  1
  V  V48  1  0.37315487  0.25629878  0.12664611  1
  V  V49  1  0.12671828  0.12383917  0.50151380  1
  V  V50  1  0.49536997  -0.00182662  -0.00027180  1
  V  V51  1  0.00664404  0.88076178  0.86657032  1
  V  V52  1  0.87118610  0.00298506  0.37757405  1
  V  V53  1  0.12877326  0.49398458  0.11995650  1
  V  V54  1  -0.00213047  0.74561740  0.24608217  1
  V  V55  1  0.49871994  0.49868995  0.00273559  1
  V  V56  1  0.62426060  0.62491008  0.00025335  1
  V  V57  1  0.12194317  0.62375693  0.50332264  1
  V  V58  1  0.37655174  0.13012979  0.25056272  1
  V  V59  1  -0.00131751  0.24857539  0.25311803  1
  V  V60  1  0.12205413  0.74794642  0.37486099  1
  V  V61  1  0.24973095  0.75401833  0.50239380  1
  V  V62  1  0.49752514  0.87047788  0.87916105  1
  V  V63  1  0.24685320  0.11983669  0.87454969  1
  V  V64  1  0.37332630  0.49045148  0.37053837  1
  V  V65  1  0.74919420  0.00813496  0.25497379  1
  V  V66  1  0.87629324  0.74904572  0.12243950  1
  V  V67  1  -0.00651003  0.12897130  0.62480892  1
  V  V68  1  0.62765164  0.37655496  0.74454194  1
  V  V69  1  0.49689790  0.75035031  0.25081792  1
  V  V70  1  -0.01131553  0.37455149  0.38265943  1
  V  V71  1  0.25680331  0.75275532  -0.00496796  1
  V  V72  1  0.12632240  0.00177907  0.12136461  1
  V  V73  1  0.50068179  0.49771217  0.50119656  1
  V  V74  1  0.87076650  0.36834445  -0.01169334  1
  V  V75  1  0.37047487  0.24854396  0.62666569  1
  V  V76  1  -0.01350446  0.74982300  0.74932942  1
  V  V77  1  0.49707816  0.74870414  0.73279348  1
  V  V78  1  0.12866818  0.75558360  0.86366438  1
  V  V79  1  0.00033359  0.62105583  0.12028949  1
  V  V80  1  0.86590319  0.24892373  0.12599119  1
  V  V81  1  0.12398004  0.37206481  0.24604940  1
  V  V82  1  0.24652366  0.87884659  0.63594327  1
  V  V83  1  0.74735056  0.75094906  -0.00367877  1
  V  V84  1  0.24244969  0.24423731  -0.00088590  1
  Zn  Zn85  1  0.24883779  0.12448609  0.37245369  1
  Zn  Zn86  1  0.85679977  0.60519178  0.22911596  1
  Zn  Zn87  1  0.61164947  0.63150182  0.50047205  1
  Zn  Zn88  1  0.49847237  0.24933725  0.74989582  1
  Zn  Zn89  1  0.49834723  0.87245962  0.37612568  1
  Zn  Zn90  1  0.93110071  0.19497554  0.78701587  1
  Zn  Zn91  1  0.49631434  0.36801936  0.37332177  1
  Zn  Zn92  1  -0.00246262  0.87044776  0.37519106  1
  Zn  Zn93  1  0.84649812  0.53899561  0.82997220  1
  Zn  Zn94  1  0.87187293  0.12773427  0.25760648  1
  Zn  Zn95  1  0.13539257  0.49484533  0.62756531  1
  Zn  Zn96  1  0.24571982  0.62355715  0.37254709  1
  Zn  Zn97  1  0.10503783  0.25867062  0.86987582  1
  Zn  Zn98  1  0.63158955  0.13134633  0.00413339  1
  Zn  Zn99  1  0.75378945  0.87423201  0.62731003  1
  Zn  Zn100  1  0.62577324  0.74910907  0.37559341  1
  Zn  Zn101  1  0.75540929  0.37832222  0.12901806  1
  Zn  Zn102  1  0.25027143  0.00054822  0.24915401  1
  Zn  Zn103  1  0.37445286  -0.00547402  0.87717500  1
  Zn  Zn104  1  0.87579534  0.87672524  -0.00100717  1
  Zn  Zn105  1  0.87037648  0.49813332  0.37138818  1
  Zn  Zn106  1  0.75582704  0.13376980  0.88088535  1
  Zn  Zn107  1  0.19091481  0.18728013  0.18594124  1
  Zn  Zn108  1  0.18809359  0.18674577  0.68981851  1
  Zn  Zn109  1  0.18643919  0.68451414  0.18409037  1
  Zn  Zn110  1  0.18862868  0.68967148  0.68535590  1
  Zn  Zn111  1  0.68361961  0.19154800  0.19436932  1
  Zn  Zn112  1  0.68589110  0.19245410  0.68911410  1
  Zn  Zn113  1  0.68504356  0.68854045  0.18500628  1
  Zn  Zn114  1  0.68887676  0.69257092  0.68279450  1
  Zn  Zn115  1  0.30749501  0.31147975  0.31040365  1
  Zn  Zn116  1  0.30658713  0.30774956  0.80871967  1
  Zn  Zn117  1  0.31028753  0.81367305  0.31445848  1
  Zn  Zn118  1  0.31762098  0.81357278  0.81238614  1
  Zn  Zn119  1  0.80699780  0.31313470  0.31251980  1
  Zn  Zn120  1  0.80518622  0.32679162  0.80640328  1
  Zn  Zn121  1  0.81509640  0.80996990  0.31571190  1
  Zn  Zn122  1  0.81269515  0.82269650  0.81286965  1
  Zn  Zn123  1  0.17642911  0.44136836  0.43177279  1
  Zn  Zn124  1  0.18988745  0.43136665  0.92418909  1
  Zn  Zn125  1  0.18762843  0.93644110  0.43755337  1
  Zn  Zn126  1  0.18830003  0.93911109  0.93700687  1
  Zn  Zn127  1  0.68678930  0.44210234  0.44135180  1
  Zn  Zn128  1  0.69044278  0.43356123  0.94278691  1
  Zn  Zn129  1  0.68811954  0.93521076  0.43740898  1
  Zn  Zn130  1  0.68492438  0.94094655  0.93776975  1
  Zn  Zn131  1  0.31446204  0.06421306  0.06166242  1
  Zn  Zn132  1  0.31166030  0.06055910  0.56411440  1
  Zn  Zn133  1  0.31071462  0.56240214  0.05820202  1
  Zn  Zn134  1  0.32210362  0.58606944  0.55362029  1
  Zn  Zn135  1  0.81276688  0.06631774  0.06163764  1
  Zn  Zn136  1  0.81265336  0.06272076  0.56051291  1
  Zn  Zn137  1  0.82949403  0.57494272  0.01258983  1
  Zn  Zn138  1  0.83637144  0.53631132  0.62167488  1
  Zn  Zn139  1  0.44406718  0.43217948  0.18995632  1
  Zn  Zn140  1  0.44633962  0.44201534  0.69181104  1
  Zn  Zn141  1  0.43672936  0.93987060  0.18608530  1
  Zn  Zn142  1  0.43812525  0.93548386  0.68573331  1
  Zn  Zn143  1  0.93836606  0.43498835  0.18507412  1
  Zn  Zn144  1  0.95583296  0.43758439  0.70826739  1
  Zn  Zn145  1  0.93632787  0.93626319  0.19049125  1
  Zn  Zn146  1  0.94007518  0.94081539  0.68796270  1
  Zn  Zn147  1  0.06229315  0.06062641  0.31408123  1
  Zn  Zn148  1  0.05564499  0.08327555  0.82212018  1
  Zn  Zn149  1  0.05435728  0.55933650  0.31194701  1
  Zn  Zn150  1  0.06867714  0.55917175  0.80602113  1
  Zn  Zn151  1  0.55588295  0.06013527  0.30826313  1
  Zn  Zn152  1  0.56007284  0.06612288  0.81263886  1
  Zn  Zn153  1  0.56368556  0.56196596  0.31612250  1
  Zn  Zn154  1  0.66952331  0.55521913  0.81617956  1
  Zn  Zn155  1  0.43709024  0.18748197  0.43918531  1
  Zn  Zn156  1  0.43825233  0.18737632  0.93924921  1
  Zn  Zn157  1  0.43382378  0.68410347  0.43404626  1
  Zn  Zn158  1  0.44408869  0.68758002  0.93023253  1
  Zn  Zn159  1  0.93352796  0.18746503  0.44357177  1
  Zn  Zn160  1  0.93713601  0.18069200  0.95216746  1
  Zn  Zn161  1  0.93379677  0.68422982  0.43842060  1
  Zn  Zn162  1  0.94081352  0.68985480  0.93338074  1
  Zn  Zn163  1  0.06104243  0.30938719  0.06301100  1
  Zn  Zn164  1  0.06433960  0.31685512  0.57561303  1
  Zn  Zn165  1  0.06748186  0.81218309  0.05571490  1
  Zn  Zn166  1  0.06455123  0.81440345  0.56735497  1
  Zn  Zn167  1  0.56156641  0.31685442  0.06638205  1
  Zn  Zn168  1  0.56019794  0.31506767  0.55439768  1
  Zn  Zn169  1  0.56380587  0.81202358  0.06182931  1
  Zn  Zn170  1  0.56857586  0.81882583  0.56136913  1
  O  O171  1  0.11445536  0.11482101  0.13399719  1
  O  O172  1  0.12072356  0.11858659  0.61822849  1
  O  O173  1  0.12131413  0.61591398  0.11417144  1
  O  O174  1  0.12310980  0.62493651  0.61345371  1
  O  O175  1  0.61556306  0.12341024  0.12853199  1
  O  O176  1  0.61591935  0.11580050  0.62973198  1
  O  O177  1  0.61693529  0.61913767  0.11971466  1
  O  O178  1  0.63157617  0.61308838  0.62205477  1
  O  O179  1  0.37528564  0.38575736  0.36547083  1
  O  O180  1  0.37953850  0.37956452  0.87917583  1
  O  O181  1  0.37504099  0.88303774  0.38388990  1
  O  O182  1  0.39218811  0.87563320  0.87318200  1
  O  O183  1  0.88566170  0.37394909  0.37476959  1
  O  O184  1  0.87558781  0.36464388  0.88794411  1
  O  O185  1  0.87809715  0.88441534  0.38387006  1
  O  O186  1  0.88597874  0.88892684  0.87782603  1
  O  O187  1  0.26169409  0.00129995  0.37439630  1
  O  O188  1  0.25844380  0.01415948  0.88728206  1
  O  O189  1  0.25367133  0.50018241  0.36430284  1
  O  O190  1  0.26311943  0.51176056  0.88268743  1
  O  O191  1  0.75756663  -0.00665589  0.36643533  1
  O  O192  1  0.75872649  -0.00216573  0.86717344  1
  O  O193  1  0.75191154  0.51782736  0.38432694  1
  O  O194  1  0.74693562  0.49288944  0.86748330  1
  O  O195  1  0.23657738  0.50233986  0.12757049  1
  O  O196  1  0.26284424  0.49347416  0.60646741  1
  O  O197  1  0.24414415  0.99299624  0.12390997  1
  O  O198  1  0.23763496  0.99367877  0.62219514  1
  O  O199  1  0.73875500  0.50446373  0.11943822  1
  O  O200  1  0.73646223  0.48401573  0.61203407  1
  O  O201  1  0.74618468  0.99234035  0.13350208  1
  O  O202  1  0.74256930  1.00124850  0.63039407  1
  O  O203  1  0.00711842  0.36634378  0.25897658  1
  O  O204  1  0.02279497  0.35985381  0.73726175  1
  O  O205  1  0.01166387  0.86624885  0.24723186  1
  O  O206  1  -0.00088660  0.87008920  0.76042938  1
  O  O207  1  0.51926788  0.37271498  0.25205939  1
  O  O208  1  0.50716153  0.37166021  0.75925933  1
  O  O209  1  0.50587835  0.86805895  0.24859187  1
  O  O210  1  0.50485326  0.87063408  0.75582218  1
  O  O211  1  0.48560259  0.12072743  0.23957768  1
  O  O212  1  0.49299483  0.12732077  0.73757775  1
  O  O213  1  0.49333514  0.63164662  0.24526452  1
  O  O214  1  0.49662161  0.64624135  0.74966828  1
  O  O215  1  0.99754693  0.12998578  0.24679506  1
  O  O216  1  0.99634461  0.11626511  0.72782145  1
  O  O217  1  1.00660870  0.62957764  0.23166365  1
  O  O218  1  1.00404340  0.63272524  0.73937412  1
  O  O219  1  0.36924102  0.25643117  0.00718931  1
  O  O220  1  0.36179910  0.24764521  0.50513142  1
  O  O221  1  0.36442961  0.74364627  0.00165356  1
  O  O222  1  0.36404170  0.75888319  0.49243091  1
  O  O223  1  0.88420229  0.26064199  0.01123677  1
  O  O224  1  0.85523519  0.24754406  0.50453720  1
  O  O225  1  0.86531495  0.75694564  0.00494404  1
  O  O226  1  0.86286117  0.75844843  0.49376335  1
  O  O227  1  0.13642987  0.24485513  0.50052980  1
  O  O228  1  0.14004774  0.25588390  0.99659468  1
  O  O229  1  0.12794198  0.74554348  0.49303651  1
  O  O230  1  0.13627318  0.74363811  0.98815984  1
  O  O231  1  0.63213343  0.25015249  0.48552538  1
  O  O232  1  0.62114707  0.25568726  0.98567858  1
  O  O233  1  0.63513012  0.75157922  0.49690476  1
  O  O234  1  0.62978768  0.74208127  0.99395269  1
  O  O235  1  0.49086383  0.24011151  0.11960557  1
  O  O236  1  0.48884905  0.24347060  0.61913282  1
  O  O237  1  0.49355191  0.74606556  0.13299096  1
  O  O238  1  0.50026152  0.75959147  0.63393249  1
  O  O239  1  0.99697470  0.23943701  0.13183596  1
  O  O240  1  0.98412509  0.24163583  0.60965625  1
  O  O241  1  0.99839073  0.74152692  0.12301775  1
  O  O242  1  1.00959517  0.74030575  0.63658215  1
  O  O243  1  0.00409087  0.25567297  0.37582398  1
  O  O244  1  0.00886053  0.19778287  0.86679705  1
  O  O245  1  0.00494565  0.74816650  0.36637433  1
  O  O246  1  0.00906630  0.75919042  0.87047573  1
  O  O247  1  0.51391471  0.25029360  0.38225707  1
  O  O248  1  0.50387746  0.26214421  0.87615014  1
  O  O249  1  0.49893990  0.75079886  0.36168948  1
  O  O250  1  0.51696522  0.75616878  0.86713565  1
  O  O251  1  0.24483745  0.13153733  0.49736317  1
  O  O252  1  0.25743672  0.13669869  0.99234854  1
  O  O253  1  0.24146293  0.63700663  0.49461004  1
  O  O254  1  0.24673890  0.63240744  0.98816644  1
  O  O255  1  0.74391866  0.13442787  0.50072153  1
  O  O256  1  0.74378553  0.11925406  0.99353745  1
  O  O257  1  0.74818841  0.64061352  0.49160976  1
  O  O258  1  0.73486985  0.63971463  1.00839921  1
  O  O259  1  0.26194676  0.36393481  -0.00680313  1
  O  O260  1  0.25017460  0.37010462  0.49617610  1
  O  O261  1  0.24691051  0.86550786  0.00755955  1
  O  O262  1  0.25596928  0.87055641  0.50478719  1
  O  O263  1  0.76797051  0.37574037  0.00735623  1
  O  O264  1  0.73964558  0.36328155  0.50823097  1
  O  O265  1  0.74595604  0.87247482  0.01430190  1
  O  O266  1  0.75724317  0.86678027  0.50103939  1
  O  O267  1  0.12878864  0.49319157  0.24211203  1
  O  O268  1  0.12608916  0.48755798  0.74354328  1
  O  O269  1  0.12567552  0.99008839  0.24110604  1
  O  O270  1  0.11774725  1.00889841  0.74213197  1
  O  O271  1  0.62248418  0.49131420  0.24344326  1
  O  O272  1  0.61626504  0.48975253  0.73786015  1
  O  O273  1  0.63007629  0.99261885  0.24526349  1
  O  O274  1  0.62918028  0.99864826  0.74406392  1
  O  O275  1  0.37337056  0.00546883  0.25881991  1
  O  O276  1  0.38001849  0.01120611  0.75113631  1
  O  O277  1  0.36652634  0.50095943  0.25113341  1
  O  O278  1  0.38427351  0.51015527  0.76120691  1
  O  O279  1  0.86602122  -0.00201953  0.25886903  1
  O  O280  1  0.86552125  -0.00410792  0.75747242  1
  O  O281  1  0.88993482  0.50288265  0.25717090  1
  O  O282  1  0.87244851  0.50509878  0.72801252  1
  O  O283  1  0.11598258  0.36925660  0.36375002  1
  O  O284  1  0.11981987  0.37236669  0.86250577  1
  O  O285  1  0.12278170  0.86875358  0.36496541  1
  O  O286  1  0.11904953  0.86828999  0.87801282  1
  O  O287  1  0.62418875  0.37761736  0.36669362  1
  O  O288  1  0.61791151  0.36843450  0.86923702  1
  O  O289  1  0.62152208  0.87369814  0.36152127  1
  O  O290  1  0.61906552  0.87356018  0.86270623  1
  O  O291  1  0.38064214  0.13380260  0.13052382  1
  O  O292  1  0.37973905  0.13015880  0.63164410  1
  O  O293  1  0.37658802  0.63079428  0.13004142  1
  O  O294  1  0.37602298  0.62638960  0.64097075  1
  O  O295  1  0.88696461  0.12939657  0.12968612  1
  O  O296  1  0.88148001  0.13466017  0.61683071  1
  O  O297  1  0.88450605  0.62945888  0.11542388  1
  O  O298  1  0.89272472  0.63660859  0.61831511  1
  O  O299  1  0.25833418  0.24459787  0.11000083  1
  O  O300  1  0.26311110  0.24365771  0.61760043  1
  O  O301  1  0.25291180  0.75550147  0.11552105  1
  O  O302  1  0.24098147  0.76091657  0.60985313  1
  O  O303  1  0.76356356  0.24657621  0.13105178  1
  O  O304  1  0.74683547  0.25475802  0.61107722  1
  O  O305  1  0.75273887  0.75806718  0.11749053  1
  O  O306  1  0.74897295  0.75508184  0.61020717  1
  O  O307  1  0.24249637  0.24837108  0.38299880  1
  O  O308  1  0.25894357  0.23722461  0.88921961  1
  O  O309  1  0.23976913  0.74983212  0.38282205  1
  O  O310  1  0.24707325  0.74702808  0.87881501  1
  O  O311  1  0.73982437  0.24954341  0.38528194  1
  O  O312  1  0.73411859  0.25410526  0.86902896  1
  O  O313  1  0.74777293  0.74355369  0.38300998  1
  O  O314  1  0.74039575  0.77062024  0.89039786  1
  O  O315  1  0.00111218  0.10767120  0.01502216  1
  O  O316  1  0.00625897  0.11579634  0.50562250  1
  O  O317  1  0.00975925  0.61624217  0.00659881  1
  O  O318  1  0.00607313  0.62192921  0.50816193  1
  O  O319  1  0.50502190  0.11853945  0.00902440  1
  O  O320  1  0.49280326  0.11534573  0.51256527  1
  O  O321  1  0.50236362  0.62142476  0.00965129  1
  O  O322  1  0.49372554  0.60842378  0.49375376  1
  O  O323  1  0.49811998  0.38971059  0.49199336  1
  O  O324  1  0.48831541  0.37775870  0.99551533  1
  O  O325  1  0.49185309  0.88199484  0.49850667  1
  O  O326  1  0.50850755  0.88211111  0.99078577  1
  O  O327  1  1.00951969  0.38496058  0.49343015  1
  O  O328  1  0.99770832  0.38042988  0.99716677  1
  O  O329  1  0.99447371  0.88036669  0.49935865  1
  O  O330  1  1.00157968  0.88469322  0.99093313  1
  O  O331  1  0.48753811  0.49784941  0.37790911  1
  O  O332  1  0.48987915  0.48511610  0.88576408  1
  O  O333  1  0.48994584  0.99818528  0.38200817  1
  O  O334  1  0.50208016  0.99220529  0.88308206  1
  O  O335  1  0.99930441  0.49158224  0.38753021  1
  O  O336  1  1.00148893  0.50612814  0.88718546  1
  O  O337  1  0.99564501  0.99517743  0.38575872  1
  O  O338  1  0.99767402  0.99813383  0.88235032  1
  O  O339  1  0.00607448  0.00168968  0.12214437  1
  O  O340  1  0.00775531  0.00395003  0.61373313  1
  O  O341  1  0.01264036  0.50443742  0.11558640  1
  O  O342  1  0.00661549  0.51597853  0.62072196  1
  O  O343  1  0.50521535  0.00807693  0.12043119  1
  O  O344  1  0.50598393  0.00643862  0.61785358  1
  O  O345  1  0.50431292  0.50562104  0.12069126  1
  O  O346  1  0.50928564  0.49665110  0.61488132  1
  O  O347  1  0.23977855  0.38621356  0.25017765  1
  O  O348  1  0.23895882  0.37881731  0.75725012  1
  O  O349  1  0.23882099  0.87443893  0.24191210  1
  O  O350  1  0.25614048  0.86915666  0.73507858  1
  O  O351  1  0.73433385  0.37351102  0.24632657  1
  O  O352  1  0.73359138  0.37106420  0.73029582  1
  O  O353  1  0.74316257  0.87726070  0.24207772  1
  O  O354  1  0.74024152  0.88577313  0.74682819  1
  O  O355  1  0.26173088  0.12095547  0.25037813  1
  O  O356  1  0.25968341  0.12813248  0.76573259  1
  O  O357  1  0.25202777  0.61231573  0.24853738  1
  O  O358  1  0.26129823  0.63580667  0.75997239  1
  O  O359  1  0.75087649  0.11080668  0.24680239  1
  O  O360  1  0.74300263  0.11482980  0.75578304  1
  O  O361  1  0.74860194  0.63355719  0.26276699  1
  O  O362  1  0.70370860  0.66200405  0.79017053  1
  O  O363  1  0.37510566  0.11885600  0.36707669  1
  O  O364  1  0.37330385  0.12234877  0.86736986  1
  O  O365  1  0.36833908  0.61175958  0.36546412  1
  O  O366  1  0.37238435  0.61804655  0.86775063  1
  O  O367  1  0.88015673  0.10818549  0.37652111  1
  O  O368  1  0.87416005  0.11459718  0.87282345  1
  O  O369  1  0.85981709  0.62459842  0.37318918  1
  O  O370  1  0.86536260  0.61452537  0.90812205  1
  O  O371  1  0.11843491  0.37980011  0.13704824  1
  O  O372  1  0.13806867  0.37706328  0.63352168  1
  O  O373  1  0.13440124  0.87853745  0.12992278  1
  O  O374  1  0.13274695  0.88951550  0.62256722  1
  O  O375  1  0.62845175  0.38366865  0.13277218  1
  O  O376  1  0.62697882  0.37832146  0.62864389  1
  O  O377  1  0.63069398  0.87948549  0.13487499  1
  O  O378  1  0.62483465  0.89150913  0.63491471  1
  O  O379  1  0.12202732  0.25589536  0.25459965  1
  O  O380  1  0.13605281  0.25963877  0.75544341  1
  O  O381  1  0.12009951  0.75415982  0.25277907  1
  O  O382  1  0.11953006  0.74655437  0.76169690  1
  O  O383  1  0.62882252  0.25958675  0.26840671  1
  O  O384  1  0.61818967  0.25931458  0.75808863  1
  O  O385  1  0.61416115  0.75774314  0.24805059  1
  O  O386  1  0.61332601  0.76631269  0.74535300  1
  O  O387  1  0.36780693  0.24318660  0.23975576  1
  O  O388  1  0.37750648  0.24081156  0.74131444  1
  O  O389  1  0.37871089  0.74524186  0.24464815  1
  O  O390  1  0.39007961  0.74590073  0.75439458  1
  O  O391  1  0.88100374  0.24800860  0.24574313  1
  O  O392  1  0.85966087  0.25503269  0.72993759  1
  O  O393  1  0.88348778  0.74705169  0.24019613  1
  O  O394  1  0.88681674  0.75260605  0.75979585  1
  O  O395  1  0.37199603  0.49199832  0.49472546  1
  O  O396  1  0.37800443  0.49154770  0.99514129  1
  O  O397  1  0.38302039  0.99462755  0.49372442  1
  O  O398  1  0.39127412  1.00151428  1.00259400  1
  O  O399  1  0.88880746  0.50370983  0.50730557  1
  O  O400  1  0.89366841  0.47910727  1.00856452  1
  O  O401  1  0.88186337  0.99333835  0.49532728  1
  O  O402  1  0.88396913  0.99716167  0.99380901  1
  O  O403  1  0.11900050  -0.00537113  0.01485899  1
  O  O404  1  0.11747932  0.00570811  0.50016261  1
  O  O405  1  0.11928822  0.49768169  0.00268393  1
  O  O406  1  0.11903868  0.51006490  0.50393774  1
  O  O407  1  0.61518609  0.00145152  0.00918309  1
  O  O408  1  0.61296443  -0.00616741  0.50609787  1
  O  O409  1  0.61842702  0.50482005  0.00875477  1
  O  O410  1  0.61463420  0.50502244  0.50676418  1
  O  O411  1  0.37946103  0.36411401  0.11841388  1
  O  O412  1  0.37450914  0.37044845  0.62545359  1
  O  O413  1  0.36143387  0.86934162  0.13071628  1
  O  O414  1  0.36601760  0.88349154  0.61119510  1
  O  O415  1  0.87731761  0.36278381  0.11973747  1
  O  O416  1  0.85362230  0.36841091  0.62043638  1
  O  O417  1  0.86656791  0.86953545  0.12423922  1
  O  O418  1  0.87502843  0.88168678  0.61147207  1
  O  O419  1  0.12546573  0.13142232  0.38279425  1
  O  O420  1  0.14674670  0.12435505  0.87807876  1
  O  O421  1  0.12238062  0.62895892  0.38506733  1
  O  O422  1  0.13557691  0.63064611  0.87558229  1
  O  O423  1  0.62086753  0.13364223  0.36763373  1
  O  O424  1  0.61905019  0.14460319  0.87469500  1
  O  O425  1  0.63543949  0.62832931  0.37788035  1
  O  O426  1  0.60641183  0.62462105  0.89439795  1
