# generated using pymatgen
data_V85Zn86O256
_symmetry_space_group_name_H-M   'P 1'
_cell_length_a   16.91212481
_cell_length_b   16.91273214
_cell_length_c   16.91083242
_cell_angle_alpha   90.07358543
_cell_angle_beta   90.00998507
_cell_angle_gamma   90.05014023
_symmetry_Int_Tables_number   1
_chemical_formula_structural   V85Zn86O256
_chemical_formula_sum   'V85 Zn86 O256'
_cell_volume   4837.00348451
_cell_formula_units_Z   1
loop_
 _symmetry_equiv_pos_site_id
 _symmetry_equiv_pos_as_xyz
  1  'x, y, z'
loop_
 _atom_site_type_symbol
 _atom_site_label
 _atom_site_symmetry_multiplicity
 _atom_site_fract_x
 _atom_site_fract_y
 _atom_site_fract_z
 _atom_site_occupancy
  V  V0  1  0.87963524  0.00408360  0.87207885  1
  V  V1  1  0.49690946  0.87535379  0.87685390  1
  V  V2  1  0.12931402  0.74906744  0.39240601  1
  V  V3  1  0.24670330  0.24032563  0.49883472  1
  V  V4  1  0.62277889  0.75968687  0.36869613  1
  V  V5  1  0.24457595  0.14056572  0.87689710  1
  V  V6  1  0.00282057  0.62490663  0.60988253  1
  V  V7  1  0.24541361  0.62730855  0.38799219  1
  V  V8  1  0.24503481  0.50180539  0.24685107  1
  V  V9  1  0.87506439  0.37537886  -0.00112745  1
  V  V10  1  0.49489809  -0.00272063  0.00225774  1
  V  V11  1  0.49628869  -0.00142681  0.49482372  1
  V  V12  1  0.37131097  0.74272536  0.11059334  1
  V  V13  1  0.36516295  -0.00202363  0.87931061  1
  V  V14  1  0.13348237  0.00194521  0.12948227  1
  V  V15  1  0.06481552  0.07011603  0.59080540  1
  V  V16  1  0.12337074  0.24096270  0.37661541  1
  V  V17  1  0.00493179  0.00342345  0.00099701  1
  V  V18  1  0.75074010  0.87502552  0.62571352  1
  V  V19  1  0.61742016  0.36644848  0.24941523  1
  V  V20  1  0.11916545  0.63717683  0.00306930  1
  V  V21  1  0.25171729  0.88249438  0.63121879  1
  V  V22  1  0.12106280  0.36733185  0.75093265  1
  V  V23  1  0.74913315  0.75210871  0.49898300  1
  V  V24  1  0.37798282  0.62253784  0.74773024  1
  V  V25  1  0.74771383  0.36903113  0.61874648  1
  V  V26  1  0.75546837  0.13479285  0.37651999  1
  V  V27  1  0.11348675  0.50226525  0.12335928  1
  V  V28  1  0.49985631  0.74919332  0.23965602  1
  V  V29  1  0.36482946  0.36340856  -0.00096327  1
  V  V30  1  0.14188370  0.87611507  0.25302824  1
  V  V31  1  0.49654148  0.50618008  0.50353130  1
  V  V32  1  0.87558267  0.24314514  0.13213923  1
  V  V33  1  0.87289679  0.36523148  0.49865859  1
  V  V34  1  0.37006780  0.74398571  0.62232524  1
  V  V35  1  0.36957046  0.86940332  0.49899459  1
  V  V36  1  0.49969128  0.37296584  0.87567636  1
  V  V37  1  0.87816450  0.24069915  0.63158548  1
  V  V38  1  0.37020283  0.49916626  0.87652169  1
  V  V39  1  0.36970590  0.11694640  0.75110663  1
  V  V40  1  0.61812973  0.50429268  0.12796473  1
  V  V41  1  0.88104235  0.00634181  0.37867038  1
  V  V42  1  0.37704559  0.10796115  0.25479028  1
  V  V43  1  0.49535436  0.50409582  0.00279021  1
  V  V44  1  0.01294019  0.74490975  0.75149995  1
  V  V45  1  0.74892463  0.50255502  0.25043151  1
  V  V46  1  0.75073276  0.62772549  0.37423209  1
  V  V47  1  0.87842603  0.74874116  0.12627229  1
  V  V48  1  0.49794881  0.12233757  0.62555961  1
  V  V49  1  0.87980822  0.50357567  0.38618150  1
  V  V50  1  0.24301385  0.50017677  0.75165935  1
  V  V51  1  0.74736454  0.87542575  0.13226875  1
  V  V52  1  0.13352911  0.88081239  0.75258684  1
  V  V53  1  0.62022655  0.50204792  0.62408952  1
  V  V54  1  0.87661003  0.87538042  0.00185248  1
  V  V55  1  0.00797811  0.86980642  0.87479355  1
  V  V56  1  0.62103627  0.62757216  0.50239303  1
  V  V57  1  0.62245272  -0.00154227  0.13423541  1
  V  V58  1  0.87744554  0.74900832  0.62572412  1
  V  V59  1  0.74895056  0.37546333  0.12352036  1
  V  V60  1  0.62797113  0.13346376  0.49960609  1
  V  V61  1  0.00165984  0.36486260  0.87175175  1
  V  V62  1  0.62341888  0.37399994  0.74893431  1
  V  V63  1  0.37428410  0.25359766  0.14335777  1
  V  V64  1  0.37384897  0.37397037  0.50058274  1
  V  V65  1  0.75073033  0.49943565  0.75046677  1
  V  V66  1  0.75374551  0.12636479  0.87365837  1
  V  V67  1  0.62503889  -0.00016429  0.62435378  1
  V  V68  1  0.12966635  0.13808775  0.00029051  1
  V  V69  1  0.88227817  0.62324582  0.24461739  1
  V  V70  1  0.75079103  0.00391681  0.75115611  1
  V  V71  1  0.75670005  0.00566095  0.25170678  1
  V  V72  1  0.11931742  0.50215127  0.61369774  1
  V  V73  1  0.24032589  0.63800439  0.87803271  1
  V  V74  1  0.62404653  0.12542785  0.00062486  1
  V  V75  1  0.00805950  0.74894921  0.24468532  1
  V  V76  1  0.00272622  0.37772215  0.37900690  1
  V  V77  1  0.50172164  0.74714869  0.74545358  1
  V  V78  1  0.74988671  0.75088374  0.00007201  1
  V  V79  1  0.87767239  0.62480880  0.75094614  1
  V  V80  1  0.00180033  0.87927838  0.37654093  1
  V  V81  1  0.37378355  0.50360570  0.37301762  1
  V  V82  1  0.37296718  0.24901640  0.62704422  1
  V  V83  1  0.25862431  0.87519729  0.10750252  1
  V  V84  1  0.62304107  0.62652526  0.00186868  1
  Zn  Zn85  1  0.24244634  0.37188193  0.11945740  1
  Zn  Zn86  1  0.49892733  0.87596295  0.36849158  1
  Zn  Zn87  1  0.74907725  0.25067225  -0.00158041  1
  Zn  Zn88  1  0.24568035  0.37410826  0.62519071  1
  Zn  Zn89  1  0.12147621  0.37319605  0.24897753  1
  Zn  Zn90  1  0.35848982  -0.01044096  0.37360308  1
  Zn  Zn91  1  0.62261398  0.24983741  0.37513688  1
  Zn  Zn92  1  0.37663683  0.62425581  0.24397502  1
  Zn  Zn93  1  0.75037189  0.62728520  0.87463776  1
  Zn  Zn94  1  -0.00035563  0.12258370  0.13103282  1
  Zn  Zn95  1  -0.00448420  0.24173014  0.25866016  1
  Zn  Zn96  1  0.62504908  0.75094416  0.87522091  1
  Zn  Zn97  1  0.62546225  0.87356171  0.75315875  1
  Zn  Zn98  1  0.49968228  0.24749188  0.75142806  1
  Zn  Zn99  1  -0.00129446  0.50202640  -0.00171115  1
  Zn  Zn100  1  0.87616341  0.49785970  0.87459229  1
  Zn  Zn101  1  0.87830216  0.87722573  0.50015291  1
  Zn  Zn102  1  0.62561348  0.24912200  0.87415245  1
  Zn  Zn103  1  0.00452269  0.22268442  0.74316905  1
  Zn  Zn104  1  0.49482336  0.37091446  0.36947678  1
  Zn  Zn105  1  0.50221996  0.13382094  0.13072194  1
  Zn  Zn106  1  0.24312836  0.11409019  0.36880045  1
  Zn  Zn107  1  0.19225055  0.18978721  0.19051909  1
  Zn  Zn108  1  0.18558285  0.18119567  0.68964186  1
  Zn  Zn109  1  0.19250585  0.68663713  0.18610089  1
  Zn  Zn110  1  0.18831770  0.68700056  0.68245221  1
  Zn  Zn111  1  0.69273162  0.18553750  0.18645184  1
  Zn  Zn112  1  0.68843058  0.18842943  0.68738325  1
  Zn  Zn113  1  0.68636888  0.68752477  0.18691158  1
  Zn  Zn114  1  0.68659951  0.68686861  0.68699751  1
  Zn  Zn115  1  0.30565814  0.31634408  0.31400276  1
  Zn  Zn116  1  0.31131305  0.31298681  0.80955692  1
  Zn  Zn117  1  0.31476549  0.80718733  0.31108476  1
  Zn  Zn118  1  0.31754318  0.81158156  0.81479498  1
  Zn  Zn119  1  0.80889013  0.31675335  0.31198341  1
  Zn  Zn120  1  0.81468039  0.30991985  0.80941463  1
  Zn  Zn121  1  0.81474232  0.81512433  0.31094413  1
  Zn  Zn122  1  0.81577134  0.81369434  0.81402068  1
  Zn  Zn123  1  0.18953481  0.43384406  0.43623699  1
  Zn  Zn124  1  0.18115761  0.43871420  0.93664930  1
  Zn  Zn125  1  0.18342902  0.94711263  0.44928997  1
  Zn  Zn126  1  0.18496285  0.93931322  0.93765432  1
  Zn  Zn127  1  0.68794913  0.43910601  0.43535651  1
  Zn  Zn128  1  0.68697396  0.43928678  0.93696711  1
  Zn  Zn129  1  0.68931775  0.94283955  0.43810867  1
  Zn  Zn130  1  0.68443050  0.93764195  0.94086137  1
  Zn  Zn131  1  0.31223674  0.06882293  0.06482433  1
  Zn  Zn132  1  0.30465867  0.06014185  0.56195093  1
  Zn  Zn133  1  0.30412384  0.56211294  0.06018717  1
  Zn  Zn134  1  0.30848893  0.56174939  0.56566326  1
  Zn  Zn135  1  0.81107797  0.06130295  0.05923604  1
  Zn  Zn136  1  0.81424152  0.06159815  0.55740012  1
  Zn  Zn137  1  0.81084469  0.56162086  0.06307209  1
  Zn  Zn138  1  0.81003202  0.56206538  0.56462305  1
  Zn  Zn139  1  0.43419943  0.43824000  0.18534188  1
  Zn  Zn140  1  0.43666569  0.43836546  0.68675990  1
  Zn  Zn141  1  0.43941123  0.93014276  0.18510882  1
  Zn  Zn142  1  0.43641754  0.93564013  0.68898357  1
  Zn  Zn143  1  0.93790912  0.43341894  0.19198210  1
  Zn  Zn144  1  0.93891180  0.43568479  0.68417279  1
  Zn  Zn145  1  0.94131822  0.93889789  0.19197615  1
  Zn  Zn146  1  0.93529609  0.93589506  0.69567156  1
  Zn  Zn147  1  0.06142049  0.06393480  0.30817551  1
  Zn  Zn148  1  0.06752423  0.06490315  0.80257144  1
  Zn  Zn149  1  0.06299384  0.56518134  0.31590127  1
  Zn  Zn150  1  0.06028078  0.55597773  0.81526606  1
  Zn  Zn151  1  0.56044817  0.06679191  0.31283374  1
  Zn  Zn152  1  0.56151689  0.06098476  0.81297414  1
  Zn  Zn153  1  0.55880718  0.56736997  0.31387815  1
  Zn  Zn154  1  0.56235073  0.56208118  0.81615110  1
  Zn  Zn155  1  0.43958436  0.18775647  0.43149226  1
  Zn  Zn156  1  0.43722481  0.18534746  0.93915100  1
  Zn  Zn157  1  0.43763851  0.68848931  0.43368776  1
  Zn  Zn158  1  0.43680057  0.68504068  0.93230994  1
  Zn  Zn159  1  0.94537913  0.18231554  0.45058255  1
  Zn  Zn160  1  0.93924403  0.19068093  0.93983996  1
  Zn  Zn161  1  0.93933073  0.69518963  0.43380357  1
  Zn  Zn162  1  0.93865210  0.68694499  0.93606059  1
  Zn  Zn163  1  0.05787677  0.31582750  0.06504011  1
  Zn  Zn164  1  0.05984940  0.31394672  0.55988823  1
  Zn  Zn165  1  0.06623550  0.81676371  0.06562216  1
  Zn  Zn166  1  0.06171259  0.89916068  0.56590114  1
  Zn  Zn167  1  0.55771364  0.31271079  0.06272236  1
  Zn  Zn168  1  0.55640415  0.31276243  0.55871887  1
  Zn  Zn169  1  0.56054041  0.81487181  0.06355437  1
  Zn  Zn170  1  0.55896729  0.81312654  0.56386292  1
  O  O171  1  0.13164226  0.11704019  0.11839464  1
  O  O172  1  0.15812626  0.11049443  0.60700616  1
  O  O173  1  0.13147972  0.62000751  0.11026233  1
  O  O174  1  0.11717253  0.61271608  0.62876206  1
  O  O175  1  0.62355926  0.11865297  0.11876119  1
  O  O176  1  0.62069467  0.11872269  0.61981326  1
  O  O177  1  0.62783031  0.61737397  0.11301921  1
  O  O178  1  0.63007051  0.62030659  0.60983635  1
  O  O179  1  0.37245278  0.38776482  0.38290092  1
  O  O180  1  0.37937033  0.37963224  0.88030400  1
  O  O181  1  0.37669010  0.87109741  0.38514081  1
  O  O182  1  0.38643667  0.88366553  0.87200958  1
  O  O183  1  0.87626320  0.38283403  0.38218535  1
  O  O184  1  0.87788065  0.37434282  0.88280003  1
  O  O185  1  0.88532321  0.88252773  0.37228698  1
  O  O186  1  0.88617561  0.88330092  0.88141675  1
  O  O187  1  0.24549047  0.00047291  0.37633600  1
  O  O188  1  0.26286936  0.00267071  0.88068710  1
  O  O189  1  0.25395520  0.50689034  0.36969664  1
  O  O190  1  0.25158161  0.50520455  0.86474185  1
  O  O191  1  0.75677772  0.00646148  0.36698536  1
  O  O192  1  0.75691505  0.00357055  0.87022784  1
  O  O193  1  0.75754074  0.50853827  0.36943833  1
  O  O194  1  0.75130843  0.50088361  0.86098625  1
  O  O195  1  0.23888679  0.49919158  0.13225999  1
  O  O196  1  0.23879164  0.50074424  0.63636511  1
  O  O197  1  0.24674386  0.98718097  0.11933571  1
  O  O198  1  0.26211436  0.98130893  0.63371436  1
  O  O199  1  0.73727851  0.49542001  0.12906622  1
  O  O200  1  0.74242225  0.49233295  0.63371885  1
  O  O201  1  0.74637086  0.99601356  0.13253701  1
  O  O202  1  0.74947866  0.99403392  0.63264448  1
  O  O203  1  -0.00287104  0.36700918  0.26608450  1
  O  O204  1  0.00745908  0.37667712  0.75548852  1
  O  O205  1  0.01106315  0.86823307  0.25800916  1
  O  O206  1  0.00871833  0.86515486  0.75740709  1
  O  O207  1  0.51446542  0.38342878  0.24966863  1
  O  O208  1  0.50402450  0.37536299  0.75882167  1
  O  O209  1  0.49894492  0.85741548  0.25151291  1
  O  O210  1  0.50191884  0.86686261  0.75721223  1
  O  O211  1  0.48484654  0.12441129  0.24746078  1
  O  O212  1  0.49161861  0.12600618  0.74423119  1
  O  O213  1  0.49588305  0.64139803  0.25273532  1
  O  O214  1  0.48856892  0.63124670  0.75903048  1
  O  O215  1  0.99862891  0.12909301  0.24358461  1
  O  O216  1  1.03728886  0.11719921  0.70788894  1
  O  O217  1  0.99252113  0.63477069  0.25298801  1
  O  O218  1  0.99392528  0.62862428  0.74816307  1
  O  O219  1  0.37653396  0.26143324  0.00095322  1
  O  O220  1  0.37118812  0.25817754  0.50584668  1
  O  O221  1  0.38224820  0.74762160  0.01182422  1
  O  O222  1  0.38457385  0.75586181  0.51093614  1
  O  O223  1  0.87258632  0.26152311  0.00835037  1
  O  O224  1  0.87365781  0.26140752  0.50704414  1
  O  O225  1  0.87140132  0.75425944  0.00670249  1
  O  O226  1  0.86576311  0.75166990  0.50603701  1
  O  O227  1  0.13706255  0.25917678  0.49363270  1
  O  O228  1  0.11805185  0.23692878  1.00615972  1
  O  O229  1  0.12337817  0.75582877  0.48732766  1
  O  O230  1  0.12085640  0.73666285  1.00371442  1
  O  O231  1  0.62541719  0.23636456  0.50668919  1
  O  O232  1  0.62451431  0.23782449  0.99945331  1
  O  O233  1  0.62714259  0.74407519  0.49458172  1
  O  O234  1  0.62869060  0.74212064  1.00135602  1
  O  O235  1  0.48009020  0.24992100  0.11784970  1
  O  O236  1  0.48665659  0.24248615  0.62411283  1
  O  O237  1  0.48864051  0.75384856  0.13095845  1
  O  O238  1  0.49108459  0.75353076  0.63892051  1
  O  O239  1  0.98345639  0.25141158  0.12672464  1
  O  O240  1  0.98157838  0.26117374  0.62619346  1
  O  O241  1  0.99464346  0.75829813  0.13699396  1
  O  O242  1  0.99147229  0.73887469  0.63688069  1
  O  O243  1  0.00713123  0.25602788  0.38192806  1
  O  O244  1  -0.00702672  0.25790565  0.86269513  1
  O  O245  1  0.01212004  0.75453567  0.36337797  1
  O  O246  1  -0.00736329  0.75992149  0.86491233  1
  O  O247  1  0.50996552  0.26033135  0.38685065  1
  O  O248  1  0.50022694  0.26207334  0.87537617  1
  O  O249  1  0.50761107  0.75205667  0.36554972  1
  O  O250  1  0.49876683  0.75816516  0.86618808  1
  O  O251  1  0.26460298  0.13913748  0.48958954  1
  O  O252  1  0.24402701  0.12332361  0.98708255  1
  O  O253  1  0.25165081  0.62211741  0.48777360  1
  O  O254  1  0.23801308  0.62132984  0.98475010  1
  O  O255  1  0.73858372  0.11691362  0.48929316  1
  O  O256  1  0.74093937  0.12418032  0.99137611  1
  O  O257  1  0.74332524  0.63133434  0.49413132  1
  O  O258  1  0.74296948  0.63238277  0.99914123  1
  O  O259  1  0.26080797  0.38337418  -0.00071048  1
  O  O260  1  0.26273165  0.37075509  0.50340282  1
  O  O261  1  0.24704725  0.87172152  0.00927828  1
  O  O262  1  0.26193772  0.87638858  0.51559742  1
  O  O263  1  0.75483850  0.37446910  0.00532699  1
  O  O264  1  0.75540553  0.38085970  0.50902987  1
  O  O265  1  0.75598159  0.87185162  0.00955210  1
  O  O266  1  0.75083301  0.87011666  0.50904779  1
  O  O267  1  0.12885634  0.50276630  0.24198688  1
  O  O268  1  0.13019698  0.49253007  0.74398815  1
  O  O269  1  0.12257484  0.99068131  0.23640764  1
  O  O270  1  0.13115414  0.97970392  0.75634892  1
  O  O271  1  0.62770606  0.49967701  0.24309462  1
  O  O272  1  0.63001415  0.49590525  0.74470131  1
  O  O273  1  0.63226466  1.00448126  0.23934329  1
  O  O274  1  0.63262051  0.99743045  0.74312558  1
  O  O275  1  0.37773693  0.00522684  0.25031308  1
  O  O276  1  0.38132697  0.01099834  0.76082716  1
  O  O277  1  0.36851666  0.50261122  0.25700747  1
  O  O278  1  0.36584839  0.50496678  0.75375027  1
  O  O279  1  0.86488414  -0.00313153  0.25960112  1
  O  O280  1  0.86840925  -0.00116321  0.76456442  1
  O  O281  1  0.86994313  0.50757887  0.25606792  1
  O  O282  1  0.86651346  0.50650869  0.74679314  1
  O  O283  1  0.11558513  0.37066023  0.37492875  1
  O  O284  1  0.11522681  0.37659048  0.86474097  1
  O  O285  1  0.12215803  0.86659604  0.36917392  1
  O  O286  1  0.11530481  0.87358268  0.87248263  1
  O  O287  1  0.62834497  0.37685512  0.35860374  1
  O  O288  1  0.61598452  0.37522272  0.86966718  1
  O  O289  1  0.62580513  0.86217735  0.38077678  1
  O  O290  1  0.61198999  0.87524842  0.87461559  1
  O  O291  1  0.37599765  0.13629023  0.13748938  1
  O  O292  1  0.37498139  0.12831572  0.63341316  1
  O  O293  1  0.36629399  0.63815339  0.12330925  1
  O  O294  1  0.37047266  0.62778094  0.63850626  1
  O  O295  1  0.87261344  0.14069066  0.11584711  1
  O  O296  1  0.86608735  0.14236678  0.61873074  1
  O  O297  1  0.86985964  0.63012431  0.13732372  1
  O  O298  1  0.88095229  0.62625610  0.63415452  1
  O  O299  1  0.26732128  0.25496341  0.12718647  1
  O  O300  1  0.26035938  0.25108657  0.61863976  1
  O  O301  1  0.26294695  0.75992162  0.12536176  1
  O  O302  1  0.26563029  0.75353396  0.62850466  1
  O  O303  1  0.75849343  0.25674667  0.12145001  1
  O  O304  1  0.75848553  0.26322166  0.63082090  1
  O  O305  1  0.75535762  0.75855077  0.12149307  1
  O  O306  1  0.75485099  0.75743171  0.62190715  1
  O  O307  1  0.24033165  0.25223691  0.38316109  1
  O  O308  1  0.25118473  0.23919851  0.87566126  1
  O  O309  1  0.23757158  0.74307080  0.37163592  1
  O  O310  1  0.25221525  0.73604889  0.87275903  1
  O  O311  1  0.74627523  0.23855041  0.37037579  1
  O  O312  1  0.74823498  0.23948387  0.87532969  1
  O  O313  1  0.74374457  0.74665575  0.37677252  1
  O  O314  1  0.74820199  0.75178407  0.88514269  1
  O  O315  1  0.00699263  0.11548211  0.00249788  1
  O  O316  1  0.01143052  0.12638470  0.52661493  1
  O  O317  1  0.01413000  0.62151895  -0.00761266  1
  O  O318  1  -0.00665974  0.62922744  0.51079463  1
  O  O319  1  0.50786121  0.11528494  0.00121475  1
  O  O320  1  0.50442187  0.11558840  0.50624597  1
  O  O321  1  0.50567914  0.61165887  -0.00717391  1
  O  O322  1  0.50606724  0.61487791  0.49519145  1
  O  O323  1  0.48769413  0.38739330  0.50081718  1
  O  O324  1  0.49363284  0.38567740  0.99287077  1
  O  O325  1  0.48873808  0.88225696  0.50213671  1
  O  O326  1  0.50398712  0.88810798  0.99307630  1
  O  O327  1  0.98771030  0.37673413  0.48899042  1
  O  O328  1  0.99140735  0.37476973  0.99046772  1
  O  O329  1  0.99568585  0.86203600  0.48114695  1
  O  O330  1  0.99947385  0.88477596  0.99396550  1
  O  O331  1  0.48987442  0.49824337  0.38212370  1
  O  O332  1  0.49233455  0.49042557  0.88104851  1
  O  O333  1  0.50140129  0.99554577  0.38657042  1
  O  O334  1  0.49245852  0.99496837  0.88247286  1
  O  O335  1  0.99012384  0.49354200  0.37081855  1
  O  O336  1  0.99428405  0.48468241  0.87646628  1
  O  O337  1  0.99363211  0.99153489  0.36964251  1
  O  O338  1  0.99605790  0.99700270  0.87836094  1
  O  O339  1  0.00894728  -0.00164840  0.11581855  1
  O  O340  1  0.00562212  -0.01562139  0.62467580  1
  O  O341  1  0.00962257  0.49781447  0.12569195  1
  O  O342  1  0.01172673  0.50827537  0.62736655  1
  O  O343  1  0.50732210  -0.00037553  0.11934219  1
  O  O344  1  0.50349160  0.00324433  0.61724338  1
  O  O345  1  0.50931676  0.49769331  0.11743201  1
  O  O346  1  0.50631172  0.49807195  0.61580962  1
  O  O347  1  0.24557767  0.39124099  0.24977766  1
  O  O348  1  0.24206656  0.38323788  0.74838396  1
  O  O349  1  0.24346818  0.87020441  0.24204410  1
  O  O350  1  0.24704821  0.86503021  0.74232371  1
  O  O351  1  0.74008997  0.38446706  0.24325081  1
  O  O352  1  0.74413471  0.38203078  0.74333682  1
  O  O353  1  0.75255074  0.88284214  0.23837408  1
  O  O354  1  0.74951736  0.88538475  0.74548495  1
  O  O355  1  0.27182982  0.13220643  0.25318340  1
  O  O356  1  0.25670834  0.12575535  0.76555696  1
  O  O357  1  0.25170641  0.61534208  0.25881283  1
  O  O358  1  0.25257297  0.61915709  0.75948369  1
  O  O359  1  0.74807544  0.11518326  0.25977008  1
  O  O360  1  0.74523695  0.11227167  0.75786777  1
  O  O361  1  0.75720798  0.62212321  0.25561622  1
  O  O362  1  0.75772654  0.61734396  0.74869161  1
  O  O363  1  0.37741083  0.11857076  0.36270554  1
  O  O364  1  0.36590936  0.12049663  0.87066182  1
  O  O365  1  0.36730180  0.61558418  0.37448387  1
  O  O366  1  0.36291384  0.61841229  0.86783957  1
  O  O367  1  0.86926260  0.11949176  0.38606760  1
  O  O368  1  0.86426018  0.11739177  0.88366381  1
  O  O369  1  0.87289127  0.62060416  0.36699735  1
  O  O370  1  0.87275869  0.62174013  0.86279187  1
  O  O371  1  0.12450044  0.38480067  0.12759090  1
  O  O372  1  0.12316451  0.38725410  0.63073290  1
  O  O373  1  0.13885341  0.88059954  0.13057512  1
  O  O374  1  0.14497457  0.86244570  0.63588920  1
  O  O375  1  0.62726974  0.38185360  0.13224973  1
  O  O376  1  0.62959089  0.37917847  0.62748481  1
  O  O377  1  0.63560326  0.88585853  0.11853675  1
  O  O378  1  0.63660752  0.87922045  0.62631616  1
  O  O379  1  0.12506233  0.25406798  0.26166870  1
  O  O380  1  0.12411072  0.26403112  0.73965248  1
  O  O381  1  0.12137596  0.75811801  0.24849414  1
  O  O382  1  0.11560925  0.75125016  0.74879433  1
  O  O383  1  0.62770797  0.26447511  0.24490263  1
  O  O384  1  0.62109581  0.25913865  0.75127531  1
  O  O385  1  0.61399586  0.74523810  0.25551057  1
  O  O386  1  0.61658093  0.74939242  0.75292287  1
  O  O387  1  0.37912614  0.25768000  0.24442190  1
  O  O388  1  0.37572359  0.24096901  0.74247306  1
  O  O389  1  0.38432711  0.74670430  0.23938035  1
  O  O390  1  0.38189089  0.73985758  0.74552260  1
  O  O391  1  0.87016201  0.25593268  0.23490117  1
  O  O392  1  0.87839838  0.24787523  0.73620673  1
  O  O393  1  0.88374551  0.74304289  0.24663756  1
  O  O394  1  0.88001929  0.74171037  0.74534313  1
  O  O395  1  0.37901966  0.49623689  0.49664405  1
  O  O396  1  0.38043587  0.49579925  0.99653220  1
  O  O397  1  0.38161243  0.99097208  0.49966179  1
  O  O398  1  0.38514616  1.00867701  0.99399747  1
  O  O399  1  0.86867652  0.49498491  0.48938224  1
  O  O400  1  0.87530905  0.48846908  1.00083469  1
  O  O401  1  0.87133660  0.99399988  0.48432431  1
  O  O402  1  0.88356878  0.99544942  0.99236555  1
  O  O403  1  0.11951770  0.00577297  0.00926039  1
  O  O404  1  0.11003227  -0.00497625  0.52084378  1
  O  O405  1  0.12179655  0.50832915  0.00849286  1
  O  O406  1  0.13099208  0.49622795  0.51537103  1
  O  O407  1  0.62014891  0.00977595  0.00943146  1
  O  O408  1  0.61700988  0.00576372  0.50650740  1
  O  O409  1  0.61752398  0.50514093  0.00712664  1
  O  O410  1  0.61624105  0.50705533  0.50124472  1
  O  O411  1  0.37241113  0.36729619  0.11764205  1
  O  O412  1  0.37280040  0.36647296  0.61978518  1
  O  O413  1  0.36361921  0.86708441  0.12353247  1
  O  O414  1  0.36872501  0.86452694  0.62409875  1
  O  O415  1  0.86878539  0.36988992  0.11900544  1
  O  O416  1  0.86535369  0.37363565  0.61658112  1
  O  O417  1  0.86949922  0.87167646  0.12018145  1
  O  O418  1  0.86414420  0.86987794  0.62613875  1
  O  O419  1  0.12441047  0.13689421  0.37550174  1
  O  O420  1  0.13825896  0.11920378  0.88168610  1
  O  O421  1  0.12981731  0.63967827  0.37459924  1
  O  O422  1  0.13377654  0.62146286  0.88251905  1
  O  O423  1  0.63292602  0.12543592  0.38325336  1
  O  O424  1  0.63426878  0.12299777  0.88216097  1
  O  O425  1  0.62980426  0.63353460  0.38472670  1
  O  O426  1  0.62833537  0.62536761  0.88842404  1
