# generated using pymatgen
data_V85Zn86O256
_symmetry_space_group_name_H-M   'P 1'
_cell_length_a   16.92707023
_cell_length_b   16.92294905
_cell_length_c   16.92263567
_cell_angle_alpha   89.94218849
_cell_angle_beta   90.04015000
_cell_angle_gamma   89.94095704
_symmetry_Int_Tables_number   1
_chemical_formula_structural   V85Zn86O256
_chemical_formula_sum   'V85 Zn86 O256'
_cell_volume   4847.58339298
_cell_formula_units_Z   1
loop_
 _symmetry_equiv_pos_site_id
 _symmetry_equiv_pos_as_xyz
  1  'x, y, z'
loop_
 _atom_site_type_symbol
 _atom_site_label
 _atom_site_symmetry_multiplicity
 _atom_site_fract_x
 _atom_site_fract_y
 _atom_site_fract_z
 _atom_site_occupancy
  V  V0  1  0.87674937  0.75228275  0.11926362  1
  V  V1  1  0.51038398  0.62173862  0.62679111  1
  V  V2  1  0.12757774  0.88334171  0.24550050  1
  V  V3  1  0.37551882  0.61757495  0.75192405  1
  V  V4  1  0.62378176  0.87474036  0.75181892  1
  V  V5  1  0.00224811  0.49843401  -0.00007067  1
  V  V6  1  -0.00366238  0.74923091  0.75065552  1
  V  V7  1  0.74972941  0.37888966  0.12400839  1
  V  V8  1  0.25285815  0.74943070  0.49793398  1
  V  V9  1  0.68244094  0.43947388  0.56964348  1
  V  V10  1  0.25460221  0.62225523  0.36135568  1
  V  V11  1  -0.01482086  0.87837509  0.87924587  1
  V  V12  1  0.00925810  0.12363056  0.12653692  1
  V  V13  1  0.12658615  0.62204053  0.50613796  1
  V  V14  1  0.37773995  0.88966489  0.49782160  1
  V  V15  1  0.00151445  0.87383268  0.37448751  1
  V  V16  1  0.48811564  0.37332803  0.88138732  1
  V  V17  1  0.50098996  0.12734099  0.11998924  1
  V  V18  1  0.37316447  0.37003506  0.50855102  1
  V  V19  1  0.00515468  -0.00188721  -0.00049272  1
  V  V20  1  0.62409136  0.00060016  0.12357114  1
  V  V21  1  0.49740842  0.88836084  0.37689279  1
  V  V22  1  0.37342534  0.50197939  0.36416177  1
  V  V23  1  0.12642489  0.62443924  0.00109289  1
  V  V24  1  0.62992887  0.37895023  0.25088920  1
  V  V25  1  0.26117505  0.37856503  0.13048508  1
  V  V26  1  0.49941123  0.62456392  0.12750223  1
  V  V27  1  0.25321431  0.61537850  0.87743068  1
  V  V28  1  0.12095133  0.13510446  0.48742208  1
  V  V29  1  0.12804293  0.12876198  0.00047994  1
  V  V30  1  0.63658028  0.38606797  0.75305406  1
  V  V31  1  0.87235307  -0.00041233  0.37548061  1
  V  V32  1  0.87045183  0.12365343  0.74758455  1
  V  V33  1  0.63472282  0.12590338  0.49503507  1
  V  V34  1  0.49991864  0.75014344  0.75228308  1
  V  V35  1  0.48672160  0.50451505  -0.00485710  1
  V  V36  1  0.25173553  0.88427145  0.12106161  1
  V  V37  1  0.74916695  0.00254967  0.74835607  1
  V  V38  1  0.26480796  0.12749827  0.37374338  1
  V  V39  1  0.37527813  0.74938667  0.62337506  1
  V  V40  1  0.49778573  0.49942357  0.50584245  1
  V  V41  1  -0.00076645  0.12756403  0.62429945  1
  V  V42  1  0.12299653  0.37957542  0.74282176  1
  V  V43  1  0.49587165  0.12033045  0.61715215  1
  V  V44  1  0.37305999  0.13225266  0.74691891  1
  V  V45  1  -0.00106919  0.00012407  0.49963172  1
  V  V46  1  0.37252017  -0.00496565  0.87784424  1
  V  V47  1  0.86745114  0.62313506  0.24913090  1
  V  V48  1  0.49584649  0.74576107  0.25455325  1
  V  V49  1  0.50457251  0.24964091  0.25099561  1
  V  V50  1  0.12479484  0.75176957  0.87651655  1
  V  V51  1  0.87173372  0.25140370  0.12405198  1
  V  V52  1  0.49771342  -0.00552231  -0.00186171  1
  V  V53  1  0.12325172  0.00256855  0.62380542  1
  V  V54  1  0.24438742  0.13233998  0.87404630  1
  V  V55  1  0.25725502  0.75524027  -0.00243112  1
  V  V56  1  0.00425966  0.49581821  0.50324877  1
  V  V57  1  0.00617206  0.24877754  0.75241487  1
  V  V58  1  0.75368149  0.87336567  0.12120336  1
  V  V59  1  0.86154708  0.25779007  0.62083961  1
  V  V60  1  0.00029656  0.62490049  0.12610542  1
  V  V61  1  0.81668441  0.05927800  0.92164627  1
  V  V62  1  0.49965192  0.25181319  0.74892449  1
  V  V63  1  0.74273175  0.61618290  0.87687794  1
  V  V64  1  0.24791464  0.00265415  0.75081704  1
  V  V65  1  0.62819156  0.50483234  0.11613370  1
  V  V66  1  0.87183809  0.87289365  0.50141824  1
  V  V67  1  0.87214643  0.37172256  -0.00214042  1
  V  V68  1  0.86952927  0.49760586  0.37174385  1
  V  V69  1  0.25614368  0.25698396  -0.00174141  1
  V  V70  1  0.87589900  0.12677289  0.25302145  1
  V  V71  1  0.12974056  0.49788142  0.13610411  1
  V  V72  1  0.50420793  0.37264484  0.37509365  1
  V  V73  1  0.87086306  0.61725988  0.75064125  1
  V  V74  1  0.24540163  0.50162720  0.73999477  1
  V  V75  1  0.74810914  -0.00123902  0.25529970  1
  V  V76  1  0.25014720  0.87645738  0.62362218  1
  V  V77  1  0.63971606  0.24686419  0.87773649  1
  V  V78  1  0.00825144  0.25452877  0.25630950  1
  V  V79  1  0.74619395  0.74734968  0.49735339  1
  V  V80  1  0.00921148  0.37168082  0.87751174  1
  V  V81  1  0.37469801  0.75108991  0.12534450  1
  V  V82  1  0.74268938  0.74667125  -0.00001610  1
  V  V83  1  0.12238455  0.87655866  0.75147006  1
  V  V84  1  0.12742238  0.75009905  0.37322099  1
  Zn  Zn85  1  0.13811557  0.37261831  0.25900172  1
  Zn  Zn86  1  0.24635919  0.25322048  0.50026681  1
  Zn  Zn87  1  0.86210553  0.37576083  0.50015442  1
  Zn  Zn88  1  0.49351135  0.87093230  0.87907312  1
  Zn  Zn89  1  0.87357782  0.74871417  0.62543370  1
  Zn  Zn90  1  0.00228103  0.62124859  0.62878066  1
  Zn  Zn91  1  0.74362618  0.62022609  0.37171193  1
  Zn  Zn92  1  0.63408605  0.12626438  -0.00693381  1
  Zn  Zn93  1  0.25036397  0.37065459  0.62615120  1
  Zn  Zn94  1  0.00801083  0.37365526  0.37935206  1
  Zn  Zn95  1  0.62016771  0.74577150  0.37642878  1
  Zn  Zn96  1  0.62076019  0.74603497  0.88059463  1
  Zn  Zn97  1  0.87094772  0.49589555  0.87174934  1
  Zn  Zn98  1  0.62851793  0.61976221  0.49824072  1
  Zn  Zn99  1  0.25618385  0.00048699  0.25516805  1
  Zn  Zn100  1  -0.00083518  0.75068616  0.24899059  1
  Zn  Zn101  1  0.74603968  0.87346147  0.62440924  1
  Zn  Zn102  1  0.38155594  0.25455057  0.11972347  1
  Zn  Zn103  1  0.74805480  0.14231860  0.37334105  1
  Zn  Zn104  1  0.61947022  -0.00144482  0.62196975  1
  Zn  Zn105  1  0.62382662  0.87222724  0.25323600  1
  Zn  Zn106  1  0.38326258  0.11897829  0.25093684  1
  Zn  Zn107  1  0.19244235  0.18921232  0.18661495  1
  Zn  Zn108  1  0.18715993  0.19365776  0.68014811  1
  Zn  Zn109  1  0.18717386  0.69251204  0.18612064  1
  Zn  Zn110  1  0.18730894  0.68942708  0.68839173  1
  Zn  Zn111  1  0.68733600  0.19003056  0.18830898  1
  Zn  Zn112  1  0.68137022  0.18635644  0.69073652  1
  Zn  Zn113  1  0.68295099  0.68635302  0.18833716  1
  Zn  Zn114  1  0.69109265  0.68852728  0.68881701  1
  Zn  Zn115  1  0.31820466  0.30622964  0.31492829  1
  Zn  Zn116  1  0.30923425  0.31263779  0.81188293  1
  Zn  Zn117  1  0.31656921  0.81500737  0.31046424  1
  Zn  Zn118  1  0.31158181  0.81039353  0.81107153  1
  Zn  Zn119  1  0.81932851  0.32002055  0.30664382  1
  Zn  Zn120  1  0.81699623  0.31262069  0.80964760  1
  Zn  Zn121  1  0.81138996  0.80946660  0.31113144  1
  Zn  Zn122  1  0.80900672  0.80908035  0.81344974  1
  Zn  Zn123  1  0.18807033  0.43846375  0.43358369  1
  Zn  Zn124  1  0.18860765  0.43634180  0.93853594  1
  Zn  Zn125  1  0.18992728  0.94233369  0.43671346  1
  Zn  Zn126  1  0.18340244  0.94010338  0.93850664  1
  Zn  Zn127  1  0.68068500  0.30517386  0.43327309  1
  Zn  Zn128  1  0.68327350  0.43395403  0.93986018  1
  Zn  Zn129  1  0.67967656  0.93916248  0.44010751  1
  Zn  Zn130  1  0.68073971  0.92888210  0.94007662  1
  Zn  Zn131  1  0.31695308  0.06443227  0.06290287  1
  Zn  Zn132  1  0.30874774  0.07037045  0.56315310  1
  Zn  Zn133  1  0.31382914  0.56385497  0.06768564  1
  Zn  Zn134  1  0.31555276  0.56220713  0.55963031  1
  Zn  Zn135  1  0.81829232  0.06036247  0.08139543  1
  Zn  Zn136  1  0.80959092  0.06223969  0.56534045  1
  Zn  Zn137  1  0.81254632  0.56143447  0.05909236  1
  Zn  Zn138  1  0.82039860  0.56742626  0.55909297  1
  Zn  Zn139  1  0.44112261  0.43802507  0.18604009  1
  Zn  Zn140  1  0.44034450  0.43822771  0.69253474  1
  Zn  Zn141  1  0.43408479  0.93530402  0.19011697  1
  Zn  Zn142  1  0.43473219  0.93930805  0.68958353  1
  Zn  Zn143  1  0.93892417  0.43815944  0.18795963  1
  Zn  Zn144  1  0.93640747  0.43728861  0.68486227  1
  Zn  Zn145  1  0.93881955  0.93683865  0.18591790  1
  Zn  Zn146  1  0.93462821  0.93845217  0.68833210  1
  Zn  Zn147  1  0.06358661  0.06077821  0.31163067  1
  Zn  Zn148  1  0.06020915  0.06285965  0.81622542  1
  Zn  Zn149  1  0.05858460  0.56450737  0.31652761  1
  Zn  Zn150  1  0.06292228  0.56226616  0.81443182  1
  Zn  Zn151  1  0.56493996  0.06408817  0.31305063  1
  Zn  Zn152  1  0.56157598  0.06433399  0.81259997  1
  Zn  Zn153  1  0.56356149  0.55925748  0.31096603  1
  Zn  Zn154  1  0.56184323  0.56032331  0.81665685  1
  Zn  Zn155  1  0.44276684  0.19078593  0.43699841  1
  Zn  Zn156  1  0.43731767  0.18455741  0.93523368  1
  Zn  Zn157  1  0.43735385  0.68619754  0.43810936  1
  Zn  Zn158  1  0.43557620  0.68303281  0.93877978  1
  Zn  Zn159  1  0.93001726  0.18993191  0.43794716  1
  Zn  Zn160  1  0.94461308  0.19338706  0.94015373  1
  Zn  Zn161  1  0.93850385  0.68526106  0.43689879  1
  Zn  Zn162  1  0.93202947  0.68707609  0.93688214  1
  Zn  Zn163  1  0.06908200  0.31110763  0.06806331  1
  Zn  Zn164  1  0.05861970  0.31337032  0.56616263  1
  Zn  Zn165  1  0.06532694  0.81409164  0.06156218  1
  Zn  Zn166  1  0.06213242  0.81092092  0.56271044  1
  Zn  Zn167  1  0.56672277  0.31320087  0.05697116  1
  Zn  Zn168  1  0.55463263  0.30552116  0.56742236  1
  Zn  Zn169  1  0.56281879  0.81446521  0.06576929  1
  Zn  Zn170  1  0.56193743  0.81303928  0.56230705  1
  O  O171  1  0.11568279  0.12641896  0.12036707  1
  O  O172  1  0.11743299  0.11938823  0.61665236  1
  O  O173  1  0.12168121  0.62001467  0.11974101  1
  O  O174  1  0.12465285  0.63328303  0.61007828  1
  O  O175  1  0.62163472  0.11631371  0.11948865  1
  O  O176  1  0.61234597  0.12403672  0.62014214  1
  O  O177  1  0.61587382  0.61535253  0.12645658  1
  O  O178  1  0.61270822  0.62807905  0.62711277  1
  O  O179  1  0.38376080  0.38469672  0.38141173  1
  O  O180  1  0.38975941  0.37449694  0.86889763  1
  O  O181  1  0.38605529  0.87231271  0.38423487  1
  O  O182  1  0.37330425  0.89035533  0.86665805  1
  O  O183  1  0.88381727  0.38793063  0.37718386  1
  O  O184  1  0.88496520  0.37615121  0.88176045  1
  O  O185  1  0.87941724  0.87901608  0.38331300  1
  O  O186  1  0.88616844  0.87136621  0.87363417  1
  O  O187  1  0.24331595  0.02133625  0.37479164  1
  O  O188  1  0.25372278  0.00734010  0.86998667  1
  O  O189  1  0.26544097  0.50729395  0.37757464  1
  O  O190  1  0.24549740  0.51148962  0.86843021  1
  O  O191  1  0.75167140  -0.00307183  0.36400937  1
  O  O192  1  0.75366556  -0.00570044  0.86938004  1
  O  O193  1  0.77068494  0.50183227  0.37706886  1
  O  O194  1  0.75027327  0.51213840  0.88327781  1
  O  O195  1  0.24475129  0.48809206  0.12066971  1
  O  O196  1  0.25363409  0.49864675  0.63702261  1
  O  O197  1  0.25248744  0.98659384  0.11870976  1
  O  O198  1  0.24321932  0.99726643  0.63140545  1
  O  O199  1  0.74096141  0.49317726  0.11881872  1
  O  O200  1  0.74468181  0.49979815  0.61769394  1
  O  O201  1  0.74502136  0.99254938  0.13449703  1
  O  O202  1  0.74737085  0.99587452  0.63821968  1
  O  O203  1  0.00086361  0.36016594  0.24719844  1
  O  O204  1  0.00422524  0.37063712  0.75686904  1
  O  O205  1  0.00866496  0.87353022  0.25512718  1
  O  O206  1  0.00252264  0.87062655  0.75780807  1
  O  O207  1  0.50560754  0.36965765  0.25597835  1
  O  O208  1  0.50634562  0.36907353  0.75887582  1
  O  O209  1  0.49896119  0.86711375  0.26188675  1
  O  O210  1  0.50325800  0.86610946  0.75171393  1
  O  O211  1  0.50786548  0.13349609  0.24037590  1
  O  O212  1  0.49110707  0.13253597  0.74670771  1
  O  O213  1  0.50134190  0.62994648  0.23644374  1
  O  O214  1  0.49316724  0.62799853  0.74671300  1
  O  O215  1  0.99754485  0.13037057  0.24331530  1
  O  O216  1  0.99359017  0.13126861  0.74764660  1
  O  O217  1  0.99215341  0.62889788  0.24182210  1
  O  O218  1  0.99437674  0.63348402  0.75237408  1
  O  O219  1  0.36101084  0.24347032  -0.00013429  1
  O  O220  1  0.37912758  0.26849580  0.49551551  1
  O  O221  1  0.36360265  0.74886823  0.00320921  1
  O  O222  1  0.36982474  0.75523203  0.50720103  1
  O  O223  1  0.88321238  0.26339583  0.00849925  1
  O  O224  1  0.87605077  0.25459665  0.51551747  1
  O  O225  1  0.86415227  0.74504552  0.01305008  1
  O  O226  1  0.86947175  0.75767034  0.49939756  1
  O  O227  1  0.11870139  0.23728776  0.50269060  1
  O  O228  1  0.13499141  0.23685379  1.00553179  1
  O  O229  1  0.13077891  0.74655153  0.48957966  1
  O  O230  1  0.13431642  0.74282286  0.99565263  1
  O  O231  1  0.61899641  0.23555471  0.50348001  1
  O  O232  1  0.62638574  0.24791047  0.98320184  1
  O  O233  1  0.63272959  0.74695723  0.49940612  1
  O  O234  1  0.63732151  0.75330108  1.00183580  1
  O  O235  1  0.50345999  0.24327561  0.12606607  1
  O  O236  1  0.49915622  0.23846041  0.64156511  1
  O  O237  1  0.49401351  0.74429680  0.12781265  1
  O  O238  1  0.49486923  0.74320666  0.63511640  1
  O  O239  1  0.99342626  0.24306823  0.13147685  1
  O  O240  1  0.99066288  0.24443007  0.63395203  1
  O  O241  1  0.99264555  0.74482770  0.12270428  1
  O  O242  1  0.99993034  0.75107148  0.64050722  1
  O  O243  1  -0.00751980  0.24914283  0.35897612  1
  O  O244  1  -0.00212090  0.26011710  0.86570124  1
  O  O245  1  0.01014796  0.75595616  0.37453733  1
  O  O246  1  0.00314604  0.75578139  0.86871545  1
  O  O247  1  0.49942328  0.26048351  0.36528328  1
  O  O248  1  0.50321816  0.25976774  0.86942537  1
  O  O249  1  0.49753803  0.75280760  0.36659280  1
  O  O250  1  0.49828521  0.74875374  0.86494343  1
  O  O251  1  0.23742975  0.12646202  0.49108971  1
  O  O252  1  0.24465168  0.12969382  0.99403775  1
  O  O253  1  0.24444157  0.62999352  0.49332026  1
  O  O254  1  0.24755926  0.63043057  0.99311711  1
  O  O255  1  0.73861770  0.12616034  0.49978530  1
  O  O256  1  0.75883636  0.11055559  0.98871932  1
  O  O257  1  0.74978816  0.63409051  0.49632035  1
  O  O258  1  0.75385575  0.63191869  0.98711416  1
  O  O259  1  0.24354399  0.36648095  0.01070848  1
  O  O260  1  0.26462321  0.37983239  0.50073825  1
  O  O261  1  0.24124600  0.86521213  0.00613843  1
  O  O262  1  0.25560106  0.87003326  0.50417077  1
  O  O263  1  0.76007428  0.37729276  0.00946404  1
  O  O264  1  0.73901717  0.38118117  0.50630496  1
  O  O265  1  0.74811687  0.86848664  0.01370557  1
  O  O266  1  0.75647464  0.87066825  0.50011887  1
  O  O267  1  0.11941908  0.50288805  0.23781709  1
  O  O268  1  0.13263836  0.49395805  0.75279707  1
  O  O269  1  0.12928755  0.98723613  0.25152773  1
  O  O270  1  0.12824910  0.99677435  0.74522943  1
  O  O271  1  0.61499653  0.48527720  0.23462925  1
  O  O272  1  0.61951612  0.48466464  0.75255507  1
  O  O273  1  0.63301830  0.99922474  0.24224371  1
  O  O274  1  0.63273031  0.99376848  0.75219560  1
  O  O275  1  0.36894777  0.00666770  0.24279625  1
  O  O276  1  0.36686384  0.01207998  0.75517527  1
  O  O277  1  0.38284338  0.49803488  0.26550060  1
  O  O278  1  0.36789761  0.51163148  0.74896172  1
  O  O279  1  0.86799502  0.00523294  0.25378063  1
  O  O280  1  0.86910251  0.01406650  0.74883726  1
  O  O281  1  0.88480142  0.50753998  0.26230424  1
  O  O282  1  0.88226800  0.51271270  0.75328232  1
  O  O283  1  0.12145431  0.37854924  0.36943079  1
  O  O284  1  0.11411437  0.37939627  0.86649365  1
  O  O285  1  0.12376045  0.86822097  0.36987465  1
  O  O286  1  0.11812898  0.86991007  0.86836749  1
  O  O287  1  0.61335927  0.37908716  0.36608428  1
  O  O288  1  0.61781521  0.36694286  0.86736836  1
  O  O289  1  0.60996777  0.87143656  0.37501197  1
  O  O290  1  0.61865511  0.86944787  0.86370359  1
  O  O291  1  0.39193969  0.12894542  0.12326873  1
  O  O292  1  0.38433963  0.12359318  0.63284956  1
  O  O293  1  0.38361886  0.63830978  0.12025754  1
  O  O294  1  0.38139571  0.63123624  0.63202625  1
  O  O295  1  0.88666721  0.13456305  0.13178069  1
  O  O296  1  0.87985600  0.13194588  0.63111869  1
  O  O297  1  0.88026497  0.62834297  0.13013079  1
  O  O298  1  0.87928017  0.62976809  0.63589091  1
  O  O299  1  0.25449946  0.26092545  0.11777202  1
  O  O300  1  0.24985767  0.25664150  0.61528554  1
  O  O301  1  0.25704293  0.75447600  0.11634585  1
  O  O302  1  0.25487983  0.75741132  0.62032517  1
  O  O303  1  0.76516023  0.25516633  0.12776669  1
  O  O304  1  0.76403648  0.24502064  0.63388704  1
  O  O305  1  0.75442795  0.75503243  0.12115327  1
  O  O306  1  0.75241224  0.75342898  0.61289863  1
  O  O307  1  0.25304671  0.23537481  0.38175473  1
  O  O308  1  0.25008960  0.24271366  0.88223437  1
  O  O309  1  0.24654708  0.74480640  0.37874885  1
  O  O310  1  0.24554106  0.74341847  0.88068133  1
  O  O311  1  0.75546393  0.25463206  0.36923580  1
  O  O312  1  0.73844120  0.25295513  0.87063794  1
  O  O313  1  0.74738822  0.74942046  0.38542871  1
  O  O314  1  0.74781739  0.74222593  0.88517608  1
  O  O315  1  0.00814200  0.12203009  0.00559850  1
  O  O316  1  0.00567268  0.12123595  0.50181396  1
  O  O317  1  0.00346011  0.61716500  0.00449611  1
  O  O318  1  0.00889217  0.61783899  0.50173781  1
  O  O319  1  0.50500251  0.11562383  0.00460471  1
  O  O320  1  0.50185898  0.12873281  0.51419493  1
  O  O321  1  0.49929112  0.61187648  0.00469765  1
  O  O322  1  0.50067297  0.61638303  0.50970828  1
  O  O323  1  0.49431853  0.38019063  0.49504755  1
  O  O324  1  0.49981476  0.38120681  0.98763549  1
  O  O325  1  0.49186153  0.87127714  0.48776031  1
  O  O326  1  0.50482877  0.88896157  0.99798957  1
  O  O327  1  0.99819803  0.38656991  0.50047876  1
  O  O328  1  1.00002321  0.37924376  0.99557279  1
  O  O329  1  0.99326085  0.87885428  0.49419756  1
  O  O330  1  1.00645387  0.88534647  0.99289117  1
  O  O331  1  0.49211160  0.49535268  0.38511802  1
  O  O332  1  0.50287203  0.49010651  0.88747488  1
  O  O333  1  0.50045600  0.98713664  0.37059305  1
  O  O334  1  0.49093365  1.00065444  0.88105621  1
  O  O335  1  0.99366847  0.50247743  0.38847617  1
  O  O336  1  0.99972772  0.49436441  0.88783005  1
  O  O337  1  0.99357652  0.99362531  0.37983030  1
  O  O338  1  1.00111480  0.99303162  0.88733347  1
  O  O339  1  -0.01019983  0.01006338  0.11090260  1
  O  O340  1  0.00236214  0.00686171  0.61950053  1
  O  O341  1  0.00793210  0.50212824  0.11572089  1
  O  O342  1  -0.00527577  0.50317276  0.60871625  1
  O  O343  1  0.50796572  0.00490695  0.11895065  1
  O  O344  1  0.50038893  0.01696420  0.63500990  1
  O  O345  1  0.50217920  0.50651524  0.11435053  1
  O  O346  1  0.49265618  0.50852825  0.61581579  1
  O  O347  1  0.25498885  0.36722291  0.23515089  1
  O  O348  1  0.24129284  0.38428152  0.75203212  1
  O  O349  1  0.24441171  0.87529998  0.24121702  1
  O  O350  1  0.24296905  0.88014827  0.74332473  1
  O  O351  1  0.74370483  0.37549186  0.23464590  1
  O  O352  1  0.73609816  0.37633421  0.75604790  1
  O  O353  1  0.74785891  0.88076090  0.24097900  1
  O  O354  1  0.74202916  0.88069912  0.74957295  1
  O  O355  1  0.25178442  0.12825799  0.26352740  1
  O  O356  1  0.25330004  0.12490795  0.75572866  1
  O  O357  1  0.24642327  0.62957283  0.26215344  1
  O  O358  1  0.25449278  0.61996741  0.75557058  1
  O  O359  1  0.75596461  0.11594194  0.24903301  1
  O  O360  1  0.75644383  0.11583388  0.74993562  1
  O  O361  1  0.76334351  0.62895217  0.24962037  1
  O  O362  1  0.75838705  0.63147154  0.76451000  1
  O  O363  1  0.36776252  0.12488898  0.37778186  1
  O  O364  1  0.36442923  0.11698810  0.86742416  1
  O  O365  1  0.36917357  0.61132346  0.38004815  1
  O  O366  1  0.36428150  0.63047073  0.86434282  1
  O  O367  1  0.87048486  0.11639259  0.37053199  1
  O  O368  1  0.87445388  0.12837031  0.86905143  1
  O  O369  1  0.87668359  0.61736171  0.36531346  1
  O  O370  1  0.86458422  0.62150940  0.86929238  1
  O  O371  1  0.13622352  0.38306531  0.13163659  1
  O  O372  1  0.12313142  0.37607893  0.63906733  1
  O  O373  1  0.13687197  0.86517398  0.13596266  1
  O  O374  1  0.12852466  0.88195662  0.63016013  1
  O  O375  1  0.63362685  0.38000335  0.12651944  1
  O  O376  1  0.62548327  0.37570292  0.63389767  1
  O  O377  1  0.63128371  0.88724363  0.12834785  1
  O  O378  1  0.62210918  0.87842436  0.63781962  1
  O  O379  1  0.11051906  0.24924574  0.24340192  1
  O  O380  1  0.11191003  0.25654001  0.74727684  1
  O  O381  1  0.12452129  0.75779460  0.26160538  1
  O  O382  1  0.11735696  0.75505138  0.75682495  1
  O  O383  1  0.61580921  0.26478013  0.24104831  1
  O  O384  1  0.61723446  0.25827354  0.75861645  1
  O  O385  1  0.61027040  0.75263650  0.24928872  1
  O  O386  1  0.61549524  0.75627082  0.75099905  1
  O  O387  1  0.39207263  0.24537361  0.24453362  1
  O  O388  1  0.38100981  0.23898444  0.75705974  1
  O  O389  1  0.38602559  0.75140002  0.24071648  1
  O  O390  1  0.38041382  0.74132066  0.74403346  1
  O  O391  1  0.88623118  0.24548707  0.24088485  1
  O  O392  1  0.88274990  0.24130996  0.74356732  1
  O  O393  1  0.87704213  0.74267632  0.23885970  1
  O  O394  1  0.88210180  0.74183430  0.75093019  1
  O  O395  1  0.38348997  0.49224664  0.49298700  1
  O  O396  1  0.38774687  0.50136967  1.00115112  1
  O  O397  1  0.36914630  0.98828541  0.50761727  1
  O  O398  1  0.38407387  1.00525864  0.98940811  1
  O  O399  1  0.88527406  0.49931300  0.48970849  1
  O  O400  1  0.88546517  0.48757842  1.00073014  1
  O  O401  1  0.87798689  0.99382466  0.49569425  1
  O  O402  1  0.87799343  1.01064566  0.98876375  1
  O  O403  1  0.11672596  0.01409129  -0.00044039  1
  O  O404  1  0.11674804  0.00780860  0.50476549  1
  O  O405  1  0.11955130  0.50528580  0.00802712  1
  O  O406  1  0.11485866  0.50888456  0.49676631  1
  O  O407  1  0.62045627  0.00376608  0.00637387  1
  O  O408  1  0.62536433  0.01710109  0.50601102  1
  O  O409  1  0.61179154  0.49238437  0.01173604  1
  O  O410  1  0.61594302  0.49651386  0.51058933  1
  O  O411  1  0.36496174  0.37650124  0.12321483  1
  O  O412  1  0.37880415  0.38054270  0.61112144  1
  O  O413  1  0.36692689  0.86119760  0.12490824  1
  O  O414  1  0.37092109  0.86925525  0.62017875  1
  O  O415  1  0.87042515  0.37090912  0.11980390  1
  O  O416  1  0.87297215  0.36217688  0.62540375  1
  O  O417  1  0.86665721  0.86510014  0.12977340  1
  O  O418  1  0.87510930  0.87388463  0.61149801  1
  O  O419  1  0.12370125  0.12538292  0.38593183  1
  O  O420  1  0.13694540  0.12198518  0.88181150  1
  O  O421  1  0.13246633  0.63268474  0.38204956  1
  O  O422  1  0.13221691  0.63194659  0.88102293  1
  O  O423  1  0.62718536  0.12342203  0.38974497  1
  O  O424  1  0.62278882  0.14190355  0.87259014  1
  O  O425  1  0.62641313  0.62502788  0.37780928  1
  O  O426  1  0.63833181  0.62757315  0.87033506  1
