# generated using pymatgen
data_V85Zn86O256
_symmetry_space_group_name_H-M   'P 1'
_cell_length_a   16.98519304
_cell_length_b   16.96490652
_cell_length_c   16.94901878
_cell_angle_alpha   90.14057109
_cell_angle_beta   90.05678425
_cell_angle_gamma   90.03450164
_symmetry_Int_Tables_number   1
_chemical_formula_structural   V85Zn86O256
_chemical_formula_sum   'V85 Zn86 O256'
_cell_volume   4883.87926434
_cell_formula_units_Z   1
loop_
 _symmetry_equiv_pos_site_id
 _symmetry_equiv_pos_as_xyz
  1  'x, y, z'
loop_
 _atom_site_type_symbol
 _atom_site_label
 _atom_site_symmetry_multiplicity
 _atom_site_fract_x
 _atom_site_fract_y
 _atom_site_fract_z
 _atom_site_occupancy
  V  V0  1  0.62369399  0.50113954  0.12389712  1
  V  V1  1  0.12786389  0.51642383  0.11344612  1
  V  V2  1  0.11826709  0.87126608  0.24955036  1
  V  V3  1  0.50185035  0.24945350  0.25085434  1
  V  V4  1  0.37275717  0.24838968  0.62524087  1
  V  V5  1  0.49726330  0.62569158  0.13425219  1
  V  V6  1  0.25499243  -0.00942570  0.25663343  1
  V  V7  1  0.74181380  0.62746653  0.37628887  1
  V  V8  1  0.37486065  0.48619369  0.87914366  1
  V  V9  1  0.37559260  0.74967902  0.62732660  1
  V  V10  1  0.50300948  -0.00344362  0.00334617  1
  V  V11  1  0.62786419  0.50120216  0.62279084  1
  V  V12  1  0.87405487  0.75113941  0.61921424  1
  V  V13  1  0.87393286  0.50363709  0.87555643  1
  V  V14  1  0.37492716  0.62463025  0.75319088  1
  V  V15  1  0.62923631  0.24482358  0.39312570  1
  V  V16  1  0.36889430  0.37027369  0.50065886  1
  V  V17  1  0.62524388  0.25500218  0.87478068  1
  V  V18  1  0.49749949  0.62537416  0.62970366  1
  V  V19  1  0.62738998  0.88875042  0.75324256  1
  V  V20  1  0.12623134  0.87400339  0.74862200  1
  V  V21  1  0.88829116  0.51849498  0.36901141  1
  V  V22  1  0.63816937  0.00155372  0.13548746  1
  V  V23  1  0.24989278  0.63239825  0.88839498  1
  V  V24  1  0.13268233  0.14288067  0.50458993  1
  V  V25  1  0.74974762  0.11607972  0.87219401  1
  V  V26  1  0.13230505  0.25392453  0.35835813  1
  V  V27  1  0.50126504  0.12335111  0.12547162  1
  V  V28  1  0.61625437  0.63941767  0.49956052  1
  V  V29  1  0.24325425  0.50244148  0.75468709  1
  V  V30  1  0.12143609  0.24815560  0.87632529  1
  V  V31  1  0.50732535  0.86780188  0.88159320  1
  V  V32  1  0.75108156  0.37540715  0.12552038  1
  V  V33  1  0.00123226  0.87258696  0.38646856  1
  V  V34  1  0.13003591  0.75208298  0.88701723  1
  V  V35  1  0.00228866  0.48931864  0.49970875  1
  V  V36  1  0.25134736  -0.00156096  0.74978442  1
  V  V37  1  0.49726762  0.37484187  0.37696453  1
  V  V38  1  0.75371857  0.75132321  0.00599136  1
  V  V39  1  0.50277968  0.11952561  0.61557762  1
  V  V40  1  0.86802531  0.11360266  0.74898045  1
  V  V41  1  0.25424607  0.25972300  -0.00074093  1
  V  V42  1  -0.00140442  0.87860349  0.87245099  1
  V  V43  1  0.11950423  0.37634523  0.75238673  1
  V  V44  1  0.25061847  0.12361650  0.87639752  1
  V  V45  1  -0.00311915  0.11863906  0.61456993  1
  V  V46  1  0.00281525  0.62265930  0.62122684  1
  V  V47  1  0.12716121  0.12398947  0.00681692  1
  V  V48  1  0.74305777  0.63306466  0.87205213  1
  V  V49  1  0.62595444  0.00274177  0.60827841  1
  V  V50  1  0.86591668  0.37171352  0.50230188  1
  V  V51  1  -0.02083754  0.35711253  0.34421139  1
  V  V52  1  0.49627892  0.49921849  0.50182819  1
  V  V53  1  0.87290419  0.62493316  0.74569891  1
  V  V54  1  0.37555147  0.25801708  0.12252817  1
  V  V55  1  0.75373648  0.11863323  0.37393753  1
  V  V56  1  0.61968809  0.63304286  -0.00277510  1
  V  V57  1  0.12334606  0.74072773  0.36811111  1
  V  V58  1  0.37670173  0.12249593  0.74941872  1
  V  V59  1  0.24756600  0.74057914  0.49718577  1
  V  V60  1  0.37476843  0.12213250  0.25290949  1
  V  V61  1  0.87641369  0.37941108  0.00209973  1
  V  V62  1  -0.00131258  0.00202396  0.00309678  1
  V  V63  1  0.12390495  -0.00317954  0.61096396  1
  V  V64  1  0.36804964  0.74092018  0.12102640  1
  V  V65  1  0.75413904  0.50531494  0.25055580  1
  V  V66  1  0.88574862  0.00535308  0.36698621  1
  V  V67  1  0.38574023  0.87472550  0.49380325  1
  V  V68  1  0.74636451  0.75484225  0.49474872  1
  V  V69  1  0.62208045  0.37649958  0.75157517  1
  V  V70  1  0.49628527  0.48934967  -0.00368573  1
  V  V71  1  0.37916644  -0.00176451  0.87588411  1
  V  V72  1  -0.00607217  0.37134705  0.87588122  1
  V  V73  1  0.25227002  0.87254816  0.62425273  1
  V  V74  1  0.89304577  0.73788658  0.13824525  1
  V  V75  1  0.25327509  0.87628338  0.11888450  1
  V  V76  1  0.75218331  0.25056135  0.00143252  1
  V  V77  1  0.74913621  0.88372536  0.62995471  1
  V  V78  1  0.39208464  -0.00492065  0.37976812  1
  V  V79  1  0.49875081  0.25085371  0.75647422  1
  V  V80  1  0.36493317  0.50631901  0.36660743  1
  V  V81  1  -0.00952665  0.24592148  0.74786573  1
  V  V82  1  0.62338573  0.37563399  0.25258009  1
  V  V83  1  0.51119676  0.74923786  0.75365708  1
  V  V84  1  0.24669409  0.37030277  0.62582838  1
  Zn  Zn85  1  0.25494956  0.12563450  0.38345609  1
  Zn  Zn86  1  0.86764620  -0.00377990  0.87494780  1
  Zn  Zn87  1  -0.00508397  0.54534851  0.02229090  1
  Zn  Zn88  1  0.74412098  0.36323658  0.62061699  1
  Zn  Zn89  1  -0.00503107  0.12481341  0.15265325  1
  Zn  Zn90  1  0.74707585  0.49931451  0.74852961  1
  Zn  Zn91  1  0.12403356  0.50029572  0.62657915  1
  Zn  Zn92  1  0.87586185  0.87477603  0.00296709  1
  Zn  Zn93  1  0.87924733  0.88063221  0.50176370  1
  Zn  Zn94  1  0.21770825  0.57061427  0.29827216  1
  Zn  Zn95  1  0.12420080  0.00019911  0.13034892  1
  Zn  Zn96  1  0.86469725  0.23798791  0.60954144  1
  Zn  Zn97  1  0.37491412  0.86987002  -0.00075873  1
  Zn  Zn98  1  0.62694062  0.12773403  0.00098899  1
  Zn  Zn99  1  0.12886538  0.61573813  0.48843701  1
  Zn  Zn100  1  0.76176508  0.88101551  0.13300483  1
  Zn  Zn101  1  0.50074014  0.76475054  0.26888158  1
  Zn  Zn102  1  0.13593086  0.39269787  0.24660164  1
  Zn  Zn103  1  0.25157100  0.38505829  0.12794025  1
  Zn  Zn104  1  0.63075370  0.87118235  0.26801289  1
  Zn  Zn105  1  0.89185416  0.25636609  0.16178810  1
  Zn  Zn106  1  0.00202362  0.74880907  0.74837101  1
  Zn  Zn107  1  0.19533204  0.18371161  0.18712242  1
  Zn  Zn108  1  0.18508780  0.18712720  0.69059528  1
  Zn  Zn109  1  0.18321298  0.69078728  0.17662187  1
  Zn  Zn110  1  0.18651907  0.68683505  0.68980414  1
  Zn  Zn111  1  0.69166917  0.18813099  0.19318208  1
  Zn  Zn112  1  0.68867181  0.18465776  0.68362418  1
  Zn  Zn113  1  0.69092748  0.69153551  0.19091423  1
  Zn  Zn114  1  0.68677007  0.69183692  0.68359240  1
  Zn  Zn115  1  0.31007913  0.31281368  0.31180438  1
  Zn  Zn116  1  0.30879731  0.31075949  0.81060192  1
  Zn  Zn117  1  0.29613918  0.76237971  0.29072450  1
  Zn  Zn118  1  0.31731122  0.81215655  0.81459945  1
  Zn  Zn119  1  0.80330976  0.31806413  0.32050275  1
  Zn  Zn120  1  0.80763685  0.30912103  0.80866775  1
  Zn  Zn121  1  0.81566496  0.81469344  0.30681530  1
  Zn  Zn122  1  0.81140444  0.81059208  0.81182227  1
  Zn  Zn123  1  0.18594785  0.42961243  0.43858889  1
  Zn  Zn124  1  0.18319282  0.44114531  0.94218947  1
  Zn  Zn125  1  0.19536960  0.92839979  0.43460713  1
  Zn  Zn126  1  0.18613190  0.93949383  0.93745561  1
  Zn  Zn127  1  0.68562017  0.44159674  0.43576150  1
  Zn  Zn128  1  0.68676744  0.44130019  0.93681725  1
  Zn  Zn129  1  0.70227301  0.94470129  0.43787210  1
  Zn  Zn130  1  0.68289698  0.93438430  0.94668674  1
  Zn  Zn131  1  0.31499836  0.06169432  0.06544887  1
  Zn  Zn132  1  0.31334333  0.05856541  0.56244732  1
  Zn  Zn133  1  0.31300112  0.56086326  0.06226973  1
  Zn  Zn134  1  0.31097937  0.55685126  0.56476073  1
  Zn  Zn135  1  0.81777564  0.06896490  0.06272064  1
  Zn  Zn136  1  0.81047795  0.06418957  0.54816609  1
  Zn  Zn137  1  0.81083551  0.56948414  0.06325710  1
  Zn  Zn138  1  0.81147907  0.56337899  0.55415336  1
  Zn  Zn139  1  0.43587710  0.43921073  0.18831566  1
  Zn  Zn140  1  0.43665871  0.43709860  0.69179118  1
  Zn  Zn141  1  0.44079707  0.92994492  0.19091492  1
  Zn  Zn142  1  0.44351048  0.93497445  0.68451373  1
  Zn  Zn143  1  0.93892918  0.44716174  0.18099402  1
  Zn  Zn144  1  0.93335996  0.43802573  0.68542089  1
  Zn  Zn145  1  0.93758738  0.93271992  0.18713223  1
  Zn  Zn146  1  0.94007811  0.93771203  0.68563233  1
  Zn  Zn147  1  0.07169618  0.05404612  0.32415651  1
  Zn  Zn148  1  0.06153535  0.06234823  0.81031823  1
  Zn  Zn149  1  0.05216825  0.55501214  0.30534525  1
  Zn  Zn150  1  0.05208960  0.57289354  0.83564718  1
  Zn  Zn151  1  0.56703412  0.06257057  0.31549383  1
  Zn  Zn152  1  0.56212511  0.06607141  0.81456714  1
  Zn  Zn153  1  0.55908946  0.56303838  0.31558470  1
  Zn  Zn154  1  0.56018767  0.55898951  0.81675972  1
  Zn  Zn155  1  0.43712941  0.18866499  0.43711719  1
  Zn  Zn156  1  0.43820537  0.18713484  0.93904768  1
  Zn  Zn157  1  0.43021941  0.68505923  0.43879839  1
  Zn  Zn158  1  0.43552555  0.68577635  0.94221179  1
  Zn  Zn159  1  0.94398177  0.18427248  0.32739527  1
  Zn  Zn160  1  0.94040450  0.19292812  1.01466095  1
  Zn  Zn161  1  0.94354965  0.67850305  0.42356098  1
  Zn  Zn162  1  0.93518671  0.69558724  0.93381146  1
  Zn  Zn163  1  0.06659019  0.31997095  0.07151504  1
  Zn  Zn164  1  0.05535223  0.31053995  0.56811041  1
  Zn  Zn165  1  0.06138362  0.81544671  0.06424999  1
  Zn  Zn166  1  0.06518422  0.80570683  0.56043062  1
  Zn  Zn167  1  0.56456322  0.31210377  0.06412221  1
  Zn  Zn168  1  0.55556051  0.31355114  0.56920729  1
  Zn  Zn169  1  0.57892245  0.79933617  0.10379528  1
  Zn  Zn170  1  0.55770330  0.81965882  0.43270714  1
  O  O171  1  0.12654041  0.12268220  0.11396291  1
  O  O172  1  0.12293521  0.11779957  0.61953800  1
  O  O173  1  0.12472066  0.61783055  0.11577511  1
  O  O174  1  0.11027965  0.62404365  0.62756562  1
  O  O175  1  0.61991441  0.11972309  0.12555296  1
  O  O176  1  0.61715290  0.10965549  0.63321957  1
  O  O177  1  0.61393458  0.61749500  0.11717309  1
  O  O178  1  0.61567311  0.62074138  0.61971840  1
  O  O179  1  0.37875490  0.37701224  0.38517157  1
  O  O180  1  0.36796042  0.38731413  0.87086692  1
  O  O181  1  0.37551290  0.87964106  0.39073645  1
  O  O182  1  0.38682718  0.88148968  0.87748348  1
  O  O183  1  0.87621452  0.39042673  0.38447848  1
  O  O184  1  0.87403186  0.38284798  0.87860463  1
  O  O185  1  0.88877700  0.87412768  0.37625574  1
  O  O186  1  0.88500173  0.87692675  0.87246328  1
  O  O187  1  0.25966533  -0.00226563  0.36670186  1
  O  O188  1  0.25769770  0.00356001  0.86907768  1
  O  O189  1  0.25937802  0.49525608  0.37703680  1
  O  O190  1  0.25318765  0.50955405  0.87202871  1
  O  O191  1  0.75774623  0.01421313  0.36549965  1
  O  O192  1  0.74399443  0.01328641  0.88406307  1
  O  O193  1  0.75592040  0.50751658  0.36666278  1
  O  O194  1  0.75989571  0.50924894  0.87278773  1
  O  O195  1  0.23682018  0.50142399  0.11714338  1
  O  O196  1  0.24693766  0.48880685  0.63667689  1
  O  O197  1  0.25324979  0.99400937  0.13950678  1
  O  O198  1  0.24384918  0.99235355  0.63232253  1
  O  O199  1  0.74565039  0.49808131  0.13170750  1
  O  O200  1  0.73410572  0.50523658  0.62468337  1
  O  O201  1  0.74084352  1.00634136  0.11935743  1
  O  O202  1  0.74042165  0.99518714  0.62016153  1
  O  O203  1  0.01162980  0.38570214  0.25181181  1
  O  O204  1  -0.00101435  0.36396565  0.75030274  1
  O  O205  1  0.01587010  0.88114934  0.25886304  1
  O  O206  1  0.01005061  0.87409426  0.75422379  1
  O  O207  1  0.50433044  0.37060219  0.25609283  1
  O  O208  1  0.51134530  0.36547149  0.74575184  1
  O  O209  1  0.51518482  0.87851344  0.25188056  1
  O  O210  1  0.50815950  0.86797003  0.75807487  1
  O  O211  1  0.49671986  0.12905634  0.24208471  1
  O  O212  1  0.49341680  0.13177944  0.74514847  1
  O  O213  1  0.50274225  0.62268393  0.23511371  1
  O  O214  1  0.49597923  0.63162489  0.75094849  1
  O  O215  1  1.00672049  0.11900124  0.26225640  1
  O  O216  1  0.99386264  0.13001604  0.74197761  1
  O  O217  1  0.95256806  0.59650307  0.32811178  1
  O  O218  1  0.98823753  0.62685155  0.74284294  1
  O  O219  1  0.36637601  0.24242819  0.00906706  1
  O  O220  1  0.37913267  0.26252714  0.50861484  1
  O  O221  1  0.37518315  0.75278782  0.01330499  1
  O  O222  1  0.36623652  0.75660288  0.50669123  1
  O  O223  1  0.85822394  0.26545302  -0.01374357  1
  O  O224  1  0.87778147  0.27375354  0.49450569  1
  O  O225  1  0.86691651  0.75415039  -0.00106510  1
  O  O226  1  0.86756737  0.75076721  0.51067003  1
  O  O227  1  0.12824871  0.24306933  0.50707536  1
  O  O228  1  0.13403206  0.24187406  0.99374961  1
  O  O229  1  0.13253255  0.74148236  0.49274869  1
  O  O230  1  0.12616533  0.76015010  0.98580944  1
  O  O231  1  0.61174740  0.25239641  0.49026113  1
  O  O232  1  0.63478371  0.25257450  0.99255626  1
  O  O233  1  0.62901264  0.74242580  0.50549463  1
  O  O234  1  0.63333406  0.73719564  1.01131448  1
  O  O235  1  0.49608152  0.24220727  0.12857801  1
  O  O236  1  0.49368591  0.24210587  0.63849354  1
  O  O237  1  0.48799298  0.73029616  0.11056682  1
  O  O238  1  0.49004131  0.73834925  0.63887601  1
  O  O239  1  0.99715427  0.24156588  0.10724878  1
  O  O240  1  0.99044656  0.23829612  0.63210167  1
  O  O241  1  0.99249615  0.75020029  0.12376189  1
  O  O242  1  0.99124310  0.74201538  0.62486710  1
  O  O243  1  0.01826160  0.26083014  0.38169187  1
  O  O244  1  0.00165405  0.26086158  0.86593503  1
  O  O245  1  0.01509373  0.75620702  0.37964801  1
  O  O246  1  0.01071944  0.76569806  0.86930886  1
  O  O247  1  0.50695092  0.25476965  0.36949982  1
  O  O248  1  0.50643701  0.24487136  0.86463196  1
  O  O249  1  0.50547298  0.73620356  0.37834088  1
  O  O250  1  0.49378706  0.75814636  0.86813163  1
  O  O251  1  0.23622873  0.12262322  0.50464157  1
  O  O252  1  0.24380418  0.12751728  0.99456261  1
  O  O253  1  0.24802293  0.63596368  0.51029881  1
  O  O254  1  0.25101808  0.62600323  0.98595420  1
  O  O255  1  0.75520281  0.13423532  0.47526846  1
  O  O256  1  0.74879200  0.13714340  0.99132292  1
  O  O257  1  0.73195155  0.63489881  0.50322307  1
  O  O258  1  0.74076373  0.62877054  0.99034127  1
  O  O259  1  0.24731823  0.36183046  -0.00004863  1
  O  O260  1  0.25646216  0.37721324  0.51458759  1
  O  O261  1  0.25189467  0.88760242  0.01517443  1
  O  O262  1  0.25578712  0.86224200  0.50969579  1
  O  O263  1  0.75810135  0.37503139  0.00476234  1
  O  O264  1  0.76215981  0.38829927  0.50169849  1
  O  O265  1  0.75170621  0.86400764  0.00463317  1
  O  O266  1  0.75219084  0.86765036  0.51452991  1
  O  O267  1  0.13182227  0.51263105  0.24144092  1
  O  O268  1  0.13067996  0.49528306  0.75466040  1
  O  O269  1  0.13912758  0.98930938  0.25347444  1
  O  O270  1  0.13186723  0.98965465  0.74371302  1
  O  O271  1  0.63108937  0.49461050  0.24561883  1
  O  O272  1  0.62219632  0.49277873  0.74337966  1
  O  O273  1  0.62803483  1.00614344  0.23631228  1
  O  O274  1  0.62263023  0.99026837  0.75218692  1
  O  O275  1  0.37278673  0.00128493  0.26036400  1
  O  O276  1  0.37218319  0.00260146  0.75463121  1
  O  O277  1  0.37737929  0.49645878  0.26751034  1
  O  O278  1  0.36715988  0.50507663  0.75859495  1
  O  O279  1  0.87756158  -0.01057292  0.26730101  1
  O  O280  1  0.87895278  0.01054673  0.75178332  1
  O  O281  1  0.86056450  0.49308855  0.25558105  1
  O  O282  1  0.86821883  0.51126538  0.75160549  1
  O  O283  1  0.12465709  0.36154178  0.36848331  1
  O  O284  1  0.11306358  0.37034961  0.87206708  1
  O  O285  1  0.11912086  0.86818322  0.36951835  1
  O  O286  1  0.12377181  0.87130565  0.86552401  1
  O  O287  1  0.61466508  0.37173537  0.37250702  1
  O  O288  1  0.62911138  0.36443650  0.86797415  1
  O  O289  1  0.63425462  0.87791595  0.38263418  1
  O  O290  1  0.61482553  0.87706653  0.87000425  1
  O  O291  1  0.38513769  0.13023750  0.13211976  1
  O  O292  1  0.37950169  0.12714040  0.63150980  1
  O  O293  1  0.38286187  0.63181453  0.11968353  1
  O  O294  1  0.37929854  0.62575596  0.63374889  1
  O  O295  1  0.88387899  0.14504410  0.11183843  1
  O  O296  1  0.88218944  0.11908878  0.62623820  1
  O  O297  1  0.88541725  0.63669793  0.11314874  1
  O  O298  1  0.88122480  0.62960726  0.62666607  1
  O  O299  1  0.26143924  0.24537828  0.11434094  1
  O  O300  1  0.25690566  0.26291547  0.63908713  1
  O  O301  1  0.26176847  0.75992703  0.12094295  1
  O  O302  1  0.25547391  0.75411801  0.62189426  1
  O  O303  1  0.74921384  0.26003556  0.11618668  1
  O  O304  1  0.75444633  0.25046298  0.62613198  1
  O  O305  1  0.76249784  0.74067871  0.11187819  1
  O  O306  1  0.75557951  0.75719782  0.61632184  1
  O  O307  1  0.23629603  0.24550459  0.37650244  1
  O  O308  1  0.24504869  0.24309352  0.88069266  1
  O  O309  1  0.23608738  0.75769072  0.38748114  1
  O  O310  1  0.24742910  0.74043659  0.87168078  1
  O  O311  1  0.72844101  0.26364816  0.38499823  1
  O  O312  1  0.74056891  0.24405677  0.87979518  1
  O  O313  1  0.75370213  0.74401174  0.38913813  1
  O  O314  1  0.75287204  0.73836598  0.88381201  1
  O  O315  1  0.01390011  0.11102593  -0.01354027  1
  O  O316  1  0.01944453  0.12327245  0.51464999  1
  O  O317  1  0.00560141  0.61225496  -0.06275191  1
  O  O318  1  0.00271889  0.61096684  0.50576934  1
  O  O319  1  0.50245095  0.12073919  0.01178221  1
  O  O320  1  0.49352574  0.12930700  0.51710568  1
  O  O321  1  0.50770560  0.61492482  0.00193646  1
  O  O322  1  0.50159667  0.61854678  0.51023448  1
  O  O323  1  0.49007692  0.38114822  0.49852585  1
  O  O324  1  0.50749136  0.39031423  1.00456386  1
  O  O325  1  0.48289801  0.86656753  0.51009062  1
  O  O326  1  0.50152065  0.88338611  0.99356637  1
  O  O327  1  0.98933078  0.38351130  0.50985192  1
  O  O328  1  0.98465982  0.37098107  0.98981719  1
  O  O329  1  1.00186866  0.87157134  0.49070521  1
  O  O330  1  1.00303110  0.88760122  0.99063309  1
  O  O331  1  0.49092623  0.49314455  0.38307224  1
  O  O332  1  0.48646997  0.50181591  0.88273883  1
  O  O333  1  0.49084929  1.00712762  0.37885906  1
  O  O334  1  0.49775426  0.99475468  0.88359978  1
  O  O335  1  0.99797830  0.47023356  0.38419969  1
  O  O336  1  0.98216884  0.47982490  0.85733638  1
  O  O337  1  0.99245617  0.98931069  0.37980951  1
  O  O338  1  1.00320163  0.98852109  0.87764686  1
  O  O339  1  0.00307101  0.00341465  0.11613248  1
  O  O340  1  0.01300462  0.00678278  0.62992792  1
  O  O341  1  0.01407091  0.50758376  0.12500320  1
  O  O342  1  0.00030193  0.50669021  0.61877740  1
  O  O343  1  0.50523782  0.00902191  0.11978996  1
  O  O344  1  0.51463933  0.00619052  0.62869143  1
  O  O345  1  0.49972536  0.50943485  0.11787363  1
  O  O346  1  0.50689634  0.50560491  0.62347375  1
  O  O347  1  0.24752467  0.36755806  0.24070046  1
  O  O348  1  0.24173193  0.38498546  0.74843356  1
  O  O349  1  0.24513826  0.87652112  0.24135828  1
  O  O350  1  0.24575716  0.87825204  0.74427825  1
  O  O351  1  0.74114602  0.38429026  0.24568396  1
  O  O352  1  0.73503702  0.37781936  0.74693543  1
  O  O353  1  0.74180715  0.86479566  0.24219194  1
  O  O354  1  0.74073961  0.86753482  0.73964796  1
  O  O355  1  0.25979868  0.11252386  0.25388082  1
  O  O356  1  0.25600680  0.11897273  0.75572196  1
  O  O357  1  0.26273233  0.65768339  0.24890143  1
  O  O358  1  0.25518194  0.61305569  0.75036482  1
  O  O359  1  0.76193624  0.15787792  0.27657752  1
  O  O360  1  0.75757041  0.12761884  0.75873983  1
  O  O361  1  0.74208517  0.61780089  0.26261257  1
  O  O362  1  0.75253463  0.62631383  0.75483489  1
  O  O363  1  0.37363134  0.11660139  0.37230240  1
  O  O364  1  0.37105873  0.11813034  0.86929626  1
  O  O365  1  0.37132300  0.60434048  0.38492413  1
  O  O366  1  0.36291418  0.62157489  0.87010194  1
  O  O367  1  0.87202065  0.11146872  0.37716686  1
  O  O368  1  0.86167883  0.11992153  0.86353068  1
  O  O369  1  0.84389203  0.61782982  0.40886359  1
  O  O370  1  0.86354252  0.62000756  0.86243329  1
  O  O371  1  0.12965990  0.39208122  0.12593074  1
  O  O372  1  0.13032757  0.37428785  0.63488109  1
  O  O373  1  0.13370008  0.87684814  0.13342019  1
  O  O374  1  0.13006567  0.87916286  0.62940637  1
  O  O375  1  0.63054784  0.38201452  0.13210475  1
  O  O376  1  0.62398099  0.38466325  0.63101029  1
  O  O377  1  0.63031356  0.90035875  0.11485241  1
  O  O378  1  0.63340076  0.89248609  0.63482029  1
  O  O379  1  0.12754006  0.24419011  0.25895777  1
  O  O380  1  0.11215700  0.25321073  0.75653516  1
  O  O381  1  0.12750742  0.75936031  0.25710677  1
  O  O382  1  0.12611309  0.76389568  0.75284883  1
  O  O383  1  0.61710821  0.25993914  0.25504792  1
  O  O384  1  0.61706419  0.25598105  0.75596301  1
  O  O385  1  0.60734976  0.76026156  0.21329745  1
  O  O386  1  0.61348744  0.75971864  0.74396766  1
  O  O387  1  0.38333216  0.24187657  0.24411085  1
  O  O388  1  0.38175185  0.24478042  0.74725774  1
  O  O389  1  0.38934681  0.75876598  0.22453709  1
  O  O390  1  0.38219960  0.74350501  0.74611273  1
  O  O391  1  0.89996716  0.27889148  0.27686454  1
  O  O392  1  0.88305919  0.23891522  0.75152305  1
  O  O393  1  0.87734580  0.74231164  0.23743192  1
  O  O394  1  0.87311008  0.73925781  0.73786311  1
  O  O395  1  0.37785676  0.48725302  0.49785208  1
  O  O396  1  0.38343140  0.50250730  0.99060298  1
  O  O397  1  0.36940129  0.98393124  0.49526476  1
  O  O398  1  0.38847272  1.00097866  0.99551073  1
  O  O399  1  0.88547624  0.49681184  0.49137585  1
  O  O400  1  0.87754026  0.49703369  0.99114574  1
  O  O401  1  0.86406378  0.99126456  0.47750267  1
  O  O402  1  0.88520479  0.99786920  0.99559383  1
  O  O403  1  0.12070941  0.00901701  0.00244533  1
  O  O404  1  0.13425186  -0.00017987  0.50974183  1
  O  O405  1  0.11573133  0.50164483  0.00884220  1
  O  O406  1  0.11703731  0.49772360  0.50359021  1
  O  O407  1  0.61304517  0.00851228  0.00548320  1
  O  O408  1  0.62685663  0.00231949  0.51060453  1
  O  O409  1  0.61965431  0.50863607  0.00527505  1
  O  O410  1  0.61534440  0.50689088  0.50759847  1
  O  O411  1  0.37764616  0.36085119  0.12604480  1
  O  O412  1  0.36711573  0.37071869  0.62206777  1
  O  O413  1  0.36822769  0.86994521  0.12041266  1
  O  O414  1  0.36960865  0.86996893  0.62045345  1
  O  O415  1  0.87109095  0.37340917  0.11751229  1
  O  O416  1  0.86729192  0.37918108  0.61214011  1
  O  O417  1  0.87744901  0.85984236  0.12150725  1
  O  O418  1  0.86872542  0.86817284  0.62637784  1
  O  O419  1  0.12804239  0.13656750  0.39215585  1
  O  O420  1  0.13204629  0.12975650  0.87947428  1
  O  O421  1  0.12658045  0.62909233  0.36937956  1
  O  O422  1  0.14471694  0.63927418  0.86138488  1
  O  O423  1  0.63493496  0.13841887  0.37196697  1
  O  O424  1  0.63070544  0.13882426  0.87505995  1
  O  O425  1  0.63227679  0.61657771  0.38811126  1
  O  O426  1  0.63243954  0.61998425  0.88315981  1
