# generated using pymatgen
data_V85Zn86O256
_symmetry_space_group_name_H-M   'P 1'
_cell_length_a   16.96596018
_cell_length_b   16.97445518
_cell_length_c   16.95779235
_cell_angle_alpha   89.95014238
_cell_angle_beta   90.00888228
_cell_angle_gamma   90.03129875
_symmetry_Int_Tables_number   1
_chemical_formula_structural   V85Zn86O256
_chemical_formula_sum   'V85 Zn86 O256'
_cell_volume   4883.63689124
_cell_formula_units_Z   1
loop_
 _symmetry_equiv_pos_site_id
 _symmetry_equiv_pos_as_xyz
  1  'x, y, z'
loop_
 _atom_site_type_symbol
 _atom_site_label
 _atom_site_symmetry_multiplicity
 _atom_site_fract_x
 _atom_site_fract_y
 _atom_site_fract_z
 _atom_site_occupancy
  V  V0  1  -0.00082882  0.61655092  0.63429690  1
  V  V1  1  0.23698117  0.50491162  0.73917909  1
  V  V2  1  0.00217982  0.00308066  0.00256428  1
  V  V3  1  0.12311061  0.61828208  0.50381412  1
  V  V4  1  0.62543814  0.25204546  0.37648941  1
  V  V5  1  0.36870535  -0.00190310  0.86551109  1
  V  V6  1  0.75369057  0.00263823  0.25013958  1
  V  V7  1  0.74863217  0.75097437  -0.00051946  1
  V  V8  1  0.75586693  0.87407496  0.61574342  1
  V  V9  1  0.62136006  0.62809236  0.00233833  1
  V  V10  1  0.87106206  0.88093993  0.00106845  1
  V  V11  1  0.76189318  0.50461232  0.74653916  1
  V  V12  1  0.24939136  0.62558702  0.37073289  1
  V  V13  1  0.12788063  0.87539872  0.25107098  1
  V  V14  1  0.76371520  0.62860967  0.86811412  1
  V  V15  1  0.03639458  0.64486422  0.10803800  1
  V  V16  1  0.61978252  -0.00062776  0.62054374  1
  V  V17  1  0.12563676  0.86569396  0.75450089  1
  V  V18  1  0.00192690  0.14007485  0.12920157  1
  V  V19  1  0.37525783  0.62434926  0.24159545  1
  V  V20  1  0.37090353  0.24895901  0.12226481  1
  V  V21  1  0.12793801  0.00218770  0.12523141  1
  V  V22  1  0.36956905  0.37546487  0.50669021  1
  V  V23  1  0.87761792  0.62453286  0.24710695  1
  V  V24  1  -0.00888396  -0.00388582  0.50052798  1
  V  V25  1  0.37545595  0.49975120  0.37342630  1
  V  V26  1  0.01859202  0.36770113  0.87630869  1
  V  V27  1  0.62538128  0.87048509  0.25707397  1
  V  V28  1  0.49656159  0.50256062  0.00504305  1
  V  V29  1  0.37519582  0.74922602  0.62428581  1
  V  V30  1  0.87116427  -0.00126267  0.87624594  1
  V  V31  1  0.86975815  0.74643032  0.12591017  1
  V  V32  1  0.50103416  0.37067017  0.87765827  1
  V  V33  1  0.19116421  0.33586383  0.67644151  1
  V  V34  1  0.37789102  0.75248524  0.11447988  1
  V  V35  1  0.12533150  0.74945064  0.37355634  1
  V  V36  1  0.62846553  0.37233859  0.74996282  1
  V  V37  1  0.49615691  0.12601100  0.62633383  1
  V  V38  1  0.87861671  0.50000633  0.37681007  1
  V  V39  1  0.75714622  0.36817957  0.62291946  1
  V  V40  1  0.12650329  0.12268490  0.49495541  1
  V  V41  1  0.61976128  0.12592368  -0.00335566  1
  V  V42  1  0.87909138  0.13059479  0.74526887  1
  V  V43  1  0.24867891  0.87800891  0.63075630  1
  V  V44  1  0.11855781  -0.00424777  0.62839148  1
  V  V45  1  -0.00167027  0.75191130  0.25060790  1
  V  V46  1  0.62771756  0.50096973  0.62534160  1
  V  V47  1  0.74767267  -0.00191527  0.75169157  1
  V  V48  1  0.49984907  0.87490747  0.37916775  1
  V  V49  1  0.24691828  0.24829391  0.49476275  1
  V  V50  1  0.75092352  0.12532374  0.37479096  1
  V  V51  1  0.00524581  0.86770813  0.87750635  1
  V  V52  1  0.74225699  0.12399363  0.87382265  1
  V  V53  1  -0.00631983  0.87416640  0.37893973  1
  V  V54  1  0.62075824  0.12300515  0.49897585  1
  V  V55  1  0.13191120  0.13004553  -0.01630788  1
  V  V56  1  0.00578407  0.37143236  0.35946960  1
  V  V57  1  0.62332635  0.00638455  0.12887646  1
  V  V58  1  0.62122782  0.50619338  0.12833265  1
  V  V59  1  0.88042486  0.48764757  0.88885700  1
  V  V60  1  0.37234451  0.50330643  0.87533590  1
  V  V61  1  0.50109271  0.74593998  0.25094921  1
  V  V62  1  0.25087967  0.74935134  0.49848282  1
  V  V63  1  0.87936178  0.13846074  0.24891509  1
  V  V64  1  0.23341277  0.63444009  0.88732500  1
  V  V65  1  0.74792382  0.87798467  0.12724881  1
  V  V66  1  0.87975996  0.36527955  0.49916606  1
  V  V67  1  0.11778650  0.49069520  0.10915027  1
  V  V68  1  0.68362073  0.29340680  0.93575620  1
  V  V69  1  0.62448463  0.74744697  0.87038139  1
  V  V70  1  0.49742034  0.24840447  0.75064340  1
  V  V71  1  0.37529648  0.00616215  0.38171713  1
  V  V72  1  0.37507869  0.12471797  0.25165486  1
  V  V73  1  0.75214964  0.50000935  0.24914075  1
  V  V74  1  0.25848406  0.87577560  0.11192125  1
  V  V75  1  0.12493059  0.24827764  0.36335912  1
  V  V76  1  0.62842986  0.63327122  0.49456831  1
  V  V77  1  0.25214826  -0.00093790  0.25759007  1
  V  V78  1  0.37454664  0.62437070  0.74998836  1
  V  V79  1  0.37668034  0.88409593  0.50198040  1
  V  V80  1  0.50206729  0.49900266  0.50132446  1
  V  V81  1  0.23889431  0.49038579  0.24983603  1
  V  V82  1  0.87945208  0.74956517  0.62457502  1
  V  V83  1  0.62225429  0.87151749  0.74717375  1
  V  V84  1  0.62261275  0.37459314  0.24996241  1
  Zn  Zn85  1  0.49826147  0.24778822  0.25246160  1
  Zn  Zn86  1  0.24393030  0.36855754  0.12294203  1
  Zn  Zn87  1  -0.01164244  0.13465308  0.61506051  1
  Zn  Zn88  1  0.49037905  -0.00665710  -0.00048571  1
  Zn  Zn89  1  0.49880478  0.74734627  0.75057516  1
  Zn  Zn90  1  0.37003462  0.25211353  0.62824392  1
  Zn  Zn91  1  0.75078620  0.37182793  0.11382486  1
  Zn  Zn92  1  0.74859055  0.63019327  0.37352686  1
  Zn  Zn93  1  0.87468851  0.27715072  0.08811506  1
  Zn  Zn94  1  0.75343171  0.24660306  0.50453073  1
  Zn  Zn95  1  0.24876221  0.25144095  -0.01805122  1
  Zn  Zn96  1  -0.00453154  0.74259151  0.75781770  1
  Zn  Zn97  1  0.75605621  0.75659415  0.49230166  1
  Zn  Zn98  1  0.27510099  0.13016549  0.82981206  1
  Zn  Zn99  1  0.50196880  0.62640443  0.62540905  1
  Zn  Zn100  1  0.87335682  -0.00226838  0.37767944  1
  Zn  Zn101  1  0.49857715  0.12560051  0.12522156  1
  Zn  Zn102  1  0.37164611  0.37362945  0.00268456  1
  Zn  Zn103  1  0.00329235  0.26715677  0.73894867  1
  Zn  Zn104  1  0.48576990  0.86951569  0.88754834  1
  Zn  Zn105  1  0.49909280  0.37281716  0.37759346  1
  Zn  Zn106  1  0.00626026  0.49672593  0.50091888  1
  Zn  Zn107  1  0.19320445  0.18092272  0.18556009  1
  Zn  Zn108  1  0.16439543  0.17393177  0.69158768  1
  Zn  Zn109  1  0.18868621  0.69217224  0.17396063  1
  Zn  Zn110  1  0.18530186  0.68670811  0.68980502  1
  Zn  Zn111  1  0.69398177  0.19303323  0.18204001  1
  Zn  Zn112  1  0.68378642  0.18827249  0.68973251  1
  Zn  Zn113  1  0.68594399  0.68666534  0.19148549  1
  Zn  Zn114  1  0.69131327  0.68677298  0.68189518  1
  Zn  Zn115  1  0.31275856  0.31097338  0.31783197  1
  Zn  Zn116  1  0.31550802  0.31500920  0.81617690  1
  Zn  Zn117  1  0.31557812  0.81311398  0.31011863  1
  Zn  Zn118  1  0.31047465  0.81229272  0.81658877  1
  Zn  Zn119  1  0.81046777  0.31516733  0.30959529  1
  Zn  Zn120  1  0.81899083  0.31420207  0.80702679  1
  Zn  Zn121  1  0.81072527  0.81094370  0.31625766  1
  Zn  Zn122  1  0.81469269  0.81303574  0.80674365  1
  Zn  Zn123  1  0.18765130  0.43396075  0.43537787  1
  Zn  Zn124  1  0.19466173  0.43907034  0.93708019  1
  Zn  Zn125  1  0.18689260  0.93707517  0.44094222  1
  Zn  Zn126  1  0.19302612  0.94597610  0.93190456  1
  Zn  Zn127  1  0.69073615  0.43944329  0.43735476  1
  Zn  Zn128  1  0.68635840  0.45686141  0.93347028  1
  Zn  Zn129  1  0.68442351  0.93973203  0.43649430  1
  Zn  Zn130  1  0.65753011  0.92532136  0.95007319  1
  Zn  Zn131  1  0.31647353  0.05882051  0.05733958  1
  Zn  Zn132  1  0.28979452  0.08363172  0.61777710  1
  Zn  Zn133  1  0.30619321  0.56119128  0.06507961  1
  Zn  Zn134  1  0.31252055  0.56379127  0.56072188  1
  Zn  Zn135  1  0.83228839  0.10988086  0.04096034  1
  Zn  Zn136  1  0.80804359  0.05979673  0.56216875  1
  Zn  Zn137  1  0.80882366  0.56106386  0.06345439  1
  Zn  Zn138  1  0.81707197  0.56229169  0.56158778  1
  Zn  Zn139  1  0.43522589  0.43526622  0.18758005  1
  Zn  Zn140  1  0.43747057  0.43867490  0.68845098  1
  Zn  Zn141  1  0.43825023  0.93686059  0.18921004  1
  Zn  Zn142  1  0.43936121  0.93764965  0.69009492  1
  Zn  Zn143  1  0.94036459  0.43932298  0.17701337  1
  Zn  Zn144  1  0.93900671  0.43874259  0.68867658  1
  Zn  Zn145  1  0.93682739  0.94063146  0.18732445  1
  Zn  Zn146  1  0.93590402  0.93380949  0.68942914  1
  Zn  Zn147  1  0.06255431  0.06340790  0.31348177  1
  Zn  Zn148  1  0.06017081  0.05358315  0.81193486  1
  Zn  Zn149  1  0.05986405  0.56502043  0.30754684  1
  Zn  Zn150  1  0.06120908  0.55585608  0.81889259  1
  Zn  Zn151  1  0.55919393  0.05975425  0.31577622  1
  Zn  Zn152  1  0.55350113  0.05978348  0.81482284  1
  Zn  Zn153  1  0.55947823  0.56412681  0.31516358  1
  Zn  Zn154  1  0.56306675  0.56138838  0.81214485  1
  Zn  Zn155  1  0.43773302  0.18809640  0.44162516  1
  Zn  Zn156  1  0.43351568  0.18224157  0.93598579  1
  Zn  Zn157  1  0.43908614  0.68775906  0.43531835  1
  Zn  Zn158  1  0.43878610  0.68526794  0.93444796  1
  Zn  Zn159  1  0.94085517  0.18694344  0.43149746  1
  Zn  Zn160  1  0.95172423  0.19705205  0.92747152  1
  Zn  Zn161  1  0.93638118  0.68667362  0.44161302  1
  Zn  Zn162  1  0.93708174  0.68699214  0.94188291  1
  Zn  Zn163  1  0.06467896  0.31486633  0.05448686  1
  Zn  Zn164  1  0.05647933  0.30936967  0.55592717  1
  Zn  Zn165  1  0.06345953  0.81849094  0.06547072  1
  Zn  Zn166  1  0.06114965  0.80740839  0.56133163  1
  Zn  Zn167  1  0.55295498  0.31632816  0.07202665  1
  Zn  Zn168  1  0.56442879  0.31310014  0.56292699  1
  Zn  Zn169  1  0.55939568  0.81339409  0.06883250  1
  Zn  Zn170  1  0.56012605  0.81249123  0.56278641  1
  O  O171  1  0.11626539  0.11688833  0.12597716  1
  O  O172  1  0.11075393  0.11020569  0.61296339  1
  O  O173  1  0.12998670  0.59695263  0.14572974  1
  O  O174  1  0.11142484  0.63334438  0.61584280  1
  O  O175  1  0.62407699  0.12030149  0.12117065  1
  O  O176  1  0.62175539  0.11794496  0.61798585  1
  O  O177  1  0.62839223  0.61525729  0.11732507  1
  O  O178  1  0.62320195  0.61723277  0.61610057  1
  O  O179  1  0.37850247  0.38204739  0.38556927  1
  O  O180  1  0.38474592  0.39036424  0.87495973  1
  O  O181  1  0.38041091  0.88135466  0.38260052  1
  O  O182  1  0.37314598  0.88469978  0.87423068  1
  O  O183  1  0.88317842  0.38053211  0.37804821  1
  O  O184  1  0.86656472  0.38747821  0.87904133  1
  O  O185  1  0.89017563  0.87714425  0.36899684  1
  O  O186  1  0.87852389  0.88080295  0.88254509  1
  O  O187  1  0.26067003  -0.00824308  0.36866196  1
  O  O188  1  0.26280091  0.01044762  0.87170900  1
  O  O189  1  0.25670275  0.50408978  0.36590544  1
  O  O190  1  0.25943775  0.50797619  0.86478921  1
  O  O191  1  0.75046652  0.00689358  0.36806251  1
  O  O192  1  0.74839210  0.00565978  0.86592908  1
  O  O193  1  0.76010983  0.50369782  0.36695114  1
  O  O194  1  0.75755256  0.51103835  0.86579245  1
  O  O195  1  0.24114447  0.49416512  0.13657065  1
  O  O196  1  0.25301074  0.50800758  0.64009848  1
  O  O197  1  0.24975429  0.98969041  0.13327540  1
  O  O198  1  0.23544675  0.98247301  0.61317863  1
  O  O199  1  0.73828037  0.49756847  0.13253271  1
  O  O200  1  0.74784685  0.49423609  0.63116968  1
  O  O201  1  0.73746436  0.99498119  0.13638629  1
  O  O202  1  0.74030833  0.99304032  0.63168270  1
  O  O203  1  -0.00366123  0.37867106  0.26186555  1
  O  O204  1  -0.01187253  0.37875592  0.76842349  1
  O  O205  1  0.00712672  0.87113071  0.25470195  1
  O  O206  1  0.00509351  0.87346829  0.76230695  1
  O  O207  1  0.51245730  0.37718308  0.25521629  1
  O  O208  1  0.51119676  0.37630511  0.75892914  1
  O  O209  1  0.50726940  0.86947284  0.25755374  1
  O  O210  1  0.51610661  0.87027408  0.74780894  1
  O  O211  1  0.48676226  0.12244331  0.25022147  1
  O  O212  1  0.51320699  0.13849888  0.74036282  1
  O  O213  1  0.49013895  0.63417956  0.25599367  1
  O  O214  1  0.49015007  0.62456257  0.74707345  1
  O  O215  1  0.99201994  0.11873200  0.24135468  1
  O  O216  1  0.98305366  0.11626082  0.75015437  1
  O  O217  1  0.99813535  0.63613770  0.23529769  1
  O  O218  1  1.00688242  0.62397940  0.73767863  1
  O  O219  1  0.37497115  0.24779050  0.01040496  1
  O  O220  1  0.36521072  0.25698098  0.50129383  1
  O  O221  1  0.38875950  0.74642503  0.01532917  1
  O  O222  1  0.36980559  0.75475125  0.50680246  1
  O  O223  1  0.87181590  0.21036628  -0.00063582  1
  O  O224  1  0.87231793  0.26164177  0.49185521  1
  O  O225  1  0.86649541  0.75791268  0.00839241  1
  O  O226  1  0.87348329  0.74613025  0.51635415  1
  O  O227  1  0.12953997  0.24119057  0.49136790  1
  O  O228  1  0.12691703  0.23277256  0.99933851  1
  O  O229  1  0.13157582  0.74073313  0.49277206  1
  O  O230  1  0.11155442  0.71803724  1.07571109  1
  O  O231  1  0.62973783  0.24434486  0.49241436  1
  O  O232  1  0.61771217  0.24461051  1.00277157  1
  O  O233  1  0.62583780  0.73486926  0.50746578  1
  O  O234  1  0.62952960  0.74305387  0.99370180  1
  O  O235  1  0.48654742  0.24663545  0.13344933  1
  O  O236  1  0.50393158  0.24307663  0.63234121  1
  O  O237  1  0.49158840  0.75705688  0.14053355  1
  O  O238  1  0.48574277  0.74958435  0.62702225  1
  O  O239  1  0.99669005  0.24121263  0.11950173  1
  O  O240  1  1.00193962  0.24599580  0.62896803  1
  O  O241  1  0.98055519  0.75209060  0.13157520  1
  O  O242  1  0.99229547  0.74169267  0.62694069  1
  O  O243  1  0.00850967  0.26273228  0.37518583  1
  O  O244  1  0.00892256  0.26040499  0.85712014  1
  O  O245  1  0.00417916  0.75569744  0.37067829  1
  O  O246  1  -0.00616315  0.76339758  0.87859104  1
  O  O247  1  0.51289743  0.25013619  0.37402684  1
  O  O248  1  0.49443344  0.26441309  0.86950691  1
  O  O249  1  0.49267556  0.76258512  0.36342145  1
  O  O250  1  0.51054633  0.75228331  0.87099211  1
  O  O251  1  0.23907595  0.13913277  0.51806496  1
  O  O252  1  0.23218617  0.12258273  1.00828618  1
  O  O253  1  0.24509292  0.63087731  0.49252251  1
  O  O254  1  0.25244802  0.62124101  0.98565186  1
  O  O255  1  0.74108108  0.12649257  0.49432510  1
  O  O256  1  0.73502215  0.12432759  0.98166831  1
  O  O257  1  0.73601547  0.62060637  0.50093188  1
  O  O258  1  0.73908781  0.63016158  0.99067592  1
  O  O259  1  0.25462599  0.36873517  0.00234708  1
  O  O260  1  0.25817145  0.36544718  0.49541114  1
  O  O261  1  0.24091197  0.87778895  0.01474987  1
  O  O262  1  0.25657465  0.86601512  0.50637348  1
  O  O263  1  0.73107860  0.36731981  -0.00900978  1
  O  O264  1  0.75843146  0.37444724  0.50694403  1
  O  O265  1  0.74927042  0.86966906  0.00722950  1
  O  O266  1  0.74396420  0.87702327  0.51220130  1
  O  O267  1  0.13958273  0.49462203  0.26014234  1
  O  O268  1  0.13856419  0.50404884  0.74862562  1
  O  O269  1  0.13455060  0.99623896  0.24738424  1
  O  O270  1  0.11544492  0.98748791  0.73429744  1
  O  O271  1  0.62857916  0.49853805  0.24511927  1
  O  O272  1  0.63328009  0.49030328  0.74739198  1
  O  O273  1  0.63341024  0.99624463  0.24847369  1
  O  O274  1  0.63314699  0.99195644  0.74446174  1
  O  O275  1  0.37016459  0.00284971  0.25996546  1
  O  O276  1  0.37779900  -0.00514954  0.76275661  1
  O  O277  1  0.37125380  0.50816778  0.25318814  1
  O  O278  1  0.37170179  0.50954218  0.75540827  1
  O  O279  1  0.86186007  0.00160629  0.25174624  1
  O  O280  1  0.86111639  -0.00015921  0.75500817  1
  O  O281  1  0.86836223  0.50448876  0.25567819  1
  O  O282  1  0.86347960  0.49998447  0.75874211  1
  O  O283  1  0.11267809  0.36605998  0.37693076  1
  O  O284  1  0.11647674  0.38525241  0.87315151  1
  O  O285  1  0.11852309  0.86886374  0.36942595  1
  O  O286  1  0.11699437  0.88327836  0.86734006  1
  O  O287  1  0.62536335  0.36788322  0.36997919  1
  O  O288  1  0.62415761  0.36935197  0.87268392  1
  O  O289  1  0.61612926  0.88035621  0.36531355  1
  O  O290  1  0.63855836  0.85687672  0.86019796  1
  O  O291  1  0.37563523  0.12906070  0.13468551  1
  O  O292  1  0.39412283  0.13040098  0.61517496  1
  O  O293  1  0.36766151  0.63289613  0.13604371  1
  O  O294  1  0.37569524  0.63351136  0.63079426  1
  O  O295  1  0.89105318  0.11330033  0.13840798  1
  O  O296  1  0.87125871  0.11494219  0.64106159  1
  O  O297  1  0.86419340  0.63570794  0.13180442  1
  O  O298  1  0.89036495  0.63075851  0.62232920  1
  O  O299  1  0.26170976  0.24982816  0.12667077  1
  O  O300  1  0.24672028  0.26505216  0.62115485  1
  O  O301  1  0.26417866  0.76814562  0.13276440  1
  O  O302  1  0.25875135  0.75616927  0.62073072  1
  O  O303  1  0.76212411  0.25822206  0.12644067  1
  O  O304  1  0.74570723  0.26472828  0.62586655  1
  O  O305  1  0.75428831  0.75687981  0.12336425  1
  O  O306  1  0.75885547  0.75787855  0.62083275  1
  O  O307  1  0.24067735  0.25111498  0.38568786  1
  O  O308  1  0.26230582  0.23587661  0.86989452  1
  O  O309  1  0.24629443  0.74557528  0.37755816  1
  O  O310  1  0.25095126  0.73254639  0.87191901  1
  O  O311  1  0.73881039  0.24380362  0.37427272  1
  O  O312  1  0.74455240  0.24229856  0.86566353  1
  O  O313  1  0.75358944  0.74334712  0.38062576  1
  O  O314  1  0.74734211  0.74363162  0.87731931  1
  O  O315  1  0.01425428  0.11730531  0.00615971  1
  O  O316  1  0.00504530  0.11425951  0.49750186  1
  O  O317  1  -0.00670997  0.62731644  0.01966800  1
  O  O318  1  0.00873474  0.62162044  0.50727898  1
  O  O319  1  0.51163735  0.12149234  0.00237711  1
  O  O320  1  0.51466540  0.13062307  0.50786716  1
  O  O321  1  0.51410484  0.61725208  -0.00695301  1
  O  O322  1  0.50970108  0.61852921  0.50110516  1
  O  O323  1  0.49611981  0.38376481  0.49830657  1
  O  O324  1  0.49837404  0.38430171  0.99291789  1
  O  O325  1  0.48988432  0.86830450  0.49176831  1
  O  O326  1  0.54247453  0.88703259  0.98808630  1
  O  O327  1  0.99224258  0.37974024  0.48902936  1
  O  O328  1  0.99623499  0.36175226  0.97675189  1
  O  O329  1  1.00787454  0.88193228  0.48932005  1
  O  O330  1  0.99576964  0.88210282  0.99744567  1
  O  O331  1  0.49394086  0.49941163  0.38713102  1
  O  O332  1  0.49752025  0.49258674  0.88440309  1
  O  O333  1  0.48943729  0.98542477  0.37255131  1
  O  O334  1  0.49302563  0.98924145  0.87616602  1
  O  O335  1  0.99502536  0.49036924  0.37356915  1
  O  O336  1  0.98526449  0.49176230  0.87550811  1
  O  O337  1  1.00084339  0.99031761  0.38244683  1
  O  O338  1  0.99391654  0.99005510  0.88706972  1
  O  O339  1  0.00663463  -0.00077572  0.11355277  1
  O  O340  1  0.00366943  -0.00672902  0.61508347  1
  O  O341  1  0.01633208  0.51098580  0.12782827  1
  O  O342  1  -0.00351378  0.51351315  0.62121963  1
  O  O343  1  0.51294724  0.00036035  0.12671315  1
  O  O344  1  0.51316047  0.00775858  0.63212681  1
  O  O345  1  0.50477203  0.49705039  0.11308447  1
  O  O346  1  0.50601614  0.50134757  0.61435845  1
  O  O347  1  0.25794988  0.38921701  0.25084929  1
  O  O348  1  0.25438234  0.38930829  0.74389930  1
  O  O349  1  0.24754448  0.88438021  0.24549490  1
  O  O350  1  0.24088062  0.86857078  0.73970232  1
  O  O351  1  0.73748881  0.38833655  0.25467359  1
  O  O352  1  0.74662050  0.38253166  0.74282009  1
  O  O353  1  0.74296480  0.88229671  0.24964813  1
  O  O354  1  0.74207791  0.88067246  0.73906585  1
  O  O355  1  0.26259058  0.10832276  0.24805120  1
  O  O356  1  0.25326668  0.11836836  0.71978901  1
  O  O357  1  0.25739038  0.61651977  0.25396772  1
  O  O358  1  0.25580706  0.61782355  0.75568185  1
  O  O359  1  0.75664419  0.11808554  0.25484693  1
  O  O360  1  0.75139344  0.11731833  0.75483494  1
  O  O361  1  0.75381104  0.61323184  0.25146943  1
  O  O362  1  0.74407904  0.61658673  0.75752180  1
  O  O363  1  0.38100903  0.11177081  0.37334584  1
  O  O364  1  0.38415656  0.10808213  0.86850388  1
  O  O365  1  0.36866151  0.61994242  0.36699106  1
  O  O366  1  0.37481772  0.61589372  0.86700826  1
  O  O367  1  0.86974698  0.12082452  0.36676508  1
  O  O368  1  0.86353055  0.11476767  0.86060375  1
  O  O369  1  0.88142030  0.61499636  0.36603292  1
  O  O370  1  0.86628140  0.62087831  0.87745993  1
  O  O371  1  0.12379493  0.38496724  0.12435758  1
  O  O372  1  0.13034785  0.38328603  0.61443602  1
  O  O373  1  0.13574532  0.88365354  0.13340661  1
  O  O374  1  0.13034251  0.87612928  0.62904808  1
  O  O375  1  0.62508018  0.38700641  0.13396920  1
  O  O376  1  0.63306447  0.38298769  0.63165852  1
  O  O377  1  0.62978490  0.88262114  0.14078530  1
  O  O378  1  0.62953168  0.88076358  0.62888492  1
  O  O379  1  0.13308235  0.23740784  0.26471242  1
  O  O380  1  0.13285732  0.27362569  0.73361589  1
  O  O381  1  0.11974195  0.75604846  0.25393453  1
  O  O382  1  0.11747743  0.76269795  0.74594209  1
  O  O383  1  0.62409030  0.25944127  0.25648360  1
  O  O384  1  0.61714072  0.26626926  0.74581532  1
  O  O385  1  0.61611097  0.75909489  0.24694042  1
  O  O386  1  0.62555169  0.75351956  0.75315031  1
  O  O387  1  0.37387660  0.23889558  0.24944728  1
  O  O388  1  0.39392097  0.26457501  0.74312121  1
  O  O389  1  0.38165368  0.74255588  0.24390577  1
  O  O390  1  0.37361048  0.73909399  0.74304939  1
  O  O391  1  0.87439163  0.23807028  0.25484205  1
  O  O392  1  0.87404130  0.23239736  0.75032476  1
  O  O393  1  0.87788582  0.74534449  0.24346141  1
  O  O394  1  0.87740632  0.75077210  0.73410145  1
  O  O395  1  0.38121778  0.49576057  0.49541004  1
  O  O396  1  0.38230969  0.50261541  0.99382724  1
  O  O397  1  0.36988668  0.98595751  0.49551040  1
  O  O398  1  0.37738354  0.99977771  0.98572270  1
  O  O399  1  0.87569371  0.49350256  0.48583075  1
  O  O400  1  0.86715196  0.50345426  0.98584366  1
  O  O401  1  0.88683485  1.00278282  0.49861836  1
  O  O402  1  0.88236284  1.00183514  0.99518082  1
  O  O403  1  0.11885952  0.00656173  0.00497226  1
  O  O404  1  0.11663747  0.00430091  0.50569270  1
  O  O405  1  0.12805083  0.50008618  0.01137067  1
  O  O406  1  0.12792405  0.51530288  0.49140585  1
  O  O407  1  0.62991579  0.01451691  0.01506711  1
  O  O408  1  0.62734591  0.00938572  0.50938664  1
  O  O409  1  0.61794518  0.50888733  0.00846514  1
  O  O410  1  0.61813670  0.50459879  0.50473623  1
  O  O411  1  0.37331972  0.36365601  0.12426871  1
  O  O412  1  0.38156582  0.37531202  0.61017066  1
  O  O413  1  0.36638812  0.87107939  0.12583435  1
  O  O414  1  0.36860155  0.87035481  0.62045566  1
  O  O415  1  0.86608125  0.38346295  0.12000972  1
  O  O416  1  0.86809455  0.38385551  0.61217207  1
  O  O417  1  0.86676887  0.87066949  0.12018731  1
  O  O418  1  0.86647943  0.86586518  0.62686022  1
  O  O419  1  0.12194169  0.12915086  0.38826119  1
  O  O420  1  0.12522482  0.11615362  0.88336619  1
  O  O421  1  0.12930057  0.63220851  0.37810693  1
  O  O422  1  0.13358962  0.62308076  0.87606914  1
  O  O423  1  0.62823987  0.13005346  0.38131970  1
  O  O424  1  0.62922694  0.12239329  0.88204677  1
  O  O425  1  0.62582943  0.61937488  0.39133130  1
  O  O426  1  0.63300101  0.63348102  0.87857970  1
