# generated using pymatgen
data_V85Zn86O256
_symmetry_space_group_name_H-M   'P 1'
_cell_length_a   16.92451523
_cell_length_b   16.92391042
_cell_length_c   16.92774392
_cell_angle_alpha   89.96616548
_cell_angle_beta   90.01517686
_cell_angle_gamma   90.04081162
_symmetry_Int_Tables_number   1
_chemical_formula_structural   V85Zn86O256
_chemical_formula_sum   'V85 Zn86 O256'
_cell_volume   4848.59417387
_cell_formula_units_Z   1
loop_
 _symmetry_equiv_pos_site_id
 _symmetry_equiv_pos_as_xyz
  1  'x, y, z'
loop_
 _atom_site_type_symbol
 _atom_site_label
 _atom_site_symmetry_multiplicity
 _atom_site_fract_x
 _atom_site_fract_y
 _atom_site_fract_z
 _atom_site_occupancy
  V  V0  1  0.87479491  0.12407629  0.25230812  1
  V  V1  1  0.87129267  0.49862458  0.37895182  1
  V  V2  1  -0.01182218  0.12438324  0.61458374  1
  V  V3  1  -0.00027411  0.37426856  0.87133444  1
  V  V4  1  0.24935571  0.62662006  0.87400295  1
  V  V5  1  0.75222431  0.75866166  0.51683406  1
  V  V6  1  0.87454203  0.37416028  0.00018061  1
  V  V7  1  0.74705958  0.88095514  0.12419315  1
  V  V8  1  0.24904736  0.24616103  0.50109084  1
  V  V9  1  0.50258883  0.24491065  0.74607565  1
  V  V10  1  0.25041999  0.87350828  0.62360799  1
  V  V11  1  0.00296525  -0.00685382  -0.00401032  1
  V  V12  1  0.26046158  0.75606362  -0.00315677  1
  V  V13  1  0.87847475  0.87764359  0.51443474  1
  V  V14  1  0.62589327  0.49952939  0.13394121  1
  V  V15  1  -0.00004545  0.62532115  0.12445704  1
  V  V16  1  0.87878617  0.87536142  -0.00334946  1
  V  V17  1  0.62541947  0.75656889  0.87052986  1
  V  V18  1  0.11708473  0.87640678  0.74978892  1
  V  V19  1  0.50264156  0.37547510  0.87460511  1
  V  V20  1  0.74148979  0.36839320  0.13447199  1
  V  V21  1  0.23515144  0.62133484  0.37307673  1
  V  V22  1  0.38349397  0.12855103  0.25060184  1
  V  V23  1  0.12510964  0.51336208  0.62054796  1
  V  V24  1  0.37715388  0.24682908  0.62586811  1
  V  V25  1  0.50166621  0.76046097  0.74715998  1
  V  V26  1  0.37031822  0.62472179  0.25336466  1
  V  V27  1  0.87603460  0.50335800  0.86822883  1
  V  V28  1  0.12589286  -0.00435916  0.13050651  1
  V  V29  1  0.25096814  0.12179894  0.37944007  1
  V  V30  1  0.87234621  0.36189796  0.50255020  1
  V  V31  1  0.12712693  0.24812605  0.87306243  1
  V  V32  1  0.24920200  -0.00806861  0.25513965  1
  V  V33  1  0.75357668  0.62425180  0.86938207  1
  V  V34  1  0.75244240  0.35888222  0.62164251  1
  V  V35  1  0.50796624  0.37151330  0.36479620  1
  V  V36  1  0.37987906  0.87054038  0.48796468  1
  V  V37  1  0.00134230  0.50032534  -0.00186255  1
  V  V38  1  0.62600765  0.38081703  0.74559540  1
  V  V39  1  0.50295245  -0.00176180  0.49747779  1
  V  V40  1  -0.01946048  0.62910995  0.62311628  1
  V  V41  1  0.75108690  0.50203419  0.73908479  1
  V  V42  1  0.62641509  0.12129266  0.00452746  1
  V  V43  1  0.49804997  0.75265272  0.26035414  1
  V  V44  1  0.12724241  0.12391847  0.00141670  1
  V  V45  1  0.12227980  0.75622044  0.87563961  1
  V  V46  1  0.37568103  0.36876247  -0.00108181  1
  V  V47  1  0.25761164  0.87534836  0.12294273  1
  V  V48  1  0.74632484  0.00166367  0.24871389  1
  V  V49  1  0.62574453  0.62345135  -0.00048297  1
  V  V50  1  0.23366226  0.74825702  0.49180913  1
  V  V51  1  0.75228590  0.12413795  0.86516890  1
  V  V52  1  0.37541162  0.49965729  0.87380433  1
  V  V53  1  0.49882305  0.62853243  0.12628858  1
  V  V54  1  0.12313832  0.01148965  0.61530904  1
  V  V55  1  0.50136497  0.49902221  0.50349199  1
  V  V56  1  0.87996111  -0.00139513  0.38403207  1
  V  V57  1  0.87893548  0.00303756  0.86971911  1
  V  V58  1  0.62119822  0.13600371  0.51079541  1
  V  V59  1  0.00274229  0.24941385  0.25097701  1
  V  V60  1  -0.00080170  0.37536820  0.37676823  1
  V  V61  1  0.37835082  -0.00721213  0.87868002  1
  V  V62  1  0.62668792  0.62131020  0.50189583  1
  V  V63  1  0.37647137  0.62542552  0.74826987  1
  V  V64  1  0.75143976  0.75033509  -0.00029432  1
  V  V65  1  0.12460317  0.24398369  0.38102078  1
  V  V66  1  0.37935105  0.12213479  0.74788520  1
  V  V67  1  0.50361966  0.62234585  0.62578067  1
  V  V68  1  0.13623600  0.37747519  0.25274450  1
  V  V69  1  0.74592056  0.13285014  0.38276050  1
  V  V70  1  0.62698942  0.24925023  0.87564429  1
  V  V71  1  0.24737292  0.37575780  0.62411367  1
  V  V72  1  -0.01041120  0.23991892  0.74547901  1
  V  V73  1  0.74891146  0.63443015  0.37467305  1
  V  V74  1  0.13356961  0.49887808  0.12637420  1
  V  V75  1  0.24917928  0.00030656  0.75202239  1
  V  V76  1  0.87895077  0.24981087  0.12323626  1
  V  V77  1  0.50194550  -0.00560690  0.01004217  1
  V  V78  1  0.74886617  -0.01442736  0.74487576  1
  V  V79  1  0.62445648  0.87550794  0.25547099  1
  V  V80  1  0.12366731  0.37477142  0.74617252  1
  V  V81  1  0.87436221  0.62496394  0.24977392  1
  V  V82  1  0.37620048  0.37531959  0.49876350  1
  V  V83  1  0.62037372  -0.01419806  0.62959471  1
  V  V84  1  -0.01116596  0.74535307  0.75149390  1
  Zn  Zn85  1  0.37061076  0.49898368  0.36923732  1
  Zn  Zn86  1  0.50187627  0.49848364  -0.00022791  1
  Zn  Zn87  1  0.74438861  0.49836960  0.25550020  1
  Zn  Zn88  1  0.38247930  -0.00267815  0.37363071  1
  Zn  Zn89  1  0.12599069  0.62663378  -0.00120635  1
  Zn  Zn90  1  0.25489000  0.37545546  0.12743515  1
  Zn  Zn91  1  0.24826104  0.50106599  0.74867165  1
  Zn  Zn92  1  0.00168138  0.12244524  0.12743412  1
  Zn  Zn93  1  0.00862856  0.87026888  0.37725414  1
  Zn  Zn94  1  0.87687572  0.75049974  0.12336461  1
  Zn  Zn95  1  0.37298798  0.74790925  0.62188621  1
  Zn  Zn96  1  0.24950594  0.24981953  0.00600700  1
  Zn  Zn97  1  0.01487446  0.75314850  0.25796673  1
  Zn  Zn98  1  0.00158319  0.50544598  0.49855955  1
  Zn  Zn99  1  0.61968778  0.24993694  0.34212755  1
  Zn  Zn100  1  0.38008447  0.75508228  0.12057843  1
  Zn  Zn101  1  0.25403022  0.12456096  0.87736784  1
  Zn  Zn102  1  0.75243069  0.24735377  -0.00382569  1
  Zn  Zn103  1  0.62391100  0.75540844  0.37933046  1
  Zn  Zn104  1  0.51212936  0.12799856  0.13475171  1
  Zn  Zn105  1  0.37901445  0.25327193  0.13306501  1
  Zn  Zn106  1  0.50059835  0.87461099  0.87881241  1
  Zn  Zn107  1  0.19527334  0.18653461  0.18952330  1
  Zn  Zn108  1  0.18951679  0.18681917  0.69033455  1
  Zn  Zn109  1  0.19120468  0.68383226  0.18264448  1
  Zn  Zn110  1  0.18743534  0.69136696  0.68851295  1
  Zn  Zn111  1  0.68840424  0.18645006  0.18757454  1
  Zn  Zn112  1  0.68610213  0.18230668  0.68771763  1
  Zn  Zn113  1  0.68943156  0.69114121  0.18857069  1
  Zn  Zn114  1  0.68469704  0.68590943  0.68905606  1
  Zn  Zn115  1  0.31540811  0.31053328  0.31662390  1
  Zn  Zn116  1  0.31110322  0.31192156  0.81230782  1
  Zn  Zn117  1  0.17703812  0.81373316  0.31018293  1
  Zn  Zn118  1  0.31293572  0.81350290  0.80907917  1
  Zn  Zn119  1  0.80870619  0.31007621  0.31148467  1
  Zn  Zn120  1  0.81237067  0.31386722  0.81054854  1
  Zn  Zn121  1  0.84939680  0.82726088  0.29969109  1
  Zn  Zn122  1  0.81263771  0.81675696  0.81543742  1
  Zn  Zn123  1  0.18620044  0.43903899  0.43939339  1
  Zn  Zn124  1  0.18923162  0.43695266  0.93790889  1
  Zn  Zn125  1  0.18772726  0.93922041  0.44127821  1
  Zn  Zn126  1  0.18941035  0.93579902  0.93683892  1
  Zn  Zn127  1  0.68666004  0.43786732  0.44160982  1
  Zn  Zn128  1  0.69069581  0.43691748  0.93971895  1
  Zn  Zn129  1  0.69200644  0.94029581  0.43835311  1
  Zn  Zn130  1  0.68790246  0.94008097  0.93668666  1
  Zn  Zn131  1  0.31497535  0.06185779  0.06419641  1
  Zn  Zn132  1  0.31518563  0.05991232  0.56376700  1
  Zn  Zn133  1  0.31450150  0.56352346  0.05812141  1
  Zn  Zn134  1  0.31124690  0.56486920  0.55786368  1
  Zn  Zn135  1  0.81245947  0.06376887  0.06068068  1
  Zn  Zn136  1  0.80622614  0.06249811  0.56450961  1
  Zn  Zn137  1  0.81135569  0.55827143  0.06066184  1
  Zn  Zn138  1  0.81197191  0.56048434  0.55904117  1
  Zn  Zn139  1  0.43719018  0.44311820  0.18499798  1
  Zn  Zn140  1  0.43748214  0.43708568  0.68608301  1
  Zn  Zn141  1  0.43767947  0.93897491  0.19095097  1
  Zn  Zn142  1  0.43725683  0.93917972  0.68248872  1
  Zn  Zn143  1  0.93967737  0.43830938  0.19027657  1
  Zn  Zn144  1  0.93712172  0.43736740  0.68481292  1
  Zn  Zn145  1  0.93689902  0.93929398  0.18587638  1
  Zn  Zn146  1  0.93880211  0.94198299  0.68780499  1
  Zn  Zn147  1  0.06374715  0.05875950  0.31687781  1
  Zn  Zn148  1  0.06185484  0.06272483  0.81153786  1
  Zn  Zn149  1  0.05829742  0.56017262  0.30895865  1
  Zn  Zn150  1  0.06350699  0.56635669  0.80766104  1
  Zn  Zn151  1  0.56702119  0.05884403  0.31940812  1
  Zn  Zn152  1  0.56367132  0.06010648  0.81384308  1
  Zn  Zn153  1  0.55891773  0.56224139  0.31646589  1
  Zn  Zn154  1  0.56452107  0.56392774  0.81148819  1
  Zn  Zn155  1  0.44249165  0.18708945  0.43561760  1
  Zn  Zn156  1  0.44195769  0.18360107  0.93704844  1
  Zn  Zn157  1  0.43269574  0.68824886  0.43631641  1
  Zn  Zn158  1  0.44036759  0.68732564  0.93578568  1
  Zn  Zn159  1  0.93746644  0.18436085  0.43861996  1
  Zn  Zn160  1  0.94124957  0.18263942  0.93653543  1
  Zn  Zn161  1  0.93636302  0.69302953  0.44109521  1
  Zn  Zn162  1  0.93882761  0.68740637  0.93505903  1
  Zn  Zn163  1  0.06395974  0.31387706  0.06268521  1
  Zn  Zn164  1  0.05880340  0.31123304  0.56235565  1
  Zn  Zn165  1  0.06881845  0.81005308  0.06985082  1
  Zn  Zn166  1  0.05700608  0.81453113  0.56736479  1
  Zn  Zn167  1  0.56200522  0.30644140  0.07118338  1
  Zn  Zn168  1  0.56349837  0.31674149  0.56566089  1
  Zn  Zn169  1  0.56739585  0.81409573  0.06537063  1
  Zn  Zn170  1  0.56290337  0.80929999  0.56187580  1
  O  O171  1  0.12638490  0.11641648  0.11752647  1
  O  O172  1  0.12290368  0.11430838  0.63046617  1
  O  O173  1  0.11744427  0.61483077  0.12162241  1
  O  O174  1  0.12166331  0.61507054  0.63041798  1
  O  O175  1  0.63233173  0.12327143  0.10863205  1
  O  O176  1  0.62768618  0.11547494  0.61415484  1
  O  O177  1  0.62221511  0.61962782  0.11782218  1
  O  O178  1  0.61171418  0.62652721  0.61836450  1
  O  O179  1  0.38236944  0.37744130  0.38428150  1
  O  O180  1  0.37973055  0.38257339  0.87661368  1
  O  O181  1  0.37314943  0.87667104  0.39034942  1
  O  O182  1  0.37645442  0.88866080  0.86987247  1
  O  O183  1  0.87612396  0.38069245  0.38010544  1
  O  O184  1  0.88048616  0.38091028  0.88009932  1
  O  O185  1  0.86157557  0.88909017  0.39337532  1
  O  O186  1  0.86934166  0.88803340  0.88861052  1
  O  O187  1  0.25404543  0.00718266  0.37098685  1
  O  O188  1  0.25835498  0.00082338  0.86941180  1
  O  O189  1  0.25239134  0.51705442  0.38542129  1
  O  O190  1  0.25684173  0.50746876  0.87197211  1
  O  O191  1  0.75470151  0.01257713  0.36862862  1
  O  O192  1  0.75407406  0.00454277  0.86414994  1
  O  O193  1  0.75529684  0.50775667  0.37661681  1
  O  O194  1  0.75732769  0.50538292  0.86794918  1
  O  O195  1  0.23707182  0.49966706  0.11880269  1
  O  O196  1  0.23965356  0.49790945  0.62472323  1
  O  O197  1  0.24529073  0.99499285  0.13131373  1
  O  O198  1  0.24054638  0.99488919  0.63090368  1
  O  O199  1  0.74128906  0.49184369  0.12586741  1
  O  O200  1  0.75357819  0.49665061  0.63714186  1
  O  O201  1  0.75730688  0.99287193  0.13447438  1
  O  O202  1  0.73968442  1.00233870  0.63934004  1
  O  O203  1  0.00713847  0.36720961  0.25759882  1
  O  O204  1  0.00544118  0.36512293  0.75132653  1
  O  O205  1  -0.03938367  0.86076890  0.26056126  1
  O  O206  1  0.01074458  0.86382314  0.74062878  1
  O  O207  1  0.49379092  0.38517098  0.26732353  1
  O  O208  1  0.50965232  0.37140192  0.75337899  1
  O  O209  1  0.51188145  0.86613230  0.24126786  1
  O  O210  1  0.49542911  0.86294175  0.74957165  1
  O  O211  1  0.48799414  0.11343306  0.25323738  1
  O  O212  1  0.49426393  0.13401932  0.75379208  1
  O  O213  1  0.49807792  0.63240906  0.24361964  1
  O  O214  1  0.49590241  0.62880114  0.74216599  1
  O  O215  1  0.99385677  0.13168433  0.25030733  1
  O  O216  1  1.00295809  0.13591242  0.74336442  1
  O  O217  1  0.99113930  0.62578284  0.24068792  1
  O  O218  1  1.00040350  0.63784660  0.74175307  1
  O  O219  1  0.37321437  0.26174810  -0.01099320  1
  O  O220  1  0.37369320  0.25861425  0.50507333  1
  O  O221  1  0.36496660  0.74791939  -0.00189690  1
  O  O222  1  0.36802538  0.76069610  0.50149612  1
  O  O223  1  0.87914759  0.25423170  0.00604643  1
  O  O224  1  0.87463874  0.26254028  0.49466088  1
  O  O225  1  0.87037898  0.75908031  -0.00333846  1
  O  O226  1  0.85981090  0.76261759  0.50211827  1
  O  O227  1  0.13105992  0.25696569  0.48783811  1
  O  O228  1  0.12308832  0.24166683  0.99231350  1
  O  O229  1  0.13611058  0.75623964  0.50505303  1
  O  O230  1  0.13327793  0.74963452  0.99030132  1
  O  O231  1  0.61962677  0.23618930  0.50690564  1
  O  O232  1  0.62869526  0.24126783  0.99130171  1
  O  O233  1  0.63403234  0.74188905  0.49889315  1
  O  O234  1  0.63082812  0.73958663  0.99451957  1
  O  O235  1  0.49012316  0.23794805  0.11744309  1
  O  O236  1  0.49356095  0.25754326  0.63900482  1
  O  O237  1  0.50372051  0.73900766  0.12784900  1
  O  O238  1  0.49743188  0.74146348  0.63139144  1
  O  O239  1  0.99245587  0.24930327  0.13007831  1
  O  O240  1  1.00569586  0.23736237  0.63623554  1
  O  O241  1  0.99639197  0.73439587  0.11993635  1
  O  O242  1  1.00210604  0.73728047  0.63657546  1
  O  O243  1  0.00805894  0.25317297  0.37170872  1
  O  O244  1  0.00907559  0.25085343  0.86509484  1
  O  O245  1  -0.00892474  0.75450905  0.36987553  1
  O  O246  1  0.00958317  0.74462022  0.86269243  1
  O  O247  1  0.50372869  0.26634860  0.37743643  1
  O  O248  1  0.50561642  0.25632106  0.86390411  1
  O  O249  1  0.50277770  0.74730967  0.36415076  1
  O  O250  1  0.50750867  0.75159021  0.86716942  1
  O  O251  1  0.25963398  0.12988320  0.48834652  1
  O  O252  1  0.23929201  0.12489665  0.99813213  1
  O  O253  1  0.25325744  0.64034279  0.48946539  1
  O  O254  1  0.24865078  0.63315975  0.98961176  1
  O  O255  1  0.73335048  0.11934788  0.49418419  1
  O  O256  1  0.74356725  0.12144523  0.98625945  1
  O  O257  1  0.74311590  0.63094547  0.49712129  1
  O  O258  1  0.74482294  0.62788304  0.98998219  1
  O  O259  1  0.26080486  0.37235725  -0.00012164  1
  O  O260  1  0.25813938  0.36877139  0.50396256  1
  O  O261  1  0.24899394  0.86731772  0.00745501  1
  O  O262  1  0.25800862  0.86638708  0.50452204  1
  O  O263  1  0.76033780  0.37251377  0.00807452  1
  O  O264  1  0.75386058  0.37822568  0.51518935  1
  O  O265  1  0.75556746  0.87292977  0.00522860  1
  O  O266  1  0.75011102  0.86256607  0.50355472  1
  O  O267  1  0.11829154  0.48847415  0.23948020  1
  O  O268  1  0.12502124  0.49285118  0.73932113  1
  O  O269  1  0.13487045  1.00965597  0.23984277  1
  O  O270  1  0.12939041  0.99225326  0.74682693  1
  O  O271  1  0.62364153  0.50428234  0.23738029  1
  O  O272  1  0.63444344  0.48807508  0.75662305  1
  O  O273  1  0.63781627  0.99398298  0.25286079  1
  O  O274  1  0.63147241  1.00226661  0.73839911  1
  O  O275  1  0.36698066  0.00631372  0.25506888  1
  O  O276  1  0.37197343  0.00589463  0.75404927  1
  O  O277  1  0.37987326  0.51854406  0.25037040  1
  O  O278  1  0.37398512  0.50419067  0.75945357  1
  O  O279  1  0.86501887  0.00775830  0.25834251  1
  O  O280  1  0.86223112  -0.00583414  0.75714590  1
  O  O281  1  0.87460971  0.50790469  0.26142667  1
  O  O282  1  0.86756662  0.49304195  0.76146210  1
  O  O283  1  0.12040950  0.37021971  0.36959554  1
  O  O284  1  0.11876336  0.36875527  0.86828309  1
  O  O285  1  0.12111916  0.88964508  0.36970047  1
  O  O286  1  0.12881747  0.86475100  0.86542773  1
  O  O287  1  0.61114865  0.37621517  0.38103124  1
  O  O288  1  0.62425165  0.36911031  0.86811243  1
  O  O289  1  0.63575419  0.87366592  0.36008054  1
  O  O290  1  0.62556745  0.85954882  0.88042194  1
  O  O291  1  0.37239465  0.12215739  0.14440225  1
  O  O292  1  0.37153961  0.13019318  0.63867639  1
  O  O293  1  0.38434679  0.62568427  0.12752775  1
  O  O294  1  0.38485814  0.62483096  0.62839425  1
  O  O295  1  0.87767295  0.13382215  0.12934498  1
  O  O296  1  0.88864760  0.11913144  0.62229977  1
  O  O297  1  0.88212725  0.61848968  0.13119093  1
  O  O298  1  0.88238466  0.62032685  0.63077960  1
  O  O299  1  0.25918640  0.25501154  0.12367322  1
  O  O300  1  0.25512093  0.25410991  0.61951556  1
  O  O301  1  0.25325896  0.75759978  0.11286112  1
  O  O302  1  0.25032209  0.75717853  0.61527380  1
  O  O303  1  0.76541880  0.25517799  0.11791339  1
  O  O304  1  0.75215581  0.26061132  0.63240110  1
  O  O305  1  0.75349736  0.75666796  0.11510981  1
  O  O306  1  0.74783289  0.74506538  0.61500173  1
  O  O307  1  0.24387909  0.24274526  0.38121314  1
  O  O308  1  0.23620788  0.24845280  0.87552065  1
  O  O309  1  0.24197598  0.74240193  0.38548351  1
  O  O310  1  0.24451921  0.74703324  0.87840916  1
  O  O311  1  0.74721936  0.23640650  0.37177694  1
  O  O312  1  0.74702156  0.24201686  0.87364080  1
  O  O313  1  0.75094997  0.73736407  0.38440980  1
  O  O314  1  0.74501068  0.74199976  0.87743265  1
  O  O315  1  0.01182401  0.11362882  0.00205939  1
  O  O316  1  0.00356309  0.13142477  0.51574821  1
  O  O317  1  0.00141331  0.61719802  0.00517890  1
  O  O318  1  -0.00841612  0.62508410  0.51797823  1
  O  O319  1  0.51179457  0.11406822  -0.00328080  1
  O  O320  1  0.51263115  0.11581307  0.49837832  1
  O  O321  1  0.50903960  0.62428266  0.00643964  1
  O  O322  1  0.50433712  0.62053012  0.50511902  1
  O  O323  1  0.49390534  0.38244709  0.49867470  1
  O  O324  1  0.49381094  0.37714667  0.99114104  1
  O  O325  1  0.48592862  0.87757196  0.50763950  1
  O  O326  1  0.50524737  0.88909399  1.00184923  1
  O  O327  1  0.98992959  0.37751998  0.49513003  1
  O  O328  1  0.99499628  0.38013675  0.99155965  1
  O  O329  1  0.98224049  0.87105972  0.50116075  1
  O  O330  1  0.99480265  0.88489408  1.00590462  1
  O  O331  1  0.49594728  0.49386249  0.38867074  1
  O  O332  1  0.49297689  0.49481135  0.87473214  1
  O  O333  1  0.50257221  0.99614670  0.39225373  1
  O  O334  1  0.49488497  0.99534441  0.88171867  1
  O  O335  1  0.99094646  0.49367426  0.37754721  1
  O  O336  1  0.99396577  0.49701767  0.87515899  1
  O  O337  1  0.98282669  1.00029262  0.37364980  1
  O  O338  1  0.99178424  1.00246613  0.88189640  1
  O  O339  1  0.00842166  0.00088271  0.11866964  1
  O  O340  1  0.01247042  0.01414748  0.63268594  1
  O  O341  1  0.00626553  0.50732857  0.11927180  1
  O  O342  1  0.00629854  0.51465058  0.62874192  1
  O  O343  1  0.49703128  0.00604453  0.11257914  1
  O  O344  1  0.51294753  -0.00198624  0.61836190  1
  O  O345  1  0.50824830  0.51186906  0.12070302  1
  O  O346  1  0.49659648  0.50577052  0.61318459  1
  O  O347  1  0.23998171  0.37364798  0.25317765  1
  O  O348  1  0.24217353  0.37608171  0.74228289  1
  O  O349  1  0.25017280  0.88806957  0.24352568  1
  O  O350  1  0.24013703  0.87791609  0.74091265  1
  O  O351  1  0.76169259  0.38255859  0.23548249  1
  O  O352  1  0.74564882  0.38051974  0.74124741  1
  O  O353  1  0.75198336  0.88230400  0.24186228  1
  O  O354  1  0.74479225  0.88679217  0.75471696  1
  O  O355  1  0.25919488  0.11655788  0.26216615  1
  O  O356  1  0.25896116  0.11807376  0.75408421  1
  O  O357  1  0.25647016  0.63162706  0.26385747  1
  O  O358  1  0.25800933  0.62599581  0.75669738  1
  O  O359  1  0.75531490  0.11761578  0.25532854  1
  O  O360  1  0.74605888  0.11506857  0.76092289  1
  O  O361  1  0.75325290  0.61977336  0.25847892  1
  O  O362  1  0.74336687  0.61645360  0.76114770  1
  O  O363  1  0.37106172  0.12147229  0.36807342  1
  O  O364  1  0.37580143  0.11581599  0.86417210  1
  O  O365  1  0.36564771  0.62489703  0.36759460  1
  O  O366  1  0.37123532  0.61717673  0.87040714  1
  O  O367  1  0.86633677  0.11941489  0.37440689  1
  O  O368  1  0.86813564  0.11191023  0.87966956  1
  O  O369  1  0.86781954  0.61708485  0.37051023  1
  O  O370  1  0.86543321  0.61583242  0.87839974  1
  O  O371  1  0.12625780  0.38098216  0.13412339  1
  O  O372  1  0.12775186  0.38108843  0.63005419  1
  O  O373  1  0.13631896  0.89014498  0.11844416  1
  O  O374  1  0.13175921  0.88466500  0.62997442  1
  O  O375  1  0.63414899  0.38719747  0.11053380  1
  O  O376  1  0.63895696  0.37373774  0.63350550  1
  O  O377  1  0.64059389  0.87150089  0.13507447  1
  O  O378  1  0.62394869  0.88678165  0.62390991  1
  O  O379  1  0.12244688  0.25592130  0.25952541  1
  O  O380  1  0.11861440  0.25490746  0.75641502  1
  O  O381  1  0.12385856  0.75860517  0.22916087  1
  O  O382  1  0.11863594  0.75786085  0.75587736  1
  O  O383  1  0.64257182  0.27202592  0.23460226  1
  O  O384  1  0.61941367  0.25709499  0.75374720  1
  O  O385  1  0.61786733  0.75691022  0.25235684  1
  O  O386  1  0.61453345  0.74305164  0.75921704  1
  O  O387  1  0.37313119  0.23244356  0.25518827  1
  O  O388  1  0.38244144  0.24276020  0.74865414  1
  O  O389  1  0.38871560  0.73666264  0.24042865  1
  O  O390  1  0.38308753  0.74235417  0.74802953  1
  O  O391  1  0.88087925  0.24480339  0.24251899  1
  O  O392  1  0.89165855  0.25200793  0.75452994  1
  O  O393  1  0.86394517  0.72945134  0.24232954  1
  O  O394  1  0.89039336  0.75638933  0.75845968  1
  O  O395  1  0.38021373  0.48799615  0.50134489  1
  O  O396  1  0.37666216  0.49226357  0.98690680  1
  O  O397  1  0.38356652  0.98817885  0.50323838  1
  O  O398  1  0.39038728  1.00890837  0.99152669  1
  O  O399  1  0.87563030  0.49290681  0.48915972  1
  O  O400  1  0.88047918  0.49370182  0.98871687  1
  O  O401  1  0.86456353  0.98860336  0.49693335  1
  O  O402  1  0.88458813  0.99582036  0.99423786  1
  O  O403  1  0.11991118  0.00501433  0.00324765  1
  O  O404  1  0.12843876  0.00263120  0.51726271  1
  O  O405  1  0.11724983  0.49940723  0.00591351  1
  O  O406  1  0.11941434  0.49419815  0.51667971  1
  O  O407  1  0.61229951  0.00672368  -0.00701139  1
  O  O408  1  0.62076372  0.00195034  0.51147330  1
  O  O409  1  0.62643218  0.51266805  0.00349904  1
  O  O410  1  0.61748656  0.51309931  0.49971517  1
  O  O411  1  0.37575502  0.37818738  0.11331517  1
  O  O412  1  0.36754869  0.36911370  0.61976330  1
  O  O413  1  0.36213395  0.87592806  0.12785170  1
  O  O414  1  0.35959308  0.87538197  0.62158018  1
  O  O415  1  0.87284611  0.36864296  0.11959567  1
  O  O416  1  0.86256510  0.37856305  0.61788934  1
  O  O417  1  0.86583896  0.87499398  0.11093909  1
  O  O418  1  0.87341548  0.88219753  0.61399004  1
  O  O419  1  0.13542926  0.13370160  0.37214108  1
  O  O420  1  0.12604084  0.13193456  0.88210635  1
  O  O421  1  0.13573195  0.61960870  0.36999943  1
  O  O422  1  0.13289349  0.63524782  0.87288544  1
  O  O423  1  0.62920237  0.13203712  0.38451405  1
  O  O424  1  0.63281725  0.13023984  0.87991817  1
  O  O425  1  0.63176809  0.62644164  0.38371566  1
  O  O426  1  0.63151018  0.63117975  0.88240615  1
