# generated using pymatgen
data_V85Zn86O256
_symmetry_space_group_name_H-M   'P 1'
_cell_length_a   16.92425689
_cell_length_b   16.93584739
_cell_length_c   16.93651224
_cell_angle_alpha   90.02708792
_cell_angle_beta   90.03518209
_cell_angle_gamma   90.00025976
_symmetry_Int_Tables_number   1
_chemical_formula_structural   V85Zn86O256
_chemical_formula_sum   'V85 Zn86 O256'
_cell_volume   4854.45400020
_cell_formula_units_Z   1
loop_
 _symmetry_equiv_pos_site_id
 _symmetry_equiv_pos_as_xyz
  1  'x, y, z'
loop_
 _atom_site_type_symbol
 _atom_site_label
 _atom_site_symmetry_multiplicity
 _atom_site_fract_x
 _atom_site_fract_y
 _atom_site_fract_z
 _atom_site_occupancy
  V  V0  1  0.74572184  0.24448349  0.00163967  1
  V  V1  1  0.74853082  0.74825576  -0.00126262  1
  V  V2  1  0.62535717  0.37405939  0.74978049  1
  V  V3  1  0.88230363  0.11593228  0.75355290  1
  V  V4  1  0.37895377  0.38006336  0.01878621  1
  V  V5  1  0.74884204  0.11868750  0.87508924  1
  V  V6  1  0.24785377  0.87849114  0.12235502  1
  V  V7  1  0.24613925  0.00442812  0.24502008  1
  V  V8  1  0.62977638  0.62492396  0.49166722  1
  V  V9  1  0.38602722  0.50133090  0.88028369  1
  V  V10  1  0.87847960  0.49495129  0.37494685  1
  V  V11  1  0.00571408  0.00367693  0.01679156  1
  V  V12  1  0.24723691  0.49967816  0.24848084  1
  V  V13  1  0.75562566  0.62247821  0.87125684  1
  V  V14  1  0.00216168  0.62031321  0.11422833  1
  V  V15  1  0.88273478  0.24705728  0.12335935  1
  V  V16  1  0.37161846  -0.00168721  0.37719299  1
  V  V17  1  0.50146997  0.37541438  0.37693703  1
  V  V18  1  0.75317525  0.24679481  0.50213468  1
  V  V19  1  0.62562550  0.00008416  0.62597863  1
  V  V20  1  0.61942576  0.00248379  0.11386454  1
  V  V21  1  0.75857666  0.74303400  0.49268366  1
  V  V22  1  0.62781730  0.37603251  0.25141322  1
  V  V23  1  0.75958121  0.50203107  0.74912101  1
  V  V24  1  0.87594806  0.74787965  0.62940845  1
  V  V25  1  0.00200233  0.74953438  0.25162736  1
  V  V26  1  0.49753860  0.12444530  0.62454372  1
  V  V27  1  0.38243912  0.12402680  0.25115622  1
  V  V28  1  -0.00285121  0.61989868  0.62879428  1
  V  V29  1  0.36982805  0.37110370  0.49712628  1
  V  V30  1  0.74023709  0.87323630  0.12971068  1
  V  V31  1  -0.00645807  0.88356785  0.87500787  1
  V  V32  1  0.12655832  0.50005279  0.11296887  1
  V  V33  1  0.50023039  0.12574080  0.10412276  1
  V  V34  1  0.87020604  0.88303539  -0.00260902  1
  V  V35  1  0.00413300  0.00645161  0.51858843  1
  V  V36  1  0.24572011  0.62295292  0.87457759  1
  V  V37  1  0.37915968  0.88101799  -0.00101390  1
  V  V38  1  0.75589935  0.11878719  0.37564726  1
  V  V39  1  0.37342644  0.50289545  0.37499653  1
  V  V40  1  0.62728688  0.24778664  0.37619657  1
  V  V41  1  0.62590553  0.50187003  0.62314592  1
  V  V42  1  0.00431794  0.49674988  0.49854374  1
  V  V43  1  0.24603393  0.13575383  0.37466561  1
  V  V44  1  0.12440488  0.36884943  0.75430539  1
  V  V45  1  0.12019791  0.37967917  0.25747143  1
  V  V46  1  0.74927819  0.37280554  0.12409841  1
  V  V47  1  0.37641886  0.74723380  0.12335145  1
  V  V48  1  0.12770875  0.12754016  0.51163308  1
  V  V49  1  0.00030068  0.89510639  0.36886001  1
  V  V50  1  0.24491322  0.87527138  0.62055286  1
  V  V51  1  0.88558096  0.24420840  0.63040432  1
  V  V52  1  0.87761578  0.88284653  0.49366096  1
  V  V53  1  0.49501990  0.75016815  0.74044215  1
  V  V54  1  0.62413653  0.74734645  0.87134823  1
  V  V55  1  0.12280996  0.74876487  0.87735087  1
  V  V56  1  -0.00133676  0.74361382  0.75284578  1
  V  V57  1  0.63131357  0.75594212  0.36922118  1
  V  V58  1  0.36312927  -0.00048529  0.86749223  1
  V  V59  1  0.24620837  0.74715583  -0.00076098  1
  V  V60  1  0.50125355  0.88136510  0.87512357  1
  V  V61  1  0.61655161  0.61963603  -0.00390725  1
  V  V62  1  0.88202100  0.36948611  0.49709838  1
  V  V63  1  0.88493372  0.50093060  0.88085405  1
  V  V64  1  0.12558338  0.87528627  0.24377690  1
  V  V65  1  0.87858443  0.11946354  0.24671702  1
  V  V66  1  0.24777225  0.37492658  0.62286979  1
  V  V67  1  0.62426579  0.87348132  0.74727151  1
  V  V68  1  0.12840681  0.88897195  0.74876569  1
  V  V69  1  0.37209031  0.62600543  0.74017376  1
  V  V70  1  0.75279343  0.37220096  0.62623918  1
  V  V71  1  0.75224611  0.87472071  0.62341339  1
  V  V72  1  0.49614494  -0.00281721  0.50016259  1
  V  V73  1  0.87247040  0.74702262  0.12439868  1
  V  V74  1  0.00507634  0.36585289  0.88562999  1
  V  V75  1  0.37101231  0.24911269  0.62094674  1
  V  V76  1  -0.00249993  0.25688401  0.25892065  1
  V  V77  1  0.49710267  0.25077397  0.75066615  1
  V  V78  1  0.36754908  0.85973819  0.50166715  1
  V  V79  1  0.61974995  0.24400899  0.88038578  1
  V  V80  1  0.74323805  -0.00337575  0.25240579  1
  V  V81  1  0.50501558  0.75511186  0.24732076  1
  V  V82  1  0.87598154  0.62599361  0.26226594  1
  V  V83  1  0.75046644  0.50525324  0.25366875  1
  V  V84  1  0.62145489  0.49830208  0.11910334  1
  Zn  Zn85  1  0.23017001  0.14333756  0.87600478  1
  Zn  Zn86  1  0.13121238  0.63847304  0.50491526  1
  Zn  Zn87  1  0.00636315  0.24287644  0.75549406  1
  Zn  Zn88  1  0.37364673  0.62753208  0.25110981  1
  Zn  Zn89  1  0.12322447  0.25445951  0.37766488  1
  Zn  Zn90  1  0.24582431  0.25676354  0.00871863  1
  Zn  Zn91  1  0.25014974  0.49753861  0.75210962  1
  Zn  Zn92  1  0.49827151  0.62329230  0.12202159  1
  Zn  Zn93  1  0.62689820  0.12208634  0.50006172  1
  Zn  Zn94  1  0.36484989  0.11432696  0.74638985  1
  Zn  Zn95  1  0.50265441  0.24658997  0.25006862  1
  Zn  Zn96  1  0.12568578  0.13007174  0.01596002  1
  Zn  Zn97  1  0.49860603  0.62942048  0.61939096  1
  Zn  Zn98  1  0.50208224  0.50190400  0.49952112  1
  Zn  Zn99  1  0.13505298  0.75593093  0.38385897  1
  Zn  Zn100  1  0.75259991  -0.00206718  0.75408430  1
  Zn  Zn101  1  0.87665502  0.37829550  0.00272919  1
  Zn  Zn102  1  0.24594483  0.63291781  0.38213486  1
  Zn  Zn103  1  0.36956375  0.25007349  0.13237747  1
  Zn  Zn104  1  0.50269259  0.37970982  0.88133573  1
  Zn  Zn105  1  0.50273400  0.87637022  0.36970920  1
  Zn  Zn106  1  0.12680383  0.50096397  0.62708054  1
  Zn  Zn107  1  0.18020803  0.19511590  0.16621182  1
  Zn  Zn108  1  0.19203001  0.18622015  0.69293561  1
  Zn  Zn109  1  0.18715462  0.68408055  0.19202870  1
  Zn  Zn110  1  0.18627625  0.69206417  0.68590854  1
  Zn  Zn111  1  0.68497876  0.18323431  0.18644544  1
  Zn  Zn112  1  0.68911213  0.18496634  0.68996922  1
  Zn  Zn113  1  0.68642888  0.68366752  0.18704521  1
  Zn  Zn114  1  0.68918821  0.68566464  0.68490055  1
  Zn  Zn115  1  0.30922191  0.31440682  0.30150003  1
  Zn  Zn116  1  0.31149997  0.31309759  0.81254082  1
  Zn  Zn117  1  0.31350055  0.81204377  0.31096321  1
  Zn  Zn118  1  0.31021902  0.81309281  0.80732599  1
  Zn  Zn119  1  0.81344241  0.31185485  0.31252285  1
  Zn  Zn120  1  0.81534213  0.31020086  0.81587600  1
  Zn  Zn121  1  0.81564912  0.81499013  0.31327983  1
  Zn  Zn122  1  0.81131267  0.81210150  0.81128635  1
  Zn  Zn123  1  0.18960179  0.43994737  0.43687009  1
  Zn  Zn124  1  0.19313791  0.43403363  0.93773456  1
  Zn  Zn125  1  0.18571648  0.94040304  0.43569421  1
  Zn  Zn126  1  0.18276151  0.93875489  0.93726461  1
  Zn  Zn127  1  0.69495381  0.43700881  0.43737021  1
  Zn  Zn128  1  0.68964044  0.43313200  0.93618830  1
  Zn  Zn129  1  0.68841128  0.93554203  0.43926898  1
  Zn  Zn130  1  0.68407465  0.93682754  0.93822684  1
  Zn  Zn131  1  0.31081299  0.06564134  0.06004225  1
  Zn  Zn132  1  0.30451584  0.05850898  0.56526295  1
  Zn  Zn133  1  0.30836055  0.56253742  0.05900450  1
  Zn  Zn134  1  0.31095623  0.55978741  0.55968880  1
  Zn  Zn135  1  0.80966021  0.06272039  0.06382515  1
  Zn  Zn136  1  0.81635344  0.06205748  0.56556930  1
  Zn  Zn137  1  0.81072043  0.56292938  0.06295657  1
  Zn  Zn138  1  0.81746574  0.56263253  0.56183835  1
  Zn  Zn139  1  0.44419856  0.44312780  0.19642423  1
  Zn  Zn140  1  0.43735898  0.43929228  0.68889047  1
  Zn  Zn141  1  0.43890776  0.93857297  0.18547671  1
  Zn  Zn142  1  0.43199489  0.93228793  0.68301166  1
  Zn  Zn143  1  0.93991066  0.43695375  0.18487720  1
  Zn  Zn144  1  0.94015158  0.43200884  0.69155337  1
  Zn  Zn145  1  0.92673353  0.93462425  0.18793960  1
  Zn  Zn146  1  0.93903376  0.93494785  0.68971923  1
  Zn  Zn147  1  0.06955481  0.07208155  0.29175799  1
  Zn  Zn148  1  0.06283007  0.06491023  0.82622821  1
  Zn  Zn149  1  0.06332756  0.56604765  0.31600401  1
  Zn  Zn150  1  0.06568622  0.55857394  0.81106370  1
  Zn  Zn151  1  0.56701668  0.05795601  0.31288101  1
  Zn  Zn152  1  0.55789210  0.06530134  0.81132172  1
  Zn  Zn153  1  0.56097407  0.56814040  0.31057127  1
  Zn  Zn154  1  0.56475317  0.56467591  0.80563287  1
  Zn  Zn155  1  0.43814852  0.18558810  0.43704714  1
  Zn  Zn156  1  0.40514894  0.20081063  0.92746658  1
  Zn  Zn157  1  0.44445236  0.68575042  0.43324570  1
  Zn  Zn158  1  0.43493712  0.69154532  0.93105325  1
  Zn  Zn159  1  0.93909800  0.18094316  0.43624490  1
  Zn  Zn160  1  0.93672622  0.18299702  0.93927841  1
  Zn  Zn161  1  0.97070036  0.70296745  0.45005651  1
  Zn  Zn162  1  0.93379766  0.68992616  0.93656335  1
  Zn  Zn163  1  0.06632874  0.31612137  0.06691841  1
  Zn  Zn164  1  0.06507975  0.30851096  0.56361637  1
  Zn  Zn165  1  0.05989311  0.81320486  0.06221921  1
  Zn  Zn166  1  0.06263677  0.81941242  0.56704700  1
  Zn  Zn167  1  0.55389234  0.31172527  0.05930445  1
  Zn  Zn168  1  0.56228099  0.31238039  0.56115182  1
  Zn  Zn169  1  0.56295119  0.81132273  0.05977460  1
  Zn  Zn170  1  0.56361890  0.81270095  0.55686188  1
  O  O171  1  0.12341953  0.11092124  0.13002640  1
  O  O172  1  0.13244601  0.12914475  0.61044335  1
  O  O173  1  0.11075135  0.61630023  0.12972020  1
  O  O174  1  0.11077626  0.62382552  0.62594208  1
  O  O175  1  0.60971227  0.11778208  0.12607570  1
  O  O176  1  0.61948824  0.11594468  0.62293387  1
  O  O177  1  0.62677241  0.61662105  0.11251548  1
  O  O178  1  0.62787092  0.61715051  0.61306223  1
  O  O179  1  0.38183473  0.38024475  0.37819930  1
  O  O180  1  0.38066762  0.39591836  0.87015922  1
  O  O181  1  0.37521004  0.88562910  0.38371953  1
  O  O182  1  0.38146016  0.88012415  0.87849485  1
  O  O183  1  0.87137503  0.38107571  0.38562747  1
  O  O184  1  0.88694378  0.38218458  0.87628874  1
  O  O185  1  0.88228141  0.87676932  0.38695725  1
  O  O186  1  0.88057990  0.86598586  0.88520612  1
  O  O187  1  0.25642327  0.00540219  0.36592567  1
  O  O188  1  0.26266906  -0.00467865  0.87769756  1
  O  O189  1  0.25966957  0.50077040  0.36757942  1
  O  O190  1  0.25832742  0.51046927  0.87406978  1
  O  O191  1  0.74252835  0.00751387  0.36776472  1
  O  O192  1  0.74082730  0.01440185  0.87546936  1
  O  O193  1  0.76399697  0.49841917  0.36648176  1
  O  O194  1  0.75583878  0.50428781  0.86668866  1
  O  O195  1  0.23406527  0.51048249  0.13146919  1
  O  O196  1  0.25149295  0.48497206  0.62939381  1
  O  O197  1  0.26325985  0.98552643  0.13192292  1
  O  O198  1  0.25957539  0.97846632  0.63047754  1
  O  O199  1  0.74224369  0.49363804  0.13236942  1
  O  O200  1  0.74559504  0.49593167  0.63062015  1
  O  O201  1  0.74124331  0.99258242  0.13035420  1
  O  O202  1  0.74105652  0.99299240  0.62388143  1
  O  O203  1  0.00448449  0.36924144  0.25157296  1
  O  O204  1  0.00700070  0.37076516  0.76231330  1
  O  O205  1  0.00526755  0.87248775  0.24997392  1
  O  O206  1  0.00384398  0.86469756  0.75704759  1
  O  O207  1  0.50888249  0.37175844  0.26250501  1
  O  O208  1  0.50889521  0.36861786  0.74975314  1
  O  O209  1  0.49629248  0.86125416  0.24973012  1
  O  O210  1  0.50458014  0.86762781  0.75295845  1
  O  O211  1  0.48899963  0.12237512  0.25761029  1
  O  O212  1  0.49327064  0.13311420  0.74090941  1
  O  O213  1  0.49618715  0.63819127  0.24503539  1
  O  O214  1  0.49343738  0.63367968  0.74590262  1
  O  O215  1  0.98397924  0.13444209  0.25049251  1
  O  O216  1  0.98613511  0.12423739  0.75878684  1
  O  O217  1  0.99277252  0.63351455  0.24277508  1
  O  O218  1  1.00184987  0.63602591  0.74738811  1
  O  O219  1  0.38761381  0.27232925  0.01721215  1
  O  O220  1  0.38315826  0.26185189  0.50597491  1
  O  O221  1  0.36673909  0.75854821  0.00251752  1
  O  O222  1  0.38181717  0.76288997  0.49226757  1
  O  O223  1  0.86732609  0.25077104  0.00906769  1
  O  O224  1  0.87410356  0.25219031  0.50716545  1
  O  O225  1  0.86654554  0.75612334  0.00642229  1
  O  O226  1  0.87554260  0.75845549  0.50752154  1
  O  O227  1  0.11543224  0.23230324  0.49393625  1
  O  O228  1  0.13011826  0.24914988  1.01016103  1
  O  O229  1  0.08067618  0.74451806  0.48829085  1
  O  O230  1  0.13059132  0.75811962  0.98642741  1
  O  O231  1  0.63177497  0.24827104  0.49068656  1
  O  O232  1  0.63030268  0.25384022  0.99036223  1
  O  O233  1  0.63735843  0.74358853  0.49413337  1
  O  O234  1  0.63060076  0.74198441  0.99091251  1
  O  O235  1  0.50261142  0.23421860  0.13120806  1
  O  O236  1  0.49377280  0.24521753  0.62841419  1
  O  O237  1  0.49365604  0.74833642  0.12819702  1
  O  O238  1  0.50702785  0.75012366  0.63623109  1
  O  O239  1  0.98530011  0.25855280  0.13467747  1
  O  O240  1  0.98806057  0.25065088  0.62992627  1
  O  O241  1  0.99459838  0.74348545  0.13339255  1
  O  O242  1  0.99309605  0.74485859  0.63501410  1
  O  O243  1  -0.00303454  0.24780727  0.36236411  1
  O  O244  1  -0.00634733  0.26352079  0.87618207  1
  O  O245  1  -0.00876780  0.76646524  0.35586597  1
  O  O246  1  0.00443573  0.75427315  0.87060593  1
  O  O247  1  0.51079492  0.25578855  0.37629365  1
  O  O248  1  0.50214316  0.25130220  0.86600641  1
  O  O249  1  0.51125023  0.75230894  0.36564724  1
  O  O250  1  0.50612642  0.75717915  0.86261803  1
  O  O251  1  0.23518620  0.11609232  0.48965220  1
  O  O252  1  0.25107478  0.13172951  0.99697551  1
  O  O253  1  0.24161766  0.61616202  0.49734566  1
  O  O254  1  0.25286483  0.63996703  0.99076515  1
  O  O255  1  0.75087572  0.12753523  0.49270406  1
  O  O256  1  0.75424172  0.13634050  0.99207667  1
  O  O257  1  0.74909212  0.63697391  0.50358575  1
  O  O258  1  0.74217372  0.63011471  0.99154838  1
  O  O259  1  0.27536322  0.37867908  -0.00613839  1
  O  O260  1  0.25935666  0.37627602  0.50671289  1
  O  O261  1  0.25420628  0.86666098  0.00528525  1
  O  O262  1  0.25809009  0.87648244  0.50386080  1
  O  O263  1  0.75169002  0.36167429  0.00501648  1
  O  O264  1  0.76210801  0.36777148  0.50606183  1
  O  O265  1  0.75287810  0.86795167  0.00448566  1
  O  O266  1  0.76080307  0.86752724  0.50357533  1
  O  O267  1  0.12911965  0.49796417  0.24740107  1
  O  O268  1  0.12811953  0.48649172  0.74607456  1
  O  O269  1  0.14003926  0.99196310  0.24919475  1
  O  O270  1  0.11238888  0.98598943  0.75581512  1
  O  O271  1  0.63443142  0.49807717  0.24681256  1
  O  O272  1  0.63524873  0.49535202  0.74148492  1
  O  O273  1  0.63704861  1.00259176  0.23956118  1
  O  O274  1  0.62312140  0.99452916  0.73765025  1
  O  O275  1  0.36864259  0.00181634  0.25844946  1
  O  O276  1  0.37811025  -0.00697820  0.76319661  1
  O  O277  1  0.36732888  0.50209718  0.25781669  1
  O  O278  1  0.37435902  0.51002289  0.75974861  1
  O  O279  1  0.85962208  0.01010576  0.24324937  1
  O  O280  1  0.87247990  0.01146750  0.74598237  1
  O  O281  1  0.87131901  0.50394515  0.25659052  1
  O  O282  1  0.86376916  0.49458704  0.75713368  1
  O  O283  1  0.12795079  0.37423475  0.36327813  1
  O  O284  1  0.11231947  0.38193289  0.87127271  1
  O  O285  1  0.11702071  0.87650668  0.36183962  1
  O  O286  1  0.11580677  0.86885884  0.86630575  1
  O  O287  1  0.62147051  0.36892943  0.37337437  1
  O  O288  1  0.62327137  0.36437741  0.86795534  1
  O  O289  1  0.62314270  0.86021919  0.38150973  1
  O  O290  1  0.62022529  0.86817720  0.86803824  1
  O  O291  1  0.38822608  0.12129687  0.13420703  1
  O  O292  1  0.37765588  0.13297419  0.62284080  1
  O  O293  1  0.37573351  0.63734754  0.12020448  1
  O  O294  1  0.37879010  0.61612691  0.63675251  1
  O  O295  1  0.86411992  0.13594339  0.13522172  1
  O  O296  1  0.86847864  0.13192420  0.64172456  1
  O  O297  1  0.88411648  0.62676941  0.13222378  1
  O  O298  1  0.88512116  0.63461433  0.62430568  1
  O  O299  1  0.25748163  0.26140227  0.12842364  1
  O  O300  1  0.26463566  0.25953352  0.62685458  1
  O  O301  1  0.25492172  0.75627436  0.11869093  1
  O  O302  1  0.24874110  0.77171765  0.63539985  1
  O  O303  1  0.75182453  0.25332080  0.11898739  1
  O  O304  1  0.75617174  0.25286847  0.61938888  1
  O  O305  1  0.75070423  0.75542986  0.12064013  1
  O  O306  1  0.75882875  0.75453605  0.61779634  1
  O  O307  1  0.25122230  0.23815261  0.37024723  1
  O  O308  1  0.29609129  0.24021423  0.89392299  1
  O  O309  1  0.24769222  0.74823202  0.37072731  1
  O  O310  1  0.24244845  0.74632237  0.88019538  1
  O  O311  1  0.74505999  0.24323450  0.38164845  1
  O  O312  1  0.74104024  0.24329141  0.88204389  1
  O  O313  1  0.74731364  0.75269510  0.38258442  1
  O  O314  1  0.74462930  0.73993272  0.87566471  1
  O  O315  1  -0.01049826  0.10449277  0.00202594  1
  O  O316  1  0.00846059  0.11254105  0.49751587  1
  O  O317  1  -0.00429704  0.63283377  0.01593109  1
  O  O318  1  -0.00605486  0.60912584  0.51264457  1
  O  O319  1  0.48927466  0.13161151  0.00814774  1
  O  O320  1  0.50168914  0.11188328  0.50435645  1
  O  O321  1  0.51361280  0.63190228  -0.00353857  1
  O  O322  1  0.51298306  0.62229142  0.50215817  1
  O  O323  1  0.49656196  0.37742180  0.48859625  1
  O  O324  1  0.48789619  0.38389317  0.99773881  1
  O  O325  1  0.48909763  0.88367640  0.49878452  1
  O  O326  1  0.49069713  0.86454785  0.98751172  1
  O  O327  1  0.98825502  0.37909320  0.50730466  1
  O  O328  1  0.99746211  0.37664075  0.98841860  1
  O  O329  1  0.99733482  0.89257898  0.49048596  1
  O  O330  1  0.98809712  0.87622017  0.99475423  1
  O  O331  1  0.49535075  0.49133736  0.37361514  1
  O  O332  1  0.48902291  0.50646261  0.87124022  1
  O  O333  1  0.49410439  0.99707115  0.38274391  1
  O  O334  1  0.50229440  0.98369494  0.87118860  1
  O  O335  1  0.98733601  0.50190970  0.38395895  1
  O  O336  1  0.98869222  0.49488385  0.87024000  1
  O  O337  1  1.00240373  0.99529874  0.36409038  1
  O  O338  1  0.99429622  0.98488451  0.88488642  1
  O  O339  1  -0.00691890  -0.01001486  0.11448110  1
  O  O340  1  0.00301277  -0.00119061  0.61650350  1
  O  O341  1  0.00644185  0.51375446  0.12667266  1
  O  O342  1  -0.00344148  0.50578532  0.62110973  1
  O  O343  1  0.50622231  0.01252411  0.12793798  1
  O  O344  1  0.50380624  0.00254206  0.61864740  1
  O  O345  1  0.51775263  0.50498855  0.13280415  1
  O  O346  1  0.51646223  0.49985950  0.62385685  1
  O  O347  1  0.24012196  0.39116110  0.25114132  1
  O  O348  1  0.24393802  0.37456000  0.74385840  1
  O  O349  1  0.24456409  0.88120189  0.24120753  1
  O  O350  1  0.23271259  0.87610931  0.74962368  1
  O  O351  1  0.74586568  0.38461254  0.24598199  1
  O  O352  1  0.74555355  0.38021477  0.74617900  1
  O  O353  1  0.75571528  0.88312181  0.24109044  1
  O  O354  1  0.74313752  0.87749965  0.74305762  1
  O  O355  1  0.26442374  0.11624909  0.25691947  1
  O  O356  1  0.25522973  0.13112206  0.76352392  1
  O  O357  1  0.25315586  0.61386464  0.25446415  1
  O  O358  1  0.25658182  0.62575365  0.75611358  1
  O  O359  1  0.75474324  0.11840232  0.25714468  1
  O  O360  1  0.75713723  0.12176422  0.75870293  1
  O  O361  1  0.76001390  0.61221548  0.24316426  1
  O  O362  1  0.74567236  0.61475663  0.75851779  1
  O  O363  1  0.36920192  0.11482767  0.37316419  1
  O  O364  1  0.39106538  0.09855165  0.87404095  1
  O  O365  1  0.37987613  0.61026813  0.37571425  1
  O  O366  1  0.36699462  0.61848582  0.86865931  1
  O  O367  1  0.86178314  0.12889084  0.36559965  1
  O  O368  1  0.86369500  0.13063364  0.86190432  1
  O  O369  1  0.88168356  0.61947819  0.36376659  1
  O  O370  1  0.86369787  0.61802661  0.87829139  1
  O  O371  1  0.11332783  0.39648275  0.13802068  1
  O  O372  1  0.13376952  0.37367241  0.63033676  1
  O  O373  1  0.13366660  0.86946989  0.13445097  1
  O  O374  1  0.12793037  0.87688832  0.63856510  1
  O  O375  1  0.62860179  0.37993774  0.13054179  1
  O  O376  1  0.63313937  0.38167049  0.62696169  1
  O  O377  1  0.63433930  0.87946100  0.12151590  1
  O  O378  1  0.63066099  0.88026761  0.62691781  1
  O  O379  1  0.11290984  0.26286304  0.24963881  1
  O  O380  1  0.12268380  0.26299258  0.74655811  1
  O  O381  1  0.11593170  0.75856980  0.24826579  1
  O  O382  1  0.11552752  0.75717984  0.76093996  1
  O  O383  1  0.62831234  0.25534170  0.26264334  1
  O  O384  1  0.61477498  0.25359831  0.75325318  1
  O  O385  1  0.62093802  0.74435753  0.25818103  1
  O  O386  1  0.62026108  0.75331082  0.75347557  1
  O  O387  1  0.38153795  0.23957133  0.25165943  1
  O  O388  1  0.38830352  0.25620425  0.73787433  1
  O  O389  1  0.38230577  0.74982574  0.23814893  1
  O  O390  1  0.38395862  0.74004296  0.75637754  1
  O  O391  1  0.87748962  0.24452600  0.24342276  1
  O  O392  1  0.87558275  0.24024769  0.74403450  1
  O  O393  1  0.87783346  0.74257857  0.24306465  1
  O  O394  1  0.88157941  0.75629551  0.73741475  1
  O  O395  1  0.38072522  0.48709698  0.49304837  1
  O  O396  1  0.37537868  0.49923482  0.98790347  1
  O  O397  1  0.37985080  0.99561652  0.49282569  1
  O  O398  1  0.37320824  0.98455753  0.99158864  1
  O  O399  1  0.87977465  0.48995388  0.49380095  1
  O  O400  1  0.86485247  0.49667774  0.98633302  1
  O  O401  1  0.88972159  0.99570719  0.50402225  1
  O  O402  1  0.87562770  0.98597026  1.00496880  1
  O  O403  1  0.10691404  -0.01119810  0.00516030  1
  O  O404  1  0.11147699  0.01030730  0.49487360  1
  O  O405  1  0.12976092  0.49696267  0.01417508  1
  O  O406  1  0.10967891  0.49217537  0.50406662  1
  O  O407  1  0.62567899  -0.00169735  0.01403182  1
  O  O408  1  0.61618241  -0.00328056  0.51039819  1
  O  O409  1  0.63327087  0.50675357  0.00722207  1
  O  O410  1  0.63090898  0.50712883  0.50519597  1
  O  O411  1  0.37989092  0.38842189  0.11990868  1
  O  O412  1  0.37207245  0.37047114  0.61589593  1
  O  O413  1  0.37048016  0.86524835  0.11692421  1
  O  O414  1  0.36956616  0.87189657  0.60731767  1
  O  O415  1  0.86580047  0.36797362  0.12476748  1
  O  O416  1  0.86992439  0.36543362  0.62104126  1
  O  O417  1  0.86058698  0.86630112  0.11764406  1
  O  O418  1  0.87387834  0.86901367  0.61469141  1
  O  O419  1  0.13421529  0.12811440  0.37332429  1
  O  O420  1  0.12126448  0.12093022  0.89826427  1
  O  O421  1  0.12089191  0.63406382  0.38234310  1
  O  O422  1  0.13632537  0.63259281  0.86932860  1
  O  O423  1  0.63495818  0.13190015  0.37698977  1
  O  O424  1  0.63015180  0.13776737  0.86716783  1
  O  O425  1  0.62536946  0.63316765  0.38586676  1
  O  O426  1  0.63485475  0.62514693  0.87884890  1
