# generated using pymatgen
data_V85Zn86O256
_symmetry_space_group_name_H-M   'P 1'
_cell_length_a   16.96535592
_cell_length_b   16.96995500
_cell_length_c   16.96506178
_cell_angle_alpha   89.88420489
_cell_angle_beta   90.01700581
_cell_angle_gamma   89.95855611
_symmetry_Int_Tables_number   1
_chemical_formula_structural   V85Zn86O256
_chemical_formula_sum   'V85 Zn86 O256'
_cell_volume   4884.25232146
_cell_formula_units_Z   1
loop_
 _symmetry_equiv_pos_site_id
 _symmetry_equiv_pos_as_xyz
  1  'x, y, z'
loop_
 _atom_site_type_symbol
 _atom_site_label
 _atom_site_symmetry_multiplicity
 _atom_site_fract_x
 _atom_site_fract_y
 _atom_site_fract_z
 _atom_site_occupancy
  V  V0  1  0.63262467  0.87778129  0.24862014  1
  V  V1  1  -0.01476756  0.25111944  0.74579135  1
  V  V2  1  0.74770177  0.50385526  0.74144946  1
  V  V3  1  0.62626177  0.87446269  0.75271977  1
  V  V4  1  0.49810307  0.87402319  0.37662627  1
  V  V5  1  0.75237011  0.37667470  0.13140228  1
  V  V6  1  0.37835455  0.14039376  0.24036724  1
  V  V7  1  0.12547769  0.12677042  0.50704503  1
  V  V8  1  0.87826746  0.37038684  0.51442027  1
  V  V9  1  0.72824264  0.48139622  0.27165390  1
  V  V10  1  0.24870175  0.87771273  0.64649522  1
  V  V11  1  -0.00331727  0.13139291  0.11679901  1
  V  V12  1  0.74222863  0.63000351  0.38275289  1
  V  V13  1  0.87933727  0.75328704  0.62987891  1
  V  V14  1  0.87505745  0.87903114  0.50186647  1
  V  V15  1  0.13127790  0.13390951  0.00073743  1
  V  V16  1  0.24937671  0.48867971  0.75080691  1
  V  V17  1  0.23258015  0.11432883  0.34886624  1
  V  V18  1  0.00134006  0.37992812  0.37611150  1
  V  V19  1  0.62910239  0.62530751  0.00635998  1
  V  V20  1  0.62777008  0.74792658  0.88132559  1
  V  V21  1  0.49701113  -0.00256151  0.50383325  1
  V  V22  1  0.51445938  0.62249075  0.62075039  1
  V  V23  1  0.13060296  0.00002667  0.64384822  1
  V  V24  1  0.87334699  -0.01231997  0.87504089  1
  V  V25  1  0.40245768  0.33975617  0.45565132  1
  V  V26  1  0.49910058  0.50175361  0.00286600  1
  V  V27  1  0.62524736  0.75387051  0.38184211  1
  V  V28  1  -0.01252321  0.12690956  0.62958259  1
  V  V29  1  0.75473425  0.01046106  0.74939980  1
  V  V30  1  0.00015901  0.37520414  0.87257074  1
  V  V31  1  0.49655429  0.74869844  0.24465911  1
  V  V32  1  0.75244791  0.87777321  0.62696656  1
  V  V33  1  0.75542761  0.87179533  0.11190271  1
  V  V34  1  0.25223259  0.50244134  0.24653322  1
  V  V35  1  0.01682696  0.75547383  0.75576234  1
  V  V36  1  0.37067640  0.36440029  0.00253315  1
  V  V37  1  0.86861802  0.62390695  0.25233755  1
  V  V38  1  0.87768016  0.50206500  0.37870606  1
  V  V39  1  0.37379298  0.00088373  0.36413473  1
  V  V40  1  0.37218564  0.25455409  0.63064353  1
  V  V41  1  0.49841128  0.12462020  0.62849199  1
  V  V42  1  0.62535655  0.37941492  0.74355472  1
  V  V43  1  0.00571301  0.50361050  0.50354474  1
  V  V44  1  0.37667925  0.74967436  0.62448403  1
  V  V45  1  0.12856091  0.49321934  0.62872213  1
  V  V46  1  0.51160339  0.00337580  0.00175675  1
  V  V47  1  -0.00065147  0.74812264  0.25430167  1
  V  V48  1  -0.00226992  0.00126134  -0.00076010  1
  V  V49  1  0.87723798  0.12218909  0.24330122  1
  V  V50  1  0.37333758  0.50176978  0.87601516  1
  V  V51  1  0.50440039  0.50412440  0.49915380  1
  V  V52  1  0.00908281  0.00099267  0.50519733  1
  V  V53  1  0.12311730  0.50027447  0.11948585  1
  V  V54  1  0.12236705  0.37587900  0.24872869  1
  V  V55  1  0.13222537  0.25602676  0.86416170  1
  V  V56  1  0.24438336  0.62768513  0.37574619  1
  V  V57  1  0.75623326  0.12737597  0.87769611  1
  V  V58  1  0.50204277  0.24880430  0.75570731  1
  V  V59  1  0.50059395  0.74732312  0.74941021  1
  V  V60  1  0.02336156  0.87616780  0.87438332  1
  V  V61  1  0.75091913  0.75209859  0.50284450  1
  V  V62  1  -0.00780784  0.25467642  0.24218843  1
  V  V63  1  0.36561379  0.87664914  0.49880687  1
  V  V64  1  0.12062420  0.63559886  -0.00543463  1
  V  V65  1  0.24937153  0.35999637  0.11887547  1
  V  V66  1  0.25110213  0.11969706  0.87518186  1
  V  V67  1  0.50454261  0.37810265  0.87726751  1
  V  V68  1  0.11935865  0.25177943  0.37590973  1
  V  V69  1  0.87890923  0.00139091  0.37054810  1
  V  V70  1  0.37662848  0.62421648  0.74733277  1
  V  V71  1  0.00916937  0.86615792  0.37842468  1
  V  V72  1  0.37413941  0.50087235  0.37890495  1
  V  V73  1  0.86876961  0.74872811  0.11542891  1
  V  V74  1  0.24763174  0.63465812  0.87380639  1
  V  V75  1  0.75732632  0.24659744  0.01202171  1
  V  V76  1  0.48727356  0.63013962  0.12511472  1
  V  V77  1  0.87757195  0.62754249  0.75403534  1
  V  V78  1  0.24349092  0.75122105  0.50142269  1
  V  V79  1  0.37081685  0.11949076  0.75319898  1
  V  V80  1  0.75252623  0.62473632  0.88173713  1
  V  V81  1  0.37801868  -0.00087159  0.88179251  1
  V  V82  1  0.62299864  0.00153495  0.62843570  1
  V  V83  1  0.00580149  0.62826146  0.62933877  1
  V  V84  1  0.62913194  0.24686698  0.88240608  1
  Zn  Zn85  1  -0.00130234  0.49798136  -0.00156691  1
  Zn  Zn86  1  0.17930112  0.88470462  0.15256489  1
  Zn  Zn87  1  0.87389226  0.49834290  0.87895036  1
  Zn  Zn88  1  0.50892354  0.14013300  0.12276770  1
  Zn  Zn89  1  0.38130695  0.86181550  0.01829827  1
  Zn  Zn90  1  0.76027703  -0.00307799  0.24464520  1
  Zn  Zn91  1  0.63653321  0.01200293  0.11747011  1
  Zn  Zn92  1  0.74189479  0.24224194  0.50761471  1
  Zn  Zn93  1  0.17335398  0.78799637  0.32180128  1
  Zn  Zn94  1  0.72987568  0.13937141  0.36707717  1
  Zn  Zn95  1  -0.00586135  0.62109571  0.12369573  1
  Zn  Zn96  1  0.24987594  0.24862985  0.49805965  1
  Zn  Zn97  1  0.87814682  0.37545740  0.00292560  1
  Zn  Zn98  1  0.12479514  0.62910372  0.49802174  1
  Zn  Zn99  1  0.51915131  0.26374192  0.28629131  1
  Zn  Zn100  1  0.25459223  0.75597741  0.01623671  1
  Zn  Zn101  1  0.75597768  0.36672771  0.63134026  1
  Zn  Zn102  1  0.37253955  0.63134027  0.24824150  1
  Zn  Zn103  1  0.62092957  0.49474467  0.12981120  1
  Zn  Zn104  1  0.61826364  0.13868222  0.48955784  1
  Zn  Zn105  1  0.49838795  0.87210731  0.87891614  1
  Zn  Zn106  1  0.25465727  0.37422065  0.61374614  1
  Zn  Zn107  1  0.18372263  0.06784021  0.17401679  1
  Zn  Zn108  1  0.18776044  0.18780370  0.69104153  1
  Zn  Zn109  1  0.18571677  0.68474566  0.17878158  1
  Zn  Zn110  1  0.19258410  0.68254958  0.68680670  1
  Zn  Zn111  1  0.68360977  0.18642596  0.19387564  1
  Zn  Zn112  1  0.68689139  0.19051977  0.68458932  1
  Zn  Zn113  1  0.68479530  0.68586833  0.19272683  1
  Zn  Zn114  1  0.69014654  0.68904420  0.68988051  1
  Zn  Zn115  1  0.30195749  0.30601242  0.30357503  1
  Zn  Zn116  1  0.31632060  0.31022008  0.81851008  1
  Zn  Zn117  1  0.31978261  0.82125416  0.19662351  1
  Zn  Zn118  1  0.27392810  0.84675922  0.85626211  1
  Zn  Zn119  1  0.70370586  0.30591739  0.32707357  1
  Zn  Zn120  1  0.81252537  0.31556606  0.81367210  1
  Zn  Zn121  1  0.81721524  0.81539830  0.31279453  1
  Zn  Zn122  1  0.81156224  0.80975577  0.81435132  1
  Zn  Zn123  1  0.19737092  0.43258694  0.44130423  1
  Zn  Zn124  1  0.18588944  0.43873283  0.93693293  1
  Zn  Zn125  1  0.18990563  0.94488441  0.33066795  1
  Zn  Zn126  1  0.19977579  0.95768358  0.98414590  1
  Zn  Zn127  1  0.69472085  0.44432694  0.45393807  1
  Zn  Zn128  1  0.69006895  0.43666820  0.93971694  1
  Zn  Zn129  1  0.67298861  0.97142254  0.42123194  1
  Zn  Zn130  1  0.69141653  0.93434663  0.93569273  1
  Zn  Zn131  1  0.33391127  0.01046403  0.09546899  1
  Zn  Zn132  1  0.30698491  0.06208413  0.56337506  1
  Zn  Zn133  1  0.30818886  0.56346280  0.05844880  1
  Zn  Zn134  1  0.31515371  0.56304438  0.56248533  1
  Zn  Zn135  1  0.81599088  0.06297984  0.06099735  1
  Zn  Zn136  1  0.81041321  0.06601840  0.55643042  1
  Zn  Zn137  1  0.81135312  0.55463955  0.06627593  1
  Zn  Zn138  1  0.81698512  0.56613950  0.56535903  1
  Zn  Zn139  1  0.43378584  0.43010658  0.18624456  1
  Zn  Zn140  1  0.44145103  0.43869918  0.68677575  1
  Zn  Zn141  1  0.45583634  0.94130662  0.18966288  1
  Zn  Zn142  1  0.43450572  0.93442615  0.69402588  1
  Zn  Zn143  1  0.92982817  0.43916101  0.18788023  1
  Zn  Zn144  1  0.94235429  0.44144004  0.69616134  1
  Zn  Zn145  1  0.96691389  0.92886342  0.17839953  1
  Zn  Zn146  1  0.94143855  0.94024356  0.69316407  1
  Zn  Zn147  1  0.04685496  0.07123335  0.31945572  1
  Zn  Zn148  1  0.05871868  0.06865196  0.81564791  1
  Zn  Zn149  1  0.06408252  0.56649358  0.30994814  1
  Zn  Zn150  1  0.06604761  0.56130197  0.81179488  1
  Zn  Zn151  1  0.56084578  0.06797789  0.30266928  1
  Zn  Zn152  1  0.56428390  0.06530256  0.81921920  1
  Zn  Zn153  1  0.55768102  0.44275972  0.31307614  1
  Zn  Zn154  1  0.56498594  0.56302378  0.81344415  1
  Zn  Zn155  1  0.43018954  0.17165406  0.43780362  1
  Zn  Zn156  1  0.45264369  0.20310168  0.96804768  1
  Zn  Zn157  1  0.43467210  0.68558577  0.43522240  1
  Zn  Zn158  1  0.43598576  0.69092299  0.93791090  1
  Zn  Zn159  1  0.88919885  0.22410905  0.39416764  1
  Zn  Zn160  1  0.93363420  0.18906720  0.92979322  1
  Zn  Zn161  1  0.93595420  0.68762009  0.44122289  1
  Zn  Zn162  1  0.94150454  0.69152476  0.93541482  1
  Zn  Zn163  1  0.06472778  0.31096462  0.05774875  1
  Zn  Zn164  1  0.06064904  0.31282211  0.56621083  1
  Zn  Zn165  1  0.04771316  0.80888684  0.05915593  1
  Zn  Zn166  1  0.06716189  0.81844623  0.56960743  1
  Zn  Zn167  1  0.56721453  0.31086040  0.07361618  1
  Zn  Zn168  1  0.56355624  0.31027786  0.56070783  1
  Zn  Zn169  1  0.56511184  0.81586619  0.06148290  1
  Zn  Zn170  1  0.56214853  0.81510889  0.56391663  1
  O  O171  1  0.11532211  0.13246000  0.10659996  1
  O  O172  1  0.12236685  0.11913874  0.62218912  1
  O  O173  1  0.12103417  0.61688438  0.11117183  1
  O  O174  1  0.12213388  0.61363409  0.62165497  1
  O  O175  1  0.62153477  0.12306859  0.12909865  1
  O  O176  1  0.61266498  0.11629345  0.62749193  1
  O  O177  1  0.62016114  0.62597163  0.11459369  1
  O  O178  1  0.61375674  0.63057680  0.62731748  1
  O  O179  1  0.36238779  0.38727880  0.36661080  1
  O  O180  1  0.38220990  0.38848315  0.87788867  1
  O  O181  1  0.38175967  0.88633235  0.38642699  1
  O  O182  1  0.38121163  0.89706175  0.85601117  1
  O  O183  1  0.88415544  0.39498590  0.39128796  1
  O  O184  1  0.88620590  0.37748701  0.87614516  1
  O  O185  1  0.88627539  0.87828901  0.38731781  1
  O  O186  1  0.86921844  0.88613190  0.87615733  1
  O  O187  1  0.26280504  0.01273511  0.38638956  1
  O  O188  1  0.25991697  0.01434848  0.88642952  1
  O  O189  1  0.25460862  0.50663531  0.36732261  1
  O  O190  1  0.25660978  0.50583689  0.86925638  1
  O  O191  1  0.77495132  -0.00979828  0.37023313  1
  O  O192  1  0.75476627  0.00625915  0.87010699  1
  O  O193  1  0.76149275  0.51480771  0.38147613  1
  O  O194  1  0.74990015  0.51266569  0.86792123  1
  O  O195  1  0.23823547  0.50184734  0.13176633  1
  O  O196  1  0.24716415  0.49718909  0.63191667  1
  O  O197  1  0.22264893  0.98634608  0.10318787  1
  O  O198  1  0.24303282  0.99038207  0.62639700  1
  O  O199  1  0.74572375  0.48886985  0.13962605  1
  O  O200  1  0.75380689  0.50248051  0.63884186  1
  O  O201  1  0.75551579  0.98454226  0.12365902  1
  O  O202  1  0.74592587  0.99568657  0.63326292  1
  O  O203  1  0.00275596  0.37293828  0.25323235  1
  O  O204  1  0.00034403  0.36134467  0.75528033  1
  O  O205  1  -0.01178157  0.85910736  0.26885458  1
  O  O206  1  -0.00072391  0.86852204  0.76409040  1
  O  O207  1  0.50632966  0.37045572  0.24505639  1
  O  O208  1  0.50673760  0.37193094  0.75901923  1
  O  O209  1  0.51188363  0.86733149  0.25643174  1
  O  O210  1  0.51422720  0.86743064  0.74953201  1
  O  O211  1  0.48949216  0.14134958  0.25353095  1
  O  O212  1  0.49524710  0.13194663  0.74842852  1
  O  O213  1  0.49778953  0.63526547  0.23665084  1
  O  O214  1  0.49728783  0.62682445  0.74169679  1
  O  O215  1  0.99962377  0.13478377  0.23517687  1
  O  O216  1  1.00157509  0.13958631  0.74352763  1
  O  O217  1  0.98334230  0.62573153  0.25130446  1
  O  O218  1  0.99614824  0.63343154  0.74988235  1
  O  O219  1  0.35943688  0.26986559  -0.02608107  1
  O  O220  1  0.37332757  0.24550106  0.51290165  1
  O  O221  1  0.36958166  0.74970007  0.00167243  1
  O  O222  1  0.36881573  0.75701732  0.50517078  1
  O  O223  1  0.85976623  0.25273812  -0.00548154  1
  O  O224  1  0.88881602  0.27169508  0.50341012  1
  O  O225  1  0.87604047  0.74157358  0.01713716  1
  O  O226  1  0.87419671  0.76067420  0.51037946  1
  O  O227  1  0.12276964  0.24613703  0.49224610  1
  O  O228  1  0.11623130  0.23868602  0.98179950  1
  O  O229  1  0.13979828  0.75044893  0.50944704  1
  O  O230  1  0.12177492  0.73745198  1.00361947  1
  O  O231  1  0.62481613  0.25315636  0.48991200  1
  O  O232  1  0.64247311  0.25819463  0.98685676  1
  O  O233  1  0.63198053  0.76247547  0.48841903  1
  O  O234  1  0.62063442  0.74140177  0.98816509  1
  O  O235  1  0.48399318  0.24215132  0.07551570  1
  O  O236  1  0.49298766  0.24257582  0.63393621  1
  O  O237  1  0.50939466  0.74309672  0.13377059  1
  O  O238  1  0.49689381  0.74266539  0.62837346  1
  O  O239  1  1.00269200  0.24502906  0.13072861  1
  O  O240  1  1.00474119  0.24328641  0.63867499  1
  O  O241  1  0.98169226  0.74134794  0.13481277  1
  O  O242  1  0.99790470  0.74908344  0.63464331  1
  O  O243  1  0.00139097  0.26370960  0.36999683  1
  O  O244  1  0.00643826  0.25548074  0.86331671  1
  O  O245  1  -0.00327866  0.75473857  0.37135969  1
  O  O246  1  0.00032245  0.76715531  0.87028524  1
  O  O247  1  0.46103792  0.27189124  0.39268877  1
  O  O248  1  0.51090889  0.25670761  0.87638648  1
  O  O249  1  0.50818269  0.75458813  0.37174932  1
  O  O250  1  0.50977532  0.74834459  0.86607110  1
  O  O251  1  0.23418688  0.12643790  0.49649477  1
  O  O252  1  0.23190252  0.12788022  0.99304996  1
  O  O253  1  0.25100466  0.63363025  0.49404118  1
  O  O254  1  0.23826396  0.62986091  0.99252244  1
  O  O255  1  0.73944940  0.12048651  0.49297392  1
  O  O256  1  0.75326937  0.13851498  0.99531510  1
  O  O257  1  0.76039146  0.63908485  0.49559370  1
  O  O258  1  0.73996710  0.61755791  0.99450349  1
  O  O259  1  0.25520781  0.38431463  0.01199252  1
  O  O260  1  0.27517191  0.36528148  0.49450985  1
  O  O261  1  0.26206729  0.86578936  -0.02985483  1
  O  O262  1  0.26244655  0.86711470  0.51090147  1
  O  O263  1  0.75474645  0.36581487  0.00738423  1
  O  O264  1  0.77064638  0.38381026  0.51074716  1
  O  O265  1  0.74993269  0.86998381  0.01311918  1
  O  O266  1  0.76525649  0.87390963  0.50708810  1
  O  O267  1  0.13378309  0.49610173  0.24401317  1
  O  O268  1  0.13680597  0.50353433  0.74045859  1
  O  O269  1  0.14907002  1.03850902  0.27935494  1
  O  O270  1  0.12193292  1.00687731  0.74237620  1
  O  O271  1  0.63485737  0.51490853  0.24777059  1
  O  O272  1  0.63459190  0.49236710  0.75599315  1
  O  O273  1  0.62630582  0.98485114  0.24378239  1
  O  O274  1  0.63067456  0.99147034  0.74808917  1
  O  O275  1  0.38624310  0.00531160  0.26298479  1
  O  O276  1  0.38340988  0.01597082  0.75678056  1
  O  O277  1  0.36152667  0.50142661  0.25356161  1
  O  O278  1  0.37187288  0.50519582  0.75714459  1
  O  O279  1  0.88868625  0.00424386  0.25435450  1
  O  O280  1  0.86311245  -0.00453284  0.75796830  1
  O  O281  1  0.86382366  0.50439687  0.26363963  1
  O  O282  1  0.86899582  0.51165029  0.75517567  1
  O  O283  1  0.12148004  0.37150930  0.37279085  1
  O  O284  1  0.12077414  0.36123199  0.87939732  1
  O  O285  1  0.11319711  0.87236692  0.38204103  1
  O  O286  1  0.11943640  0.88297086  0.87591016  1
  O  O287  1  0.66092533  0.40860255  0.35197307  1
  O  O288  1  0.62107474  0.37078908  0.86922830  1
  O  O289  1  0.61974475  0.87432668  0.36844542  1
  O  O290  1  0.62755339  0.86398626  0.86826689  1
  O  O291  1  0.37988432  0.10966863  0.14187481  1
  O  O292  1  0.37796014  0.13174751  0.63392697  1
  O  O293  1  0.38417402  0.62193667  0.12477679  1
  O  O294  1  0.38128898  0.63220824  0.62987146  1
  O  O295  1  0.88083864  0.12698955  0.13492712  1
  O  O296  1  0.88925282  0.11537711  0.62308683  1
  O  O297  1  0.86870064  0.63098806  0.13616917  1
  O  O298  1  0.88600054  0.63273923  0.63439114  1
  O  O299  1  0.24230909  0.26549592  0.12295529  1
  O  O300  1  0.25756856  0.25150501  0.62457339  1
  O  O301  1  0.23455017  0.77431643  0.13009294  1
  O  O302  1  0.25824210  0.75521789  0.62165876  1
  O  O303  1  0.74726762  0.25689912  0.11599086  1
  O  O304  1  0.75010876  0.25381566  0.62105081  1
  O  O305  1  0.76093115  0.75646175  0.13287151  1
  O  O306  1  0.75743819  0.75828933  0.62320987  1
  O  O307  1  0.23490000  0.23484976  0.37043378  1
  O  O308  1  0.23657368  0.24358798  0.86898067  1
  O  O309  1  0.25262932  0.74009027  0.38777501  1
  O  O310  1  0.25128470  0.73332303  0.86255525  1
  O  O311  1  0.77429308  0.24383808  0.39133394  1
  O  O312  1  0.74733350  0.24383168  0.87901059  1
  O  O313  1  0.74671158  0.75009083  0.38258982  1
  O  O314  1  0.74135047  0.73497576  0.87011511  1
  O  O315  1  0.00151726  0.12651124  0.00125184  1
  O  O316  1  0.01194430  0.11757793  0.51342043  1
  O  O317  1  0.01007728  0.62143842  -0.00154581  1
  O  O318  1  0.00370905  0.62047362  0.50933792  1
  O  O319  1  0.50310758  0.10439351  -0.00811905  1
  O  O320  1  0.49927299  0.11265909  0.50827142  1
  O  O321  1  0.50635093  0.61695966  0.00426000  1
  O  O322  1  0.49635433  0.61346552  0.50535515  1
  O  O323  1  0.48084963  0.38577925  0.50930542  1
  O  O324  1  0.49112418  0.38991681  0.99628052  1
  O  O325  1  0.48685297  0.87839176  0.49928087  1
  O  O326  1  0.49879394  0.88307517  0.99676154  1
  O  O327  1  0.99600753  0.38705463  0.49946195  1
  O  O328  1  0.99896239  0.37470578  0.98840708  1
  O  O329  1  0.99383735  0.88050141  0.50016216  1
  O  O330  1  1.00094760  0.88702252  0.98178111  1
  O  O331  1  0.48855965  0.49934317  0.38738680  1
  O  O332  1  0.49261041  0.50014573  0.88259143  1
  O  O333  1  0.49077639  0.99525068  0.38615259  1
  O  O334  1  0.49688694  0.99663154  0.88227311  1
  O  O335  1  0.99767548  0.50114294  0.38377312  1
  O  O336  1  1.00388795  0.48409207  0.86960518  1
  O  O337  1  0.99628806  0.98952850  0.38638490  1
  O  O338  1  0.99161408  0.99150983  0.87333176  1
  O  O339  1  -0.00845118  0.02114266  0.11054986  1
  O  O340  1  0.00837051  0.00513810  0.62324495  1
  O  O341  1  0.01191449  0.50059796  0.12815291  1
  O  O342  1  0.00994356  0.50638495  0.62251267  1
  O  O343  1  0.50979348  0.00306559  0.11029491  1
  O  O344  1  0.49930116  0.00419280  0.62220067  1
  O  O345  1  0.49992274  0.50884547  0.11705283  1
  O  O346  1  0.48914547  0.51056856  0.61081860  1
  O  O347  1  0.24171853  0.38217738  0.23690173  1
  O  O348  1  0.25693463  0.38712771  0.75184790  1
  O  O349  1  0.23055134  0.86808252  0.25795964  1
  O  O350  1  0.25298643  0.86926220  0.74497460  1
  O  O351  1  0.75623153  0.37461757  0.23925209  1
  O  O352  1  0.74360100  0.38602251  0.75107139  1
  O  O353  1  0.74640003  0.87604552  0.24416127  1
  O  O354  1  0.74062030  0.88026085  0.74732137  1
  O  O355  1  0.26340181  0.12717300  0.24804780  1
  O  O356  1  0.25952203  0.12850722  0.76172624  1
  O  O357  1  0.25043311  0.61972523  0.25503535  1
  O  O358  1  0.25839817  0.61374366  0.75502252  1
  O  O359  1  0.76490338  0.11693662  0.25358873  1
  O  O360  1  0.74326855  0.11364515  0.75623599  1
  O  O361  1  0.75704062  0.62215937  0.26305537  1
  O  O362  1  0.75652029  0.62077887  0.75698325  1
  O  O363  1  0.36200948  0.11930995  0.36040971  1
  O  O364  1  0.36761877  0.11925154  0.87044046  1
  O  O365  1  0.36433277  0.61678371  0.37011792  1
  O  O366  1  0.37003261  0.61516816  0.86945863  1
  O  O367  1  0.89493894  0.11258071  0.35845691  1
  O  O368  1  0.86143225  0.11578020  0.87346163  1
  O  O369  1  0.87009139  0.61877410  0.37248945  1
  O  O370  1  0.86815127  0.62743077  0.87105351  1
  O  O371  1  0.13221471  0.38197394  0.12559853  1
  O  O372  1  0.13230223  0.38905532  0.61605787  1
  O  O373  1  0.06967280  0.88666432  0.13471990  1
  O  O374  1  0.13717944  0.88761874  0.62633513  1
  O  O375  1  0.64268654  0.37837870  0.11894186  1
  O  O376  1  0.62153278  0.37314215  0.64167621  1
  O  O377  1  0.64291562  0.86972392  0.13191088  1
  O  O378  1  0.63205749  0.87864755  0.63496437  1
  O  O379  1  0.10996248  0.25992620  0.26561525  1
  O  O380  1  0.11755893  0.24848888  0.76226573  1
  O  O381  1  0.10394889  0.73239382  0.24922046  1
  O  O382  1  0.11509025  0.74401930  0.74585163  1
  O  O383  1  0.63058119  0.23250154  0.28265720  1
  O  O384  1  0.62013441  0.25856937  0.76174808  1
  O  O385  1  0.62084342  0.75875037  0.26255624  1
  O  O386  1  0.62151845  0.75505158  0.75883251  1
  O  O387  1  0.37393735  0.24068425  0.24287098  1
  O  O388  1  0.38238525  0.24023195  0.74994084  1
  O  O389  1  0.39201537  0.75191300  0.25321363  1
  O  O390  1  0.38910858  0.74057054  0.74248692  1
  O  O391  1  0.89095002  0.23877236  0.25970701  1
  O  O392  1  0.88665738  0.25061113  0.75247755  1
  O  O393  1  0.87971682  0.73910073  0.24915673  1
  O  O394  1  0.88196867  0.74467226  0.74680259  1
  O  O395  1  0.37815918  0.50255101  0.48643483  1
  O  O396  1  0.37926852  0.49802279  0.99168469  1
  O  O397  1  0.38183991  0.99515177  0.49908357  1
  O  O398  1  0.38962757  0.99465349  0.99229151  1
  O  O399  1  0.89075293  0.50245522  0.49882528  1
  O  O400  1  0.88081729  0.49802016  0.99677935  1
  O  O401  1  0.88780589  0.99463962  0.49517812  1
  O  O402  1  0.88799501  1.00716516  0.98839278  1
  O  O403  1  0.10620785  0.02340634  -0.01574290  1
  O  O404  1  0.11372384  0.00798166  0.50915990  1
  O  O405  1  0.12243883  0.50776683  0.00670119  1
  O  O406  1  0.11738539  0.50116469  0.50379292  1
  O  O407  1  0.61626518  -0.00843243  -0.00159541  1
  O  O408  1  0.60568247  -0.01541795  0.51511923  1
  O  O409  1  0.61539666  0.50791694  0.00055350  1
  O  O410  1  0.60308083  0.49208157  0.50066802  1
  O  O411  1  0.35829666  0.37924735  0.11562265  1
  O  O412  1  0.37546912  0.35797220  0.63807124  1
  O  O413  1  0.37016459  0.89908407  0.12905870  1
  O  O414  1  0.37005193  0.86883910  0.62204455  1
  O  O415  1  0.85919340  0.37835926  0.12151747  1
  O  O416  1  0.88152231  0.38454429  0.61648924  1
  O  O417  1  0.86625487  0.85896449  0.12998133  1
  O  O418  1  0.87347643  0.87397706  0.62129700  1
  O  O419  1  0.12128038  0.13657584  0.38797862  1
  O  O420  1  0.13153490  0.13565376  0.87732459  1
  O  O421  1  0.13918247  0.62113144  0.37839780  1
  O  O422  1  0.13248599  0.61852322  0.88745291  1
  O  O423  1  0.63315769  0.07976204  0.38643401  1
  O  O424  1  0.63924663  0.13611091  0.87137990  1
  O  O425  1  0.64100136  0.64004630  0.37755679  1
  O  O426  1  0.63112756  0.63020117  0.88449475  1
