# generated using pymatgen
data_V85Zn86O256
_symmetry_space_group_name_H-M   'P 1'
_cell_length_a   16.94099348
_cell_length_b   16.94057538
_cell_length_c   16.94113115
_cell_angle_alpha   89.96689879
_cell_angle_beta   90.01748010
_cell_angle_gamma   90.00188918
_symmetry_Int_Tables_number   1
_chemical_formula_structural   V85Zn86O256
_chemical_formula_sum   'V85 Zn86 O256'
_cell_volume   4861.93718689
_cell_formula_units_Z   1
loop_
 _symmetry_equiv_pos_site_id
 _symmetry_equiv_pos_as_xyz
  1  'x, y, z'
loop_
 _atom_site_type_symbol
 _atom_site_label
 _atom_site_symmetry_multiplicity
 _atom_site_fract_x
 _atom_site_fract_y
 _atom_site_fract_z
 _atom_site_occupancy
  V  V0  1  0.12624121  0.36789609  0.25659422  1
  V  V1  1  -0.00228166  0.74505282  0.25009802  1
  V  V2  1  0.62732090  0.24747196  0.87341994  1
  V  V3  1  0.87753690  0.24722676  0.12616648  1
  V  V4  1  0.37748002  0.37303319  -0.00397925  1
  V  V5  1  0.50143647  0.24717160  0.74530863  1
  V  V6  1  0.25172870  0.86870934  0.12767927  1
  V  V7  1  0.23574889  0.13085781  0.87313522  1
  V  V8  1  0.26109206  0.36774087  0.12739906  1
  V  V9  1  0.87037609  0.49586612  0.36517266  1
  V  V10  1  0.23652345  0.25036574  -0.00325203  1
  V  V11  1  0.12503293  0.49557731  0.12678273  1
  V  V12  1  0.49877281  0.38276684  0.87167275  1
  V  V13  1  0.74465570  0.62104380  0.36509950  1
  V  V14  1  0.00161568  0.49526649  -0.00419303  1
  V  V15  1  0.61740909  0.76371382  0.36855603  1
  V  V16  1  0.49903936  0.38127885  0.37660123  1
  V  V17  1  0.24500432  -0.00015195  0.74791644  1
  V  V18  1  0.62600485  0.50066946  0.61858864  1
  V  V19  1  0.87818985  0.25860184  0.62205030  1
  V  V20  1  0.61851832  0.62192181  0.49099650  1
  V  V21  1  0.62023472  0.13267563  0.50854169  1
  V  V22  1  0.37714452  0.62314648  0.75199160  1
  V  V23  1  0.38106385  0.87004933  0.00396131  1
  V  V24  1  0.62464414  0.62382268  -0.00103848  1
  V  V25  1  0.62609243  0.87452433  0.75261749  1
  V  V26  1  0.74989004  0.24821406  -0.00508180  1
  V  V27  1  0.74911252  0.75886272  -0.00955826  1
  V  V28  1  -0.04643651  0.07324646  0.06718951  1
  V  V29  1  0.74455381  0.62741170  0.87304682  1
  V  V30  1  0.75235662  0.50119899  0.74279657  1
  V  V31  1  0.49192281  0.24759142  0.23756743  1
  V  V32  1  0.37893931  0.24540089  0.62108746  1
  V  V33  1  0.12756921  0.00851406  0.11472747  1
  V  V34  1  0.87290653  0.74906086  0.11879604  1
  V  V35  1  0.74933505  0.12611928  0.37739650  1
  V  V36  1  0.11393282  0.75148744  0.87253379  1
  V  V37  1  0.73958747  0.87154153  0.13568350  1
  V  V38  1  0.62130274  0.00745544  0.63041104  1
  V  V39  1  0.75518365  0.25858919  0.49968468  1
  V  V40  1  0.12555585  0.11830083  0.50248459  1
  V  V41  1  0.87090851  0.12845860  0.75538061  1
  V  V42  1  0.37942320  0.75044132  0.62540475  1
  V  V43  1  0.25650741  0.74729075  0.00196203  1
  V  V44  1  0.24549102  0.12691266  0.37227747  1
  V  V45  1  0.44885930  0.06059602  0.05686876  1
  V  V46  1  0.37695599  0.38064140  0.50094731  1
  V  V47  1  0.12594777  0.49656992  0.62442699  1
  V  V48  1  0.00363617  0.12369901  0.62714869  1
  V  V49  1  0.12385231  0.87390160  0.25125615  1
  V  V50  1  0.25321536  0.62540644  0.37425685  1
  V  V51  1  0.74903559  0.00619349  0.76063493  1
  V  V52  1  0.50204941  0.87384541  0.87838590  1
  V  V53  1  0.88469570  0.63573714  0.75055941  1
  V  V54  1  0.12638377  0.62078613  0.00000246  1
  V  V55  1  0.62051825  0.25115656  0.37275972  1
  V  V56  1  0.25598311  0.49816153  0.75331068  1
  V  V57  1  0.50695775  0.74997232  0.75072812  1
  V  V58  1  0.25173327  0.49738169  0.25206406  1
  V  V59  1  0.38943028  0.87548739  0.49934633  1
  V  V60  1  -0.00935262  0.49784737  0.49983897  1
  V  V61  1  0.00532825  0.25474815  0.75885194  1
  V  V62  1  0.24259723  0.25087021  0.49798629  1
  V  V63  1  0.37641292  0.12607953  0.74747154  1
  V  V64  1  -0.00189927  0.36829140  0.37999401  1
  V  V65  1  0.87894369  0.37333861  -0.00205921  1
  V  V66  1  0.37610892  0.62685328  0.23927963  1
  V  V67  1  0.25626482  0.62295359  0.87540305  1
  V  V68  1  0.62656548  0.11837663  0.00246289  1
  V  V69  1  0.49691131  0.75943896  0.24414294  1
  V  V70  1  0.75016390  0.38122592  0.13181191  1
  V  V71  1  0.87681310  0.49479469  0.87247352  1
  V  V72  1  0.12326548  0.37356038  0.76314766  1
  V  V73  1  0.50105456  0.62180893  0.62012341  1
  V  V74  1  0.00512152  0.24065203  0.25157252  1
  V  V75  1  0.87271689  -0.01106102  0.38226543  1
  V  V76  1  0.25272974  0.75213625  0.50020955  1
  V  V77  1  0.49948227  0.00978353  0.50094512  1
  V  V78  1  0.11631501  0.87301604  0.75082301  1
  V  V79  1  -0.00219034  -0.00888878  0.50593401  1
  V  V80  1  0.37817704  0.00506982  0.87412327  1
  V  V81  1  0.12564012  0.62426191  0.49997306  1
  V  V82  1  0.37620374  0.00077307  0.37541617  1
  V  V83  1  0.24883792  0.87884324  0.62531799  1
  V  V84  1  0.87621058  0.11779786  0.25709911  1
  Zn  Zn85  1  -0.00371042  0.61918296  0.12620360  1
  Zn  Zn86  1  0.37929972  0.50293159  0.37948816  1
  Zn  Zn87  1  0.62665721  0.37727878  0.25102351  1
  Zn  Zn88  1  0.61830427  0.00172366  0.13614984  1
  Zn  Zn89  1  0.25091988  0.37245370  0.62717019  1
  Zn  Zn90  1  -0.00327767  0.87197829  0.37880790  1
  Zn  Zn91  1  0.37685167  0.12517969  0.24073366  1
  Zn  Zn92  1  0.24982117  0.00007721  0.25213176  1
  Zn  Zn93  1  0.86747218  0.62028138  0.24544457  1
  Zn  Zn94  1  0.62224894  0.50207123  0.12855688  1
  Zn  Zn95  1  0.88634166  0.76791393  0.61113346  1
  Zn  Zn96  1  0.75412936  0.75591497  0.49813408  1
  Zn  Zn97  1  0.49862514  0.62484738  0.12205331  1
  Zn  Zn98  1  0.12428523  0.75164601  0.37558474  1
  Zn  Zn99  1  0.87923911  0.00095178  0.88010444  1
  Zn  Zn100  1  0.00524216  0.63057071  0.63508365  1
  Zn  Zn101  1  -0.02028831  0.88437515  0.92068473  1
  Zn  Zn102  1  0.75701231  0.38380557  0.61739484  1
  Zn  Zn103  1  0.49403983  0.50281646  -0.00183474  1
  Zn  Zn104  1  0.62775781  0.37537413  0.74689873  1
  Zn  Zn105  1  0.74104914  -0.00571240  0.25749744  1
  Zn  Zn106  1  0.75695707  0.87629042  0.62186885  1
  Zn  Zn107  1  0.19118934  0.18945623  0.18848796  1
  Zn  Zn108  1  0.18730141  0.18847539  0.68585049  1
  Zn  Zn109  1  0.18620416  0.68571362  0.18715356  1
  Zn  Zn110  1  0.18720077  0.68927290  0.68780159  1
  Zn  Zn111  1  0.68626795  0.18749672  0.18760915  1
  Zn  Zn112  1  0.69083024  0.19156714  0.68614083  1
  Zn  Zn113  1  0.68208838  0.68819027  0.18550090  1
  Zn  Zn114  1  0.69180538  0.69008277  0.68283753  1
  Zn  Zn115  1  0.31663493  0.30836216  0.31494050  1
  Zn  Zn116  1  0.31334591  0.31278523  0.81379816  1
  Zn  Zn117  1  0.31752697  0.81238282  0.31526916  1
  Zn  Zn118  1  0.31354944  0.81168561  0.81498662  1
  Zn  Zn119  1  0.81753220  0.30917145  0.31395530  1
  Zn  Zn120  1  0.81290945  0.31483863  0.80994474  1
  Zn  Zn121  1  0.81093829  0.80555773  0.31210892  1
  Zn  Zn122  1  0.81649085  0.81926847  0.81290271  1
  Zn  Zn123  1  0.18757664  0.43644108  0.43697581  1
  Zn  Zn124  1  0.19235764  0.43653470  0.93776783  1
  Zn  Zn125  1  0.18751565  0.93844594  0.43826679  1
  Zn  Zn126  1  0.18833467  0.93521469  0.93456010  1
  Zn  Zn127  1  0.68688856  0.43925810  0.43629567  1
  Zn  Zn128  1  0.68834715  0.43688002  0.93711394  1
  Zn  Zn129  1  0.68423464  0.94066679  0.43822220  1
  Zn  Zn130  1  0.68972802  0.93648614  0.93621043  1
  Zn  Zn131  1  0.28606894  0.06335052  0.05863239  1
  Zn  Zn132  1  0.31186177  0.06385305  0.56370099  1
  Zn  Zn133  1  0.31362827  0.55413368  0.06242116  1
  Zn  Zn134  1  0.31177637  0.56155988  0.56547931  1
  Zn  Zn135  1  0.78919283  0.06274992  0.06585154  1
  Zn  Zn136  1  0.81191351  0.06517818  0.56770163  1
  Zn  Zn137  1  0.81155166  0.56427149  0.05956723  1
  Zn  Zn138  1  0.82236385  0.59917402  0.54990142  1
  Zn  Zn139  1  0.44262492  0.44036763  0.18877176  1
  Zn  Zn140  1  0.43857284  0.43573375  0.68617981  1
  Zn  Zn141  1  0.43216126  0.93398899  0.19246696  1
  Zn  Zn142  1  0.43953960  0.93989014  0.68587800  1
  Zn  Zn143  1  0.94005737  0.43162453  0.18709680  1
  Zn  Zn144  1  0.94106554  0.43970623  0.68656657  1
  Zn  Zn145  1  0.96137840  0.90297578  0.13562134  1
  Zn  Zn146  1  0.93308162  0.93938918  0.68819146  1
  Zn  Zn147  1  0.06339007  0.05590669  0.31529858  1
  Zn  Zn148  1  0.05603592  0.05599505  0.81518262  1
  Zn  Zn149  1  0.06297563  0.55966041  0.31486583  1
  Zn  Zn150  1  0.06639849  0.55816044  0.81670991  1
  Zn  Zn151  1  0.56023919  0.06452947  0.31326210  1
  Zn  Zn152  1  0.56018749  0.06603491  0.81738227  1
  Zn  Zn153  1  0.56205076  0.55830242  0.30305119  1
  Zn  Zn154  1  0.56639863  0.56180406  0.80947243  1
  Zn  Zn155  1  0.43568605  0.18943098  0.43478487  1
  Zn  Zn156  1  0.43055596  0.20005433  0.93195748  1
  Zn  Zn157  1  0.44121968  0.68819811  0.43445612  1
  Zn  Zn158  1  0.44010807  0.68963129  0.93555327  1
  Zn  Zn159  1  0.93922411  0.18516696  0.43889437  1
  Zn  Zn160  1  0.93853940  0.19222180  0.93123894  1
  Zn  Zn161  1  0.93792511  0.68446856  0.43277959  1
  Zn  Zn162  1  0.93545270  0.68372268  0.93803431  1
  Zn  Zn163  1  0.06186173  0.31002768  0.06832686  1
  Zn  Zn164  1  0.06399239  0.31236426  0.56515320  1
  Zn  Zn165  1  0.07268693  0.79997911  0.06539678  1
  Zn  Zn166  1  0.06481956  0.80882928  0.56859073  1
  Zn  Zn167  1  0.56463473  0.31292150  0.05934183  1
  Zn  Zn168  1  0.56230925  0.31736163  0.56278847  1
  Zn  Zn169  1  0.56563226  0.80543292  0.06150985  1
  Zn  Zn170  1  0.59216431  0.82713745  0.54894294  1
  O  O171  1  0.13533573  0.10718071  0.12889319  1
  O  O172  1  0.11666010  0.12850365  0.61584000  1
  O  O173  1  0.12640822  0.61330508  0.11718389  1
  O  O174  1  0.12754874  0.61459384  0.61858044  1
  O  O175  1  0.62930329  0.12323725  0.11186102  1
  O  O176  1  0.62594756  0.12451759  0.61589527  1
  O  O177  1  0.62541790  0.62198755  0.11236704  1
  O  O178  1  0.61842368  0.62138346  0.61571292  1
  O  O179  1  0.38168686  0.37542041  0.38382512  1
  O  O180  1  0.38683265  0.37058969  0.88077910  1
  O  O181  1  0.36943130  0.88927562  0.38744674  1
  O  O182  1  0.37765580  0.88440157  0.88722319  1
  O  O183  1  0.88517144  0.38193659  0.37316157  1
  O  O184  1  0.87063134  0.38673937  0.88267567  1
  O  O185  1  0.87207630  0.88502499  0.37392283  1
  O  O186  1  0.87222727  0.88534932  0.88045192  1
  O  O187  1  0.25685549  0.00752143  0.37457727  1
  O  O188  1  0.26065955  0.00707353  0.87082395  1
  O  O189  1  0.25203467  0.50741900  0.36911773  1
  O  O190  1  0.24570654  0.51071525  0.86554369  1
  O  O191  1  0.75593384  0.00712057  0.37997797  1
  O  O192  1  0.74973718  0.00415267  0.86349472  1
  O  O193  1  0.76086481  0.50451023  0.37855532  1
  O  O194  1  0.75788149  0.50640985  0.86756809  1
  O  O195  1  0.24398691  0.48830688  0.13244982  1
  O  O196  1  0.24273087  0.49819831  0.63470713  1
  O  O197  1  0.24107528  0.98901299  0.13071998  1
  O  O198  1  0.25832347  0.99084612  0.63548913  1
  O  O199  1  0.75494969  0.48283727  0.11927544  1
  O  O200  1  0.74485296  0.50506222  0.62895048  1
  O  O201  1  0.74885391  0.98080208  0.12947157  1
  O  O202  1  0.73342427  1.00277355  0.63129664  1
  O  O203  1  0.00799804  0.36483391  0.25774575  1
  O  O204  1  0.01175401  0.36812373  0.74305433  1
  O  O205  1  0.00824821  0.86088221  0.24159167  1
  O  O206  1  0.01800565  0.88223775  0.74024014  1
  O  O207  1  0.49775099  0.36332598  0.25947449  1
  O  O208  1  0.50230158  0.36627783  0.75509189  1
  O  O209  1  0.49382020  0.85878676  0.24946090  1
  O  O210  1  0.50235005  0.86889220  0.75703293  1
  O  O211  1  0.49502457  0.14267106  0.25603610  1
  O  O212  1  0.49291368  0.13897579  0.75527432  1
  O  O213  1  0.48795387  0.63063634  0.24923864  1
  O  O214  1  0.49719917  0.63301566  0.74726811  1
  O  O215  1  0.99444359  0.13306095  0.26191689  1
  O  O216  1  0.99660515  0.13288555  0.74199528  1
  O  O217  1  1.00389269  0.63512693  0.24953258  1
  O  O218  1  0.98823528  0.62122843  0.75895667  1
  O  O219  1  0.36235448  0.26436112  -0.00143142  1
  O  O220  1  0.36688144  0.25559305  0.50597193  1
  O  O221  1  0.36874369  0.75891793  -0.00304772  1
  O  O222  1  0.37431314  0.75910959  0.50311401  1
  O  O223  1  0.86928571  0.25577093  0.00191117  1
  O  O224  1  0.86667190  0.24315319  0.50878584  1
  O  O225  1  0.86086511  0.73911211  0.00700344  1
  O  O226  1  0.86184564  0.70936604  0.50994313  1
  O  O227  1  0.13707197  0.24197968  0.50484721  1
  O  O228  1  0.13746769  0.26204546  0.99732554  1
  O  O229  1  0.13433622  0.74032918  0.49870036  1
  O  O230  1  0.13662542  0.73928670  0.99272961  1
  O  O231  1  0.63037801  0.24722547  0.49600628  1
  O  O232  1  0.63214315  0.24529661  0.99229786  1
  O  O233  1  0.61237824  0.73679820  0.48027283  1
  O  O234  1  0.63676928  0.73655271  0.99843736  1
  O  O235  1  0.50509626  0.25582401  0.13939795  1
  O  O236  1  0.49284383  0.25543263  0.63380007  1
  O  O237  1  0.50414310  0.74453838  0.13928510  1
  O  O238  1  0.49667806  0.73871834  0.63243736  1
  O  O239  1  0.99145389  0.25379208  0.13988243  1
  O  O240  1  0.99461547  0.24216341  0.62815828  1
  O  O241  1  0.99028804  0.74093727  0.13119399  1
  O  O242  1  0.99726229  0.74144163  0.62271001  1
  O  O243  1  -0.00505340  0.26079865  0.36956752  1
  O  O244  1  -0.00006760  0.25276279  0.85813139  1
  O  O245  1  0.00149549  0.75371386  0.36701162  1
  O  O246  1  0.01232641  0.75519368  0.88757080  1
  O  O247  1  0.50610840  0.25789595  0.37002324  1
  O  O248  1  0.50670097  0.26004428  0.86566200  1
  O  O249  1  0.50973845  0.74659554  0.36301207  1
  O  O250  1  0.49418173  0.76478728  0.86445829  1
  O  O251  1  0.24217914  0.12948740  0.49676179  1
  O  O252  1  0.24821481  0.14146177  0.98904866  1
  O  O253  1  0.24416046  0.62765488  0.49445654  1
  O  O254  1  0.24968042  0.62759371  0.99368006  1
  O  O255  1  0.74090759  0.13585067  0.49646101  1
  O  O256  1  0.74224161  0.13960028  0.99785996  1
  O  O257  1  0.72926194  0.62327413  0.48557830  1
  O  O258  1  0.74513378  0.63025114  0.98973117  1
  O  O259  1  0.25455087  0.36803188  0.00666604  1
  O  O260  1  0.25513367  0.36572448  0.50014628  1
  O  O261  1  0.25766078  0.86574958  0.00510145  1
  O  O262  1  0.25814708  0.87285440  0.50861611  1
  O  O263  1  0.76048104  0.36743000  0.00565411  1
  O  O264  1  0.74834255  0.36250295  0.49883809  1
  O  O265  1  0.74385097  0.86174553  0.00574873  1
  O  O266  1  0.70649740  0.86297169  0.51526135  1
  O  O267  1  0.13104848  0.49125828  0.24636307  1
  O  O268  1  0.13295187  0.49531282  0.74313241  1
  O  O269  1  0.12521059  0.98706474  0.24232261  1
  O  O270  1  0.14093820  0.99182191  0.75483734  1
  O  O271  1  0.62355805  0.48945166  0.24249793  1
  O  O272  1  0.63543083  0.50237676  0.73723206  1
  O  O273  1  0.62894750  1.00825270  0.24944465  1
  O  O274  1  0.62749854  1.00118385  0.74654708  1
  O  O275  1  0.37394483  0.00420492  0.26143324  1
  O  O276  1  0.36886656  0.00445513  0.75697969  1
  O  O277  1  0.36805319  0.50842486  0.25398604  1
  O  O278  1  0.36337386  0.50510419  0.74374175  1
  O  O279  1  0.86906010  0.01243499  0.26340235  1
  O  O280  1  0.86305438  0.01282571  0.74629441  1
  O  O281  1  0.88392475  0.50045643  0.26126693  1
  O  O282  1  0.87132226  0.50175319  0.75825595  1
  O  O283  1  0.11795902  0.37864594  0.36304773  1
  O  O284  1  0.12569770  0.38233219  0.86213497  1
  O  O285  1  0.12352204  0.87373658  0.36403778  1
  O  O286  1  0.13029315  0.86493546  0.86585679  1
  O  O287  1  0.61783377  0.36462285  0.37783151  1
  O  O288  1  0.61871472  0.36530009  0.87290867  1
  O  O289  1  0.62266964  0.86176177  0.37302470  1
  O  O290  1  0.61419924  0.88334279  0.86409271  1
  O  O291  1  0.38120724  0.10953087  0.11558821  1
  O  O292  1  0.37255030  0.13786179  0.62974581  1
  O  O293  1  0.36959242  0.62364539  0.13646049  1
  O  O294  1  0.38248378  0.62897230  0.63016216  1
  O  O295  1  0.88078799  0.12353007  0.13094791  1
  O  O296  1  0.88228653  0.13690068  0.63374747  1
  O  O297  1  0.87270689  0.63267914  0.12834296  1
  O  O298  1  0.88115436  0.61298380  0.64861647  1
  O  O299  1  0.24607508  0.25616257  0.11130216  1
  O  O300  1  0.25908943  0.25170006  0.61656231  1
  O  O301  1  0.24499455  0.75469420  0.11183238  1
  O  O302  1  0.26038969  0.75498390  0.61977063  1
  O  O303  1  0.75825086  0.25597732  0.11552843  1
  O  O304  1  0.75980816  0.25502633  0.61714680  1
  O  O305  1  0.75137910  0.75548889  0.11777066  1
  O  O306  1  0.75702224  0.75404921  0.62036459  1
  O  O307  1  0.25554943  0.23968458  0.38577958  1
  O  O308  1  0.25130997  0.24411440  0.88415549  1
  O  O309  1  0.25000726  0.74244312  0.38243908  1
  O  O310  1  0.24593220  0.74372827  0.88564848  1
  O  O311  1  0.74277079  0.24704836  0.38113633  1
  O  O312  1  0.74126756  0.25839676  0.88225013  1
  O  O313  1  0.73489403  0.74205890  0.37553564  1
  O  O314  1  0.75472144  0.74181837  0.88185192  1
  O  O315  1  0.00324753  0.13739275  0.01034756  1
  O  O316  1  0.00932593  0.12034813  0.50565284  1
  O  O317  1  0.00738104  0.61347079  0.00099883  1
  O  O318  1  0.01758811  0.61452416  0.49241664  1
  O  O319  1  0.50212497  0.12754028  -0.00146093  1
  O  O320  1  0.50787745  0.12326934  0.49934421  1
  O  O321  1  0.50922739  0.62464617  -0.00355692  1
  O  O322  1  0.50488412  0.62323699  0.50822732  1
  O  O323  1  0.48830893  0.36779435  0.49058589  1
  O  O324  1  0.49376510  0.37286088  0.99013508  1
  O  O325  1  0.49288489  0.88459621  0.50705406  1
  O  O326  1  0.49287368  0.86710423  0.99262591  1
  O  O327  1  1.00961659  0.38399290  0.49070054  1
  O  O328  1  0.98667731  0.37816487  1.00610693  1
  O  O329  1  1.01154149  0.88911312  0.50149164  1
  O  O330  1  0.99974749  0.87436186  1.03016577  1
  O  O331  1  0.49830474  0.48510158  0.37220308  1
  O  O332  1  0.50633671  0.48664740  0.87318577  1
  O  O333  1  0.49130846  1.00769883  0.39115146  1
  O  O334  1  0.48612511  0.99056316  0.86990384  1
  O  O335  1  0.99483629  0.48995816  0.38098466  1
  O  O336  1  0.99325536  0.50031137  0.88757744  1
  O  O337  1  0.99050110  0.99521782  0.38488524  1
  O  O338  1  0.99463781  0.98983925  0.87548009  1
  O  O339  1  0.01093544  0.00943116  0.12849412  1
  O  O340  1  -0.00535472  0.01634342  0.61930749  1
  O  O341  1  0.00528745  0.49769864  0.11492233  1
  O  O342  1  0.00891872  0.50502714  0.61653200  1
  O  O343  1  0.49980864  -0.00432426  0.11803995  1
  O  O344  1  0.50957309  0.00360845  0.61659604  1
  O  O345  1  0.50103244  0.50487082  0.11689151  1
  O  O346  1  0.50864828  0.51393309  0.63442881  1
  O  O347  1  0.24556750  0.37333974  0.24564891  1
  O  O348  1  0.24470186  0.38265889  0.74977507  1
  O  O349  1  0.24608084  0.87129502  0.24232070  1
  O  O350  1  0.25123084  0.88213944  0.74435784  1
  O  O351  1  0.75313098  0.36472539  0.23400314  1
  O  O352  1  0.75041407  0.39028235  0.74591852  1
  O  O353  1  0.74744126  0.87004369  0.23855511  1
  O  O354  1  0.73913163  0.88597159  0.74879562  1
  O  O355  1  0.25616622  0.12478819  0.25851801  1
  O  O356  1  0.25610117  0.11894804  0.75301282  1
  O  O357  1  0.25509906  0.62198965  0.25784841  1
  O  O358  1  0.25537898  0.61922552  0.75657048  1
  O  O359  1  0.75957487  0.12941072  0.26022106  1
  O  O360  1  0.75917748  0.12057479  0.74460213  1
  O  O361  1  0.74585566  0.62752919  0.26106797  1
  O  O362  1  0.75788109  0.61682209  0.75558745  1
  O  O363  1  0.36352953  0.11422099  0.38088608  1
  O  O364  1  0.36892410  0.12007650  0.86839693  1
  O  O365  1  0.36449106  0.62328088  0.37239538  1
  O  O366  1  0.36387643  0.63007160  0.86878212  1
  O  O367  1  0.86914572  0.11935087  0.37177015  1
  O  O368  1  0.87895458  0.12525065  0.85927636  1
  O  O369  1  0.86387994  0.61444100  0.36828730  1
  O  O370  1  0.86772046  0.61490468  0.86716071  1
  O  O371  1  0.13200926  0.37815116  0.13762082  1
  O  O372  1  0.12856215  0.38712311  0.62928046  1
  O  O373  1  0.13737553  0.87865363  0.13261054  1
  O  O374  1  0.14345878  0.86794447  0.63325357  1
  O  O375  1  0.64285712  0.37293264  0.12036917  1
  O  O376  1  0.62903183  0.38667133  0.62602125  1
  O  O377  1  0.63682964  0.87516439  0.12083705  1
  O  O378  1  0.61516001  0.88926789  0.64405664  1
  O  O379  1  0.11719667  0.25507883  0.24799813  1
  O  O380  1  0.11905830  0.26308570  0.74165214  1
  O  O381  1  0.11928895  0.75719183  0.24979942  1
  O  O382  1  0.13235557  0.75855636  0.76142727  1
  O  O383  1  0.61733003  0.25384831  0.25890944  1
  O  O384  1  0.61903482  0.25170971  0.75489211  1
  O  O385  1  0.61113737  0.74400152  0.26034596  1
  O  O386  1  0.61468511  0.75850726  0.74585776  1
  O  O387  1  0.38632962  0.24646486  0.24773253  1
  O  O388  1  0.38121690  0.24760700  0.74140198  1
  O  O389  1  0.38715765  0.74130380  0.25679485  1
  O  O390  1  0.38486059  0.74545143  0.74524726  1
  O  O391  1  0.88263289  0.23684399  0.24678588  1
  O  O392  1  0.88164177  0.24735565  0.74282902  1
  O  O393  1  0.88265484  0.74441204  0.24351085  1
  O  O394  1  0.87191950  0.73571753  0.75267233  1
  O  O395  1  0.36855204  0.48483274  0.50141720  1
  O  O396  1  0.37302985  0.48128414  0.99935501  1
  O  O397  1  0.38220267  0.99574729  0.49927491  1
  O  O398  1  0.37949612  1.00132479  0.99730217  1
  O  O399  1  0.88880195  0.51113124  0.49338794  1
  O  O400  1  0.88145836  0.49370609  0.99339337  1
  O  O401  1  0.88493247  1.01100296  0.49258896  1
  O  O402  1  0.88536935  1.02302734  1.00992116  1
  O  O403  1  0.13388149  -0.00320456  0.01509087  1
  O  O404  1  0.11738981  0.01132030  0.49847526  1
  O  O405  1  0.11874765  0.49906055  0.00439669  1
  O  O406  1  0.12280110  0.50527860  0.50725920  1
  O  O407  1  0.63082460  0.01545160  -0.00190985  1
  O  O408  1  0.61651086  0.01274339  0.50685232  1
  O  O409  1  0.62657150  0.51197805  -0.00024611  1
  O  O410  1  0.62423660  0.50508508  0.51058387  1
  O  O411  1  0.36391093  0.37703506  0.12203606  1
  O  O412  1  0.37407097  0.36490375  0.61816995  1
  O  O413  1  0.36288185  0.88116854  0.11417099  1
  O  O414  1  0.37017582  0.87061917  0.61839990  1
  O  O415  1  0.86743665  0.36839247  0.11836640  1
  O  O416  1  0.87749873  0.36343513  0.62615218  1
  O  O417  1  0.85748544  0.85563736  0.12696278  1
  O  O418  1  0.87078050  0.88067829  0.61881646  1
  O  O419  1  0.13784472  0.11921469  0.38276253  1
  O  O420  1  0.13746836  0.12260278  0.86359626  1
  O  O421  1  0.13789036  0.62464733  0.38153999  1
  O  O422  1  0.13573765  0.63148159  0.87910400  1
  O  O423  1  0.62760460  0.13806899  0.38638921  1
  O  O424  1  0.61767500  0.14048465  0.88372464  1
  O  O425  1  0.62591968  0.62231189  0.37796174  1
  O  O426  1  0.63908068  0.62140795  0.87673412  1
