# generated using pymatgen
data_V85Zn86O256
_symmetry_space_group_name_H-M   'P 1'
_cell_length_a   16.93883025
_cell_length_b   16.93667528
_cell_length_c   16.93211627
_cell_angle_alpha   89.96874337
_cell_angle_beta   90.03957100
_cell_angle_gamma   90.01767142
_symmetry_Int_Tables_number   1
_chemical_formula_structural   V85Zn86O256
_chemical_formula_sum   'V85 Zn86 O256'
_cell_volume   4857.60984423
_cell_formula_units_Z   1
loop_
 _symmetry_equiv_pos_site_id
 _symmetry_equiv_pos_as_xyz
  1  'x, y, z'
loop_
 _atom_site_type_symbol
 _atom_site_label
 _atom_site_symmetry_multiplicity
 _atom_site_fract_x
 _atom_site_fract_y
 _atom_site_fract_z
 _atom_site_occupancy
  V  V0  1  0.12358409  0.49938217  0.12600740  1
  V  V1  1  0.75084466  0.37203960  0.62167183  1
  V  V2  1  -0.00151686  0.74521644  0.73586597  1
  V  V3  1  0.12432353  0.25590324  0.87323771  1
  V  V4  1  -0.00153644  0.12743838  0.12520442  1
  V  V5  1  0.49927618  0.24809067  0.75443259  1
  V  V6  1  0.37838981  -0.00598421  0.88092680  1
  V  V7  1  0.74637404  0.50157285  0.24891607  1
  V  V8  1  0.12747476  0.87224454  0.74899776  1
  V  V9  1  0.49914712  0.12933184  0.62426177  1
  V  V10  1  0.62467889  0.24952528  0.37294004  1
  V  V11  1  0.87074558  0.37448599  0.00021720  1
  V  V12  1  0.37174333  0.01088929  0.36955621  1
  V  V13  1  0.49890087  0.62403586  0.62247089  1
  V  V14  1  0.50163818  -0.00160046  0.49806390  1
  V  V15  1  -0.00701484  0.63205189  0.12344727  1
  V  V16  1  0.87701617  0.12462673  0.74790141  1
  V  V17  1  0.37699783  0.39355870  -0.00714966  1
  V  V18  1  0.87270752  0.85505983  0.00175352  1
  V  V19  1  0.50724155  0.74896472  0.75267568  1
  V  V20  1  0.74987933  -0.00020889  0.74828343  1
  V  V21  1  0.87554035  -0.00034771  0.87860658  1
  V  V22  1  0.38239059  0.86812261  0.01831405  1
  V  V23  1  0.87598533  0.86917620  0.50775791  1
  V  V24  1  0.49524838  0.62862746  0.12090979  1
  V  V25  1  0.62658095  -0.00394188  0.62408020  1
  V  V26  1  0.00002256  0.37678795  0.87129734  1
  V  V27  1  0.00294729  0.25655162  0.74661676  1
  V  V28  1  0.63550781  0.87606988  0.25409054  1
  V  V29  1  0.74662601  0.63898907  0.87602429  1
  V  V30  1  0.12842783  0.00055568  0.62526870  1
  V  V31  1  0.11750718  0.50461771  0.63152543  1
  V  V32  1  0.37534035  0.61951623  0.75452634  1
  V  V33  1  0.36923056  0.74815724  0.62432239  1
  V  V34  1  0.24697952  0.62886604  0.39011448  1
  V  V35  1  0.37275284  0.63584002  0.24884135  1
  V  V36  1  0.87147952  0.25217636  0.13050324  1
  V  V37  1  0.13027454  0.25554964  0.38280806  1
  V  V38  1  -0.00116286  0.50032074  -0.00042733  1
  V  V39  1  0.87671232  0.49720038  0.37357027  1
  V  V40  1  0.87185913  0.50193441  0.87355422  1
  V  V41  1  0.25150202  0.12414673  0.87811643  1
  V  V42  1  0.12073604  0.12842838  0.00087320  1
  V  V43  1  0.25719891  0.75211684  0.01588161  1
  V  V44  1  0.74501895  0.74950242  0.50495546  1
  V  V45  1  0.48365662  0.24788617  0.24762052  1
  V  V46  1  0.49343089  0.38620277  0.87648999  1
  V  V47  1  0.24916572  0.50182684  0.25246011  1
  V  V48  1  0.62285847  0.49875805  0.62079128  1
  V  V49  1  0.37537753  0.11960239  0.74795725  1
  V  V50  1  0.25658977  0.37184686  0.12694708  1
  V  V51  1  0.87200739  -0.00255925  0.37644919  1
  V  V52  1  0.62130279  0.37663402  0.24900518  1
  V  V53  1  0.49955549  0.13016521  0.12809463  1
  V  V54  1  0.11539372  0.37446277  0.25251665  1
  V  V55  1  0.00223778  0.12658198  0.62091009  1
  V  V56  1  0.87136163  0.63309542  0.24686506  1
  V  V57  1  0.12560608  0.62680646  0.00182647  1
  V  V58  1  0.50945420  0.86844443  0.87757091  1
  V  V59  1  0.00096834  0.87297744  0.37233504  1
  V  V60  1  0.25482388  0.62539574  0.87752060  1
  V  V61  1  0.37371812  0.49890436  0.38006225  1
  V  V62  1  0.88407729  0.37418642  0.49637481  1
  V  V63  1  0.14159268  0.12679098  0.49503696  1
  V  V64  1  0.61976574  0.50089263  0.11288546  1
  V  V65  1  0.12836354  0.75431036  0.87397236  1
  V  V66  1  0.74917830  0.12260751  0.37069684  1
  V  V67  1  0.74344769  0.12710292  0.88139249  1
  V  V68  1  0.87595970  0.62773790  0.73723525  1
  V  V69  1  0.51076361  0.00827188  0.00296338  1
  V  V70  1  0.50496443  0.86291714  0.37480360  1
  V  V71  1  0.87324234  0.11268493  0.24916649  1
  V  V72  1  0.36961931  0.35860351  0.50744478  1
  V  V73  1  0.74018719  0.63069654  0.37322261  1
  V  V74  1  0.12940838  0.74803239  0.38588534  1
  V  V75  1  0.26031578  0.25234272  -0.00014398  1
  V  V76  1  0.75042840  0.49981550  0.75102719  1
  V  V77  1  0.25051650  0.87326465  0.62098593  1
  V  V78  1  0.37320568  0.87031545  0.49648125  1
  V  V79  1  0.24690588  0.49607910  0.75316333  1
  V  V80  1  0.75564214  0.86943992  0.12504750  1
  V  V81  1  0.00562152  0.51617321  0.49757522  1
  V  V82  1  0.62261567  0.37186074  0.75042943  1
  V  V83  1  0.00045595  0.87327998  0.87215139  1
  V  V84  1  0.62379916  0.64094644  -0.00493828  1
  Zn  Zn85  1  0.00024622  -0.00117507  -0.00249241  1
  Zn  Zn86  1  0.00212527  0.74848229  0.25023743  1
  Zn  Zn87  1  0.49636200  0.37468876  0.37658377  1
  Zn  Zn88  1  0.49733898  0.49656460  0.49884195  1
  Zn  Zn89  1  0.63706765  0.00683133  0.12985251  1
  Zn  Zn90  1  0.74463346  0.37529758  0.12295414  1
  Zn  Zn91  1  0.61856517  0.24798149  0.88640075  1
  Zn  Zn92  1  -0.00345959  0.25225877  0.25994643  1
  Zn  Zn93  1  0.75545899  0.86945103  0.62893721  1
  Zn  Zn94  1  0.24584005  0.00592650  0.25874641  1
  Zn  Zn95  1  0.50434939  0.74992518  0.24867498  1
  Zn  Zn96  1  0.12960949  -0.00012088  0.13359137  1
  Zn  Zn97  1  0.13968330  0.87147810  0.23949084  1
  Zn  Zn98  1  0.25070973  -0.00527895  0.75634535  1
  Zn  Zn99  1  0.63067510  0.86776330  0.75361754  1
  Zn  Zn100  1  0.87523747  0.24926102  0.62098012  1
  Zn  Zn101  1  0.75176797  0.25031175  0.49699202  1
  Zn  Zn102  1  0.23980957  0.36537346  0.61751913  1
  Zn  Zn103  1  0.62763328  0.12565872  0.49874797  1
  Zn  Zn104  1  0.61843513  0.62930109  0.49302778  1
  Zn  Zn105  1  0.74305476  0.24302186  0.00816044  1
  Zn  Zn106  1  0.00135209  0.00044753  0.49928817  1
  Zn  Zn107  1  0.18813022  0.18891019  0.19508327  1
  Zn  Zn108  1  0.18831840  0.18753321  0.68572605  1
  Zn  Zn109  1  0.18220252  0.68817170  0.19558010  1
  Zn  Zn110  1  0.18615634  0.68291767  0.68349415  1
  Zn  Zn111  1  0.68359896  0.18548777  0.18792134  1
  Zn  Zn112  1  0.68477317  0.18564078  0.68868872  1
  Zn  Zn113  1  0.68501736  0.69382487  0.18440142  1
  Zn  Zn114  1  0.68950474  0.68421585  0.68382775  1
  Zn  Zn115  1  0.30465154  0.31380345  0.31980355  1
  Zn  Zn116  1  0.29709711  0.29503229  0.78137922  1
  Zn  Zn117  1  0.30834566  0.81914028  0.30833962  1
  Zn  Zn118  1  0.31685281  0.81026091  0.81365439  1
  Zn  Zn119  1  0.80925973  0.31311956  0.31111313  1
  Zn  Zn120  1  0.81453806  0.31070691  0.80957541  1
  Zn  Zn121  1  0.80972181  0.81254436  0.31641632  1
  Zn  Zn122  1  0.81666556  0.81204591  0.81006766  1
  Zn  Zn123  1  0.18746467  0.43757680  0.44068462  1
  Zn  Zn124  1  0.18889798  0.43783609  0.93554673  1
  Zn  Zn125  1  0.18823447  0.93729781  0.43515939  1
  Zn  Zn126  1  0.21814735  0.96299321  0.98213049  1
  Zn  Zn127  1  0.68849105  0.43716722  0.43629725  1
  Zn  Zn128  1  0.68491707  0.43515980  0.93469222  1
  Zn  Zn129  1  0.68934084  0.93577005  0.43611009  1
  Zn  Zn130  1  0.69173229  0.93235462  0.93909874  1
  Zn  Zn131  1  0.29952194  0.08305042  0.10626219  1
  Zn  Zn132  1  0.31621598  0.05784292  0.56294869  1
  Zn  Zn133  1  0.31123151  0.56315956  0.06585143  1
  Zn  Zn134  1  0.30750799  0.55577836  0.56757924  1
  Zn  Zn135  1  0.81316763  0.05632192  0.06471068  1
  Zn  Zn136  1  0.81288854  0.06259192  0.55815379  1
  Zn  Zn137  1  0.80620776  0.56501961  0.06108389  1
  Zn  Zn138  1  0.81035857  0.56062189  0.55783479  1
  Zn  Zn139  1  0.43655096  0.44103438  0.18727854  1
  Zn  Zn140  1  0.43377252  0.43659400  0.68780396  1
  Zn  Zn141  1  0.44521222  0.94052882  0.19181076  1
  Zn  Zn142  1  0.44013363  0.93588231  0.68874142  1
  Zn  Zn143  1  0.93536541  0.44241213  0.18625311  1
  Zn  Zn144  1  0.93838781  0.44019378  0.68331064  1
  Zn  Zn145  1  0.96627791  0.92110801  0.16905140  1
  Zn  Zn146  1  0.94114649  0.93890783  0.68769746  1
  Zn  Zn147  1  0.06135538  0.06297495  0.31305506  1
  Zn  Zn148  1  0.06444964  0.06329828  0.81172548  1
  Zn  Zn149  1  0.06138852  0.56514962  0.31464107  1
  Zn  Zn150  1  0.06296033  0.56629426  0.81242314  1
  Zn  Zn151  1  0.55965339  0.06101299  0.30923325  1
  Zn  Zn152  1  0.56413694  0.05773235  0.81317643  1
  Zn  Zn153  1  0.55720512  0.56131749  0.30868739  1
  Zn  Zn154  1  0.56495633  0.56255573  0.81153555  1
  Zn  Zn155  1  0.44084872  0.18810487  0.43734770  1
  Zn  Zn156  1  0.43786744  0.18649845  0.93901467  1
  Zn  Zn157  1  0.43177574  0.68624208  0.43840590  1
  Zn  Zn158  1  0.44070362  0.68575825  0.93900801  1
  Zn  Zn159  1  0.94238376  0.19005241  0.43564078  1
  Zn  Zn160  1  0.93207696  0.19088539  0.93685484  1
  Zn  Zn161  1  0.93131846  0.68938644  0.43472140  1
  Zn  Zn162  1  0.94038628  0.68372595  0.92712586  1
  Zn  Zn163  1  0.06127991  0.31194807  0.06340527  1
  Zn  Zn164  1  0.06440006  0.31723233  0.56051575  1
  Zn  Zn165  1  0.06395657  0.81318050  0.05807683  1
  Zn  Zn166  1  0.06330283  0.81158112  0.55788793  1
  Zn  Zn167  1  0.55894888  0.31247328  0.06153277  1
  Zn  Zn168  1  0.55758454  0.31188163  0.55920759  1
  Zn  Zn169  1  0.56671313  0.81376247  0.07055740  1
  Zn  Zn170  1  0.56366816  0.81165363  0.56403355  1
  O  O171  1  0.11261976  0.13163387  0.11592186  1
  O  O172  1  0.12124872  0.12259880  0.61807389  1
  O  O173  1  0.11713552  0.61847605  0.12040747  1
  O  O174  1  0.13517838  0.60462740  0.61862767  1
  O  O175  1  0.61196796  0.12132618  0.12785459  1
  O  O176  1  0.61867599  0.11266977  0.62368412  1
  O  O177  1  0.62196433  0.62066729  0.11293684  1
  O  O178  1  0.61601415  0.61570832  0.62254247  1
  O  O179  1  0.37243159  0.38235117  0.38472826  1
  O  O180  1  0.37988319  0.37319521  0.88840165  1
  O  O181  1  0.38462257  0.87839314  0.38415569  1
  O  O182  1  0.38802820  0.88301414  0.87363533  1
  O  O183  1  0.86771488  0.38838188  0.38073837  1
  O  O184  1  0.87840494  0.38016190  0.88141760  1
  O  O185  1  0.87694516  0.88154084  0.38563816  1
  O  O186  1  0.87757357  0.88102744  0.88228865  1
  O  O187  1  0.26767634  -0.00015011  0.38039414  1
  O  O188  1  0.26227330  0.00555772  0.88156439  1
  O  O189  1  0.25242075  0.50863659  0.37113092  1
  O  O190  1  0.23695141  0.52105751  0.87241008  1
  O  O191  1  0.76271800  0.00670493  0.37838141  1
  O  O192  1  0.75534022  0.00742475  0.86846823  1
  O  O193  1  0.75593352  0.50740797  0.36928036  1
  O  O194  1  0.75318534  0.50461592  0.86686138  1
  O  O195  1  0.24221297  0.49232100  0.13055021  1
  O  O196  1  0.24176199  0.49216840  0.63740083  1
  O  O197  1  0.23605376  0.99291163  0.09018632  1
  O  O198  1  0.24639623  0.99006563  0.62968563  1
  O  O199  1  0.73877067  0.49965034  0.13276730  1
  O  O200  1  0.74276561  0.48922340  0.62783733  1
  O  O201  1  0.75022527  0.98324699  0.12012399  1
  O  O202  1  0.74362321  1.00024977  0.63146648  1
  O  O203  1  0.01242621  0.37723552  0.24483932  1
  O  O204  1  -0.00694507  0.36698764  0.75605909  1
  O  O205  1  -0.01636806  0.86772651  0.26929315  1
  O  O206  1  0.00636996  0.86680190  0.75355415  1
  O  O207  1  0.50690421  0.36726655  0.25102386  1
  O  O208  1  0.49929494  0.36440080  0.75375771  1
  O  O209  1  0.50774567  0.86984665  0.25967889  1
  O  O210  1  0.50221240  0.86534427  0.75752514  1
  O  O211  1  0.49763744  0.13889159  0.24477898  1
  O  O212  1  0.49740593  0.12663158  0.74505601  1
  O  O213  1  0.49059466  0.62890158  0.24351816  1
  O  O214  1  0.49465661  0.62837678  0.74181196  1
  O  O215  1  0.99088511  0.12932714  0.24220146  1
  O  O216  1  0.99723333  0.13064704  0.73884345  1
  O  O217  1  0.98941104  0.62219156  0.24078988  1
  O  O218  1  0.98854976  0.63343748  0.75561783  1
  O  O219  1  0.36203479  0.25680358  -0.00623564  1
  O  O220  1  0.37652666  0.25950181  0.49913626  1
  O  O221  1  0.37295929  0.75909166  0.00057267  1
  O  O222  1  0.37915568  0.76225846  0.50926048  1
  O  O223  1  0.86863661  0.25874579  0.00845154  1
  O  O224  1  0.87422066  0.25965010  0.49961628  1
  O  O225  1  0.87783809  0.75703796  -0.00752505  1
  O  O226  1  0.86289437  0.75839535  0.49657723  1
  O  O227  1  0.12543013  0.24185155  0.49325737  1
  O  O228  1  0.12994046  0.24614128  0.99215961  1
  O  O229  1  0.12707490  0.75079551  0.48579099  1
  O  O230  1  0.13433913  0.74828192  0.99289968  1
  O  O231  1  0.62352039  0.24916953  0.48482570  1
  O  O232  1  0.63317957  0.26100952  0.99748890  1
  O  O233  1  0.63874885  0.74857662  0.50217225  1
  O  O234  1  0.62423317  0.73929573  0.99925598  1
  O  O235  1  0.50418586  0.24733247  0.14144169  1
  O  O236  1  0.50690668  0.23510657  0.63255149  1
  O  O237  1  0.50461210  0.73376621  0.12693689  1
  O  O238  1  0.49021414  0.74321464  0.62983364  1
  O  O239  1  0.98672816  0.24416921  0.12599942  1
  O  O240  1  1.00135682  0.24537506  0.63083679  1
  O  O241  1  1.00176051  0.73415262  0.12376658  1
  O  O242  1  1.00846067  0.75104932  0.63677397  1
  O  O243  1  0.01962966  0.24612920  0.37362798  1
  O  O244  1  0.00372580  0.25567822  0.86793885  1
  O  O245  1  0.00977510  0.75392402  0.37709655  1
  O  O246  1  0.01046919  0.75462198  0.86681852  1
  O  O247  1  0.50635568  0.25012180  0.36306746  1
  O  O248  1  0.50074828  0.25708758  0.86899003  1
  O  O249  1  0.49924812  0.76023021  0.37878460  1
  O  O250  1  0.49580941  0.75639159  0.86480305  1
  O  O251  1  0.23969136  0.12548420  0.50903560  1
  O  O252  1  0.24074749  0.13774715  0.99676020  1
  O  O253  1  0.25683441  0.62405819  0.48889910  1
  O  O254  1  0.24711914  0.63310414  0.99535302  1
  O  O255  1  0.74855685  0.12854722  0.48669017  1
  O  O256  1  0.75766630  0.12348004  0.98407745  1
  O  O257  1  0.74782757  0.63402018  0.49278128  1
  O  O258  1  0.73526300  0.62201375  0.99032971  1
  O  O259  1  0.25878803  0.37288803  0.00369320  1
  O  O260  1  0.26349690  0.37500279  0.50040492  1
  O  O261  1  0.27528666  0.86293952  -0.00758263  1
  O  O262  1  0.25900293  0.87892494  0.51217182  1
  O  O263  1  0.76266317  0.37820334  0.00067249  1
  O  O264  1  0.75907103  0.37507588  0.50704022  1
  O  O265  1  0.76648843  0.87359174  0.00247753  1
  O  O266  1  0.75538766  0.86393200  0.50140534  1
  O  O267  1  0.12942953  0.49414605  0.24770701  1
  O  O268  1  0.12862677  0.50531645  0.74018286  1
  O  O269  1  0.12624387  0.99662967  0.25133822  1
  O  O270  1  0.12790836  0.99096446  0.74462000  1
  O  O271  1  0.62716334  0.49285805  0.24373196  1
  O  O272  1  0.62976268  0.49412399  0.73756452  1
  O  O273  1  0.61633631  0.98210662  0.24791046  1
  O  O274  1  0.63400367  0.99718008  0.74240340  1
  O  O275  1  0.38475894  -0.00056939  0.26854045  1
  O  O276  1  0.37836911  0.00525217  0.76058555  1
  O  O277  1  0.36786156  0.50420726  0.26230916  1
  O  O278  1  0.36663619  0.51385996  0.74412319  1
  O  O279  1  0.87975501  0.01102814  0.25701636  1
  O  O280  1  0.86916123  0.00284583  0.75783108  1
  O  O281  1  0.86753657  0.50532828  0.25701539  1
  O  O282  1  0.87016027  0.50552890  0.75490249  1
  O  O283  1  0.13048777  0.36528878  0.36839614  1
  O  O284  1  0.11724117  0.36327784  0.88158823  1
  O  O285  1  0.11668338  0.86617204  0.37715745  1
  O  O286  1  0.12278543  0.86253150  0.86905603  1
  O  O287  1  0.62194577  0.36912852  0.36755094  1
  O  O288  1  0.61559204  0.37454062  0.86475012  1
  O  O289  1  0.61929960  0.87897277  0.36543073  1
  O  O290  1  0.61401220  0.87722209  0.87265357  1
  O  O291  1  0.40100471  0.12966467  0.10117254  1
  O  O292  1  0.38649179  0.11384263  0.63633450  1
  O  O293  1  0.38287729  0.61751110  0.13541578  1
  O  O294  1  0.37944959  0.63055486  0.63009409  1
  O  O295  1  0.87520605  0.13272014  0.13210841  1
  O  O296  1  0.88386926  0.12560688  0.62885474  1
  O  O297  1  0.88055922  0.61615669  0.13368209  1
  O  O298  1  0.86712027  0.61819431  0.63845981  1
  O  O299  1  0.24217322  0.26593041  0.11377501  1
  O  O300  1  0.25856895  0.27038472  0.67403847  1
  O  O301  1  0.24341962  0.74500174  0.11421187  1
  O  O302  1  0.26251783  0.75480770  0.63076636  1
  O  O303  1  0.76009603  0.25267635  0.12786709  1
  O  O304  1  0.74886736  0.26054314  0.62366935  1
  O  O305  1  0.75154560  0.76714516  0.12660330  1
  O  O306  1  0.75057465  0.75015867  0.61134636  1
  O  O307  1  0.23002804  0.24119349  0.36581929  1
  O  O308  1  0.24132764  0.24493708  0.87780586  1
  O  O309  1  0.23819778  0.74411891  0.37220039  1
  O  O310  1  0.24525856  0.74247937  0.87933285  1
  O  O311  1  0.74151830  0.24301287  0.37506494  1
  O  O312  1  0.75276922  0.23292047  0.87065910  1
  O  O313  1  0.75260268  0.73980803  0.38673738  1
  O  O314  1  0.74872205  0.73817250  0.86650818  1
  O  O315  1  0.00455368  0.13267204  0.00539824  1
  O  O316  1  0.00619175  0.12563664  0.51264515  1
  O  O317  1  0.00380022  0.61999407  0.00404483  1
  O  O318  1  -0.00841736  0.61395159  0.50026683  1
  O  O319  1  0.50780275  0.11082852  -0.00445024  1
  O  O320  1  0.50306337  0.11675953  0.50825939  1
  O  O321  1  0.51295159  0.62425420  0.00462320  1
  O  O322  1  0.49910151  0.62350339  0.51130181  1
  O  O323  1  0.48608746  0.37660782  0.49682362  1
  O  O324  1  0.48435236  0.37496929  0.99394633  1
  O  O325  1  0.49572394  0.88045258  0.49639474  1
  O  O326  1  0.49592132  0.87352044  0.99522298  1
  O  O327  1  0.98657559  0.38620986  0.50396042  1
  O  O328  1  0.98856902  0.37887052  0.99472686  1
  O  O329  1  0.99233243  0.87537990  0.49094457  1
  O  O330  1  0.98804878  0.87532075  0.98925374  1
  O  O331  1  0.48834652  0.49809091  0.37678086  1
  O  O332  1  0.49862889  0.48535541  0.86319586  1
  O  O333  1  0.49605637  0.99331450  0.38705152  1
  O  O334  1  0.49803409  0.99264753  0.88462092  1
  O  O335  1  0.99107179  0.50504457  0.38619625  1
  O  O336  1  0.99477538  0.49644482  0.88012080  1
  O  O337  1  0.98891873  0.99329129  0.37836009  1
  O  O338  1  0.99108104  0.99265393  0.86992723  1
  O  O339  1  -0.00694143  0.02097390  0.11651289  1
  O  O340  1  0.01016346  0.00908497  0.62419155  1
  O  O341  1  0.00447684  0.50734379  0.11720045  1
  O  O342  1  0.00890575  0.50209160  0.61543299  1
  O  O343  1  0.50345375  0.00593096  0.11367098  1
  O  O344  1  0.50662953  0.00374396  0.61651741  1
  O  O345  1  0.51043311  0.51364468  0.13259494  1
  O  O346  1  0.50609691  0.50726833  0.62539930  1
  O  O347  1  0.24291669  0.38100324  0.24197926  1
  O  O348  1  0.25289363  0.39980565  0.77811430  1
  O  O349  1  0.25162251  0.89028956  0.24786377  1
  O  O350  1  0.24699704  0.87330025  0.74051006  1
  O  O351  1  0.73630590  0.38126447  0.24831769  1
  O  O352  1  0.74532372  0.37852512  0.74233269  1
  O  O353  1  0.74302640  0.87545962  0.24693919  1
  O  O354  1  0.75121051  0.88603762  0.74876985  1
  O  O355  1  0.26166885  0.10951146  0.21248991  1
  O  O356  1  0.26016995  0.11765515  0.75988628  1
  O  O357  1  0.25636636  0.61843460  0.25460518  1
  O  O358  1  0.25750960  0.62143287  0.75802188  1
  O  O359  1  0.75793839  0.12914379  0.26221328  1
  O  O360  1  0.75583455  0.11523004  0.75483668  1
  O  O361  1  0.75267128  0.62276611  0.25455224  1
  O  O362  1  0.75355963  0.61883297  0.75622371  1
  O  O363  1  0.38057469  0.10865933  0.38354791  1
  O  O364  1  0.37467607  0.11115457  0.87266175  1
  O  O365  1  0.36705315  0.61899532  0.36895234  1
  O  O366  1  0.36740553  0.63034280  0.86683126  1
  O  O367  1  0.87073877  0.11891460  0.37021085  1
  O  O368  1  0.86933963  0.11764927  0.86676812  1
  O  O369  1  0.86457290  0.61463441  0.36724933  1
  O  O370  1  0.86430972  0.61838512  0.86870326  1
  O  O371  1  0.13028381  0.38077390  0.13115472  1
  O  O372  1  0.12630835  0.39470359  0.61652096  1
  O  O373  1  0.08060791  0.88920482  0.13750955  1
  O  O374  1  0.13389585  0.87822601  0.62631380  1
  O  O375  1  0.62216708  0.38459030  0.13243740  1
  O  O376  1  0.62890773  0.37917119  0.62855257  1
  O  O377  1  0.63507882  0.87895753  0.13527735  1
  O  O378  1  0.62729107  0.88623286  0.62827171  1
  O  O379  1  0.12065685  0.25904230  0.25642519  1
  O  O380  1  0.10967299  0.24396554  0.75961307  1
  O  O381  1  0.11929176  0.75580026  0.26119916  1
  O  O382  1  0.12208604  0.75160197  0.75543985  1
  O  O383  1  0.62111355  0.25893235  0.25879231  1
  O  O384  1  0.61384919  0.25302183  0.75388817  1
  O  O385  1  0.62325934  0.76797203  0.24868724  1
  O  O386  1  0.61153286  0.74858738  0.74072551  1
  O  O387  1  0.38622678  0.25989932  0.25469208  1
  O  O388  1  0.39072132  0.22971147  0.76026366  1
  O  O389  1  0.37569162  0.73774179  0.25747694  1
  O  O390  1  0.38409991  0.73988287  0.74301744  1
  O  O391  1  0.87708865  0.24503851  0.24492676  1
  O  O392  1  0.88623089  0.24271049  0.74637677  1
  O  O393  1  0.87669944  0.73531659  0.25768713  1
  O  O394  1  0.88582110  0.74130896  0.75145743  1
  O  O395  1  0.37361869  0.49914995  0.48885691  1
  O  O396  1  0.36845445  0.49232843  0.99406218  1
  O  O397  1  0.38451641  0.98808784  0.49713836  1
  O  O398  1  0.39229982  0.98173070  0.99326384  1
  O  O399  1  0.88151762  0.49594302  0.49245925  1
  O  O400  1  0.87877194  0.49467771  0.99443805  1
  O  O401  1  0.87769776  0.99224939  0.49241501  1
  O  O402  1  0.87822792  0.99844996  0.98519353  1
  O  O403  1  0.11539324  0.02159443  -0.01141987  1
  O  O404  1  0.12498940  0.01199321  0.50495767  1
  O  O405  1  0.11948615  0.50649087  0.00465500  1
  O  O406  1  0.10937530  0.50064025  0.50102293  1
  O  O407  1  0.61176903  -0.01026217  0.00112659  1
  O  O408  1  0.61870884  0.00004087  0.50610400  1
  O  O409  1  0.62693271  0.50091188  0.01086908  1
  O  O410  1  0.62269174  0.49997018  0.51104502  1
  O  O411  1  0.36604012  0.38374612  0.11244830  1
  O  O412  1  0.37355064  0.37931490  0.60924648  1
  O  O413  1  0.38708912  0.87271781  0.11639895  1
  O  O414  1  0.37018019  0.86829490  0.62111690  1
  O  O415  1  0.87327330  0.36940309  0.11865464  1
  O  O416  1  0.86617127  0.37486716  0.61660402  1
  O  O417  1  0.87630949  0.87588630  0.10742217  1
  O  O418  1  0.87543800  0.88230155  0.61184150  1
  O  O419  1  0.12266730  0.12947501  0.39146353  1
  O  O420  1  0.12773424  0.13718873  0.87935889  1
  O  O421  1  0.13272043  0.63764326  0.37090821  1
  O  O422  1  0.12904730  0.63776765  0.88224064  1
  O  O423  1  0.63196232  0.13044506  0.37219682  1
  O  O424  1  0.64086503  0.12426296  0.86983674  1
  O  O425  1  0.63594344  0.61652272  0.37498670  1
  O  O426  1  0.62962220  0.62047056  0.88716270  1
