# generated using pymatgen
data_V85Zn86O256
_symmetry_space_group_name_H-M   'P 1'
_cell_length_a   16.93302138
_cell_length_b   16.93157822
_cell_length_c   16.93060979
_cell_angle_alpha   89.97332079
_cell_angle_beta   90.07864940
_cell_angle_gamma   90.04328444
_symmetry_Int_Tables_number   1
_chemical_formula_structural   V85Zn86O256
_chemical_formula_sum   'V85 Zn86 O256'
_cell_volume   4854.04634396
_cell_formula_units_Z   1
loop_
 _symmetry_equiv_pos_site_id
 _symmetry_equiv_pos_as_xyz
  1  'x, y, z'
loop_
 _atom_site_type_symbol
 _atom_site_label
 _atom_site_symmetry_multiplicity
 _atom_site_fract_x
 _atom_site_fract_y
 _atom_site_fract_z
 _atom_site_occupancy
  V  V0  1  0.62005381  0.75307409  0.87623731  1
  V  V1  1  0.12642748  -0.00111295  0.62733623  1
  V  V2  1  0.63174632  0.00285818  0.62858337  1
  V  V3  1  0.13214289  0.00632541  0.12314453  1
  V  V4  1  0.00168110  0.37565372  0.36975156  1
  V  V5  1  0.50459991  0.50844599  0.49871610  1
  V  V6  1  0.50296294  0.87269993  0.37439792  1
  V  V7  1  -0.00554029  0.24577642  0.24933910  1
  V  V8  1  -0.00283761  0.12410120  0.12335246  1
  V  V9  1  0.87062761  0.11610412  0.75157139  1
  V  V10  1  0.24666286  0.62786758  0.37113285  1
  V  V11  1  0.00213995  0.24608808  0.75047825  1
  V  V12  1  0.25163226  0.37528561  0.62455874  1
  V  V13  1  0.61708653  0.37310632  0.24653392  1
  V  V14  1  0.87266764  0.88573586  0.50340695  1
  V  V15  1  0.37443117  0.87597820  0.49982595  1
  V  V16  1  0.12688113  0.25270458  0.36665934  1
  V  V17  1  0.12261548  0.87061764  0.75724336  1
  V  V18  1  0.86973970  0.24629941  0.12650404  1
  V  V19  1  0.75024867  0.37780319  0.63023599  1
  V  V20  1  0.87542808  0.37341979  0.50033830  1
  V  V21  1  0.23247607  0.49134215  0.24640856  1
  V  V22  1  0.49990835  0.36851459  0.88190045  1
  V  V23  1  0.24796256  0.87748163  0.62618797  1
  V  V24  1  0.75366748  0.01421727  0.25230037  1
  V  V25  1  0.12992726  0.88365444  0.24909826  1
  V  V26  1  0.12959875  0.23428296  0.88459998  1
  V  V27  1  0.00334640  0.61612530  0.12909691  1
  V  V28  1  0.25323690  0.50181564  0.75377995  1
  V  V29  1  0.24588346  0.36983709  0.11136484  1
  V  V30  1  0.62427605  0.87935413  0.75480667  1
  V  V31  1  0.37485114  0.50231302  0.37295613  1
  V  V32  1  0.50060137  0.00254964  0.49763345  1
  V  V33  1  -0.00142465  0.11975332  0.62112605  1
  V  V34  1  0.36881076  0.62567642  0.24895003  1
  V  V35  1  0.74717373  0.50395647  0.25013380  1
  V  V36  1  0.74996248  0.24716422  0.49698487  1
  V  V37  1  0.50105097  0.12584971  0.62156279  1
  V  V38  1  0.85792560  0.72193106  0.60205122  1
  V  V39  1  0.26287618  0.23036147  -0.00270699  1
  V  V40  1  0.87462412  0.01548450  0.37415233  1
  V  V41  1  0.12916338  0.37144899  0.75225225  1
  V  V42  1  0.37582166  0.37671703  0.49701551  1
  V  V43  1  0.24879098  0.24884329  0.49542756  1
  V  V44  1  0.12785970  0.49848875  0.62374125  1
  V  V45  1  0.36940781  -0.00263679  0.36140122  1
  V  V46  1  0.00484217  0.37765559  0.87679865  1
  V  V47  1  0.87518081  0.87504701  -0.00397283  1
  V  V48  1  0.74677127  0.74895556  -0.00037996  1
  V  V49  1  0.87639942  0.37390271  0.00074067  1
  V  V50  1  0.12084015  0.75297902  0.37213142  1
  V  V51  1  0.49424646  0.75295286  0.75061816  1
  V  V52  1  0.37259479  0.49486971  0.87883072  1
  V  V53  1  0.75061793  0.87727040  0.12659525  1
  V  V54  1  -0.00294164  0.88205253  0.38170970  1
  V  V55  1  0.12249311  0.62584825  0.49883944  1
  V  V56  1  0.00487296  0.62369452  0.63011904  1
  V  V57  1  0.62447885  0.25070456  0.37203703  1
  V  V58  1  0.24840467  0.11928169  0.36183289  1
  V  V59  1  0.25445872  0.87809678  0.12285193  1
  V  V60  1  0.86872756  0.50402025  0.37550008  1
  V  V61  1  0.36541057  0.11755862  0.75185326  1
  V  V62  1  0.24968560  0.64451672  0.88010341  1
  V  V63  1  -0.00415247  0.74601422  0.75745919  1
  V  V64  1  0.62713522  0.12444718  0.49184218  1
  V  V65  1  0.49499159  0.49643941  0.00114122  1
  V  V66  1  0.49786812  0.13555814  0.13143447  1
  V  V67  1  0.49809899  0.62248217  0.12497489  1
  V  V68  1  0.50432181  0.24909487  0.75175062  1
  V  V69  1  0.74733079  0.61621126  0.87038212  1
  V  V70  1  0.75399593  0.87829808  0.63005630  1
  V  V71  1  0.87198462  0.74758394  0.12766072  1
  V  V72  1  0.62912683  0.87426575  0.25198051  1
  V  V73  1  0.63933854  0.73941455  0.38765686  1
  V  V74  1  0.50552119  -0.00266642  -0.00473106  1
  V  V75  1  0.74036620  0.12424841  0.87386165  1
  V  V76  1  0.62665109  0.50721431  0.62442057  1
  V  V77  1  0.62630126  0.37844530  0.75399099  1
  V  V78  1  0.00352392  0.00406212  -0.00268211  1
  V  V79  1  0.12211200  0.11916314  0.49683109  1
  V  V80  1  0.37374973  0.75117471  0.12234816  1
  V  V81  1  0.24765510  0.75079646  0.49886524  1
  V  V82  1  0.38119304  0.87206241  -0.00753717  1
  V  V83  1  -0.00461613  0.75434453  0.25278178  1
  V  V84  1  0.37624604  0.24857231  0.62222176  1
  Zn  Zn85  1  0.00703408  0.49670707  0.00727286  1
  Zn  Zn86  1  0.62010670  0.13715877  -0.00244042  1
  Zn  Zn87  1  0.87396832  0.61455932  0.75630159  1
  Zn  Zn88  1  0.86821051  0.49227858  0.87338671  1
  Zn  Zn89  1  0.62351649  0.62325393  0.00136698  1
  Zn  Zn90  1  0.62565857  0.00376034  0.12379864  1
  Zn  Zn91  1  0.74915322  0.37542316  0.12323564  1
  Zn  Zn92  1  0.49522461  0.37158558  0.36682524  1
  Zn  Zn93  1  0.87353414  -0.00305521  0.87160355  1
  Zn  Zn94  1  0.37652625  0.75020193  0.62535695  1
  Zn  Zn95  1  0.62595466  0.49958476  0.12406112  1
  Zn  Zn96  1  0.36737517  0.00710253  0.87771605  1
  Zn  Zn97  1  0.37797859  0.62619204  0.74867048  1
  Zn  Zn98  1  0.50333326  0.74753483  0.25291390  1
  Zn  Zn99  1  0.00177276  0.49851206  0.49921478  1
  Zn  Zn100  1  0.37357385  0.14652251  0.23918049  1
  Zn  Zn101  1  0.12872946  0.62775326  -0.00392500  1
  Zn  Zn102  1  0.87574708  0.24967275  0.62696939  1
  Zn  Zn103  1  0.00211382  0.86943705  0.87739728  1
  Zn  Zn104  1  0.74242745  0.25361369  -0.00873864  1
  Zn  Zn105  1  0.86482884  0.62937077  0.25634260  1
  Zn  Zn106  1  0.50132863  0.62940410  0.62360850  1
  Zn  Zn107  1  0.18425206  0.19152338  0.18093866  1
  Zn  Zn108  1  0.18703168  0.18770459  0.68564977  1
  Zn  Zn109  1  0.16741235  0.71050477  0.15221588  1
  Zn  Zn110  1  0.18969949  0.69067802  0.69143199  1
  Zn  Zn111  1  0.68120649  0.18967018  0.18270212  1
  Zn  Zn112  1  0.68883853  0.19049594  0.68769831  1
  Zn  Zn113  1  0.68399254  0.68790589  0.19181130  1
  Zn  Zn114  1  0.68569592  0.69087110  0.69015380  1
  Zn  Zn115  1  0.32265769  0.32253041  0.28315547  1
  Zn  Zn116  1  0.31564792  0.30743899  0.81659199  1
  Zn  Zn117  1  0.31092314  0.81295047  0.30686899  1
  Zn  Zn118  1  0.29643948  0.84663496  0.82816137  1
  Zn  Zn119  1  0.80832733  0.31552691  0.31072210  1
  Zn  Zn120  1  0.81482321  0.30829662  0.81217452  1
  Zn  Zn121  1  0.81056210  0.81755577  0.31748928  1
  Zn  Zn122  1  0.81206505  0.80515428  0.80774755  1
  Zn  Zn123  1  0.18796666  0.43827065  0.43237396  1
  Zn  Zn124  1  0.18285151  0.44102957  0.94285633  1
  Zn  Zn125  1  0.18589280  0.93997595  0.43841480  1
  Zn  Zn126  1  0.19169737  0.94196002  0.94133804  1
  Zn  Zn127  1  0.68674063  0.43650002  0.43690854  1
  Zn  Zn128  1  0.68117985  0.43267652  0.94253385  1
  Zn  Zn129  1  0.69226894  0.93599251  0.43804738  1
  Zn  Zn130  1  0.69103473  0.94247883  0.93336991  1
  Zn  Zn131  1  0.31936199  0.05965488  0.06460527  1
  Zn  Zn132  1  0.31096910  0.06205196  0.55871516  1
  Zn  Zn133  1  0.30765511  0.55751152  0.06208028  1
  Zn  Zn134  1  0.31455136  0.56730313  0.56345241  1
  Zn  Zn135  1  0.81185935  0.06368684  0.05883567  1
  Zn  Zn136  1  0.81230519  0.06368535  0.56171064  1
  Zn  Zn137  1  0.81338465  0.55979750  0.06001669  1
  Zn  Zn138  1  0.81574072  0.55558747  0.56652478  1
  Zn  Zn139  1  0.42750290  0.43171274  0.18244952  1
  Zn  Zn140  1  0.44029618  0.43790024  0.68731686  1
  Zn  Zn141  1  0.44431969  0.94245799  0.18354020  1
  Zn  Zn142  1  0.44231985  0.93669164  0.68572011  1
  Zn  Zn143  1  0.93257383  0.43182794  0.19294359  1
  Zn  Zn144  1  0.93704352  0.43987187  0.69308221  1
  Zn  Zn145  1  0.93670322  0.93977799  0.18826930  1
  Zn  Zn146  1  0.94347563  0.93828963  0.68732539  1
  Zn  Zn147  1  0.05842106  0.06443068  0.30792989  1
  Zn  Zn148  1  0.06121551  0.05682042  0.81085534  1
  Zn  Zn149  1  0.05382313  0.56741018  0.31182445  1
  Zn  Zn150  1  0.07143111  0.56308850  0.81749702  1
  Zn  Zn151  1  0.56327752  0.06122322  0.31098287  1
  Zn  Zn152  1  0.55683983  0.06010229  0.81137845  1
  Zn  Zn153  1  0.56156288  0.56169366  0.31191806  1
  Zn  Zn154  1  0.56277232  0.56305939  0.81187416  1
  Zn  Zn155  1  0.42259533  0.20300666  0.40581419  1
  Zn  Zn156  1  0.43999357  0.18263150  0.93635818  1
  Zn  Zn157  1  0.43931334  0.69039825  0.43680253  1
  Zn  Zn158  1  0.43466715  0.68521540  0.93599934  1
  Zn  Zn159  1  0.93878638  0.18964081  0.43870030  1
  Zn  Zn160  1  0.93558469  0.18752334  0.93682658  1
  Zn  Zn161  1  0.92183219  0.68519142  0.44710290  1
  Zn  Zn162  1  0.93496547  0.68431965  0.94166373  1
  Zn  Zn163  1  0.06830801  0.31149707  0.06369099  1
  Zn  Zn164  1  0.06304871  0.30885383  0.56019003  1
  Zn  Zn165  1  0.06163010  0.81174888  0.05959625  1
  Zn  Zn166  1  0.05540830  0.81032405  0.56329630  1
  Zn  Zn167  1  0.56288757  0.30974180  0.06169137  1
  Zn  Zn168  1  0.56246750  0.31617408  0.56116186  1
  Zn  Zn169  1  0.56153511  0.81213373  0.06616663  1
  Zn  Zn170  1  0.56611296  0.81301722  0.56340339  1
  O  O171  1  0.11236459  0.11620514  0.12881581  1
  O  O172  1  0.12065775  0.11824292  0.61851308  1
  O  O173  1  0.10226087  0.61551373  0.14636970  1
  O  O174  1  0.12177079  0.62015453  0.62083598  1
  O  O175  1  0.61396455  0.12245137  0.11999434  1
  O  O176  1  0.62172770  0.11971712  0.61760801  1
  O  O177  1  0.60859754  0.62318549  0.12780735  1
  O  O178  1  0.62948770  0.61106462  0.62803847  1
  O  O179  1  0.37447825  0.38714410  0.38133190  1
  O  O180  1  0.38536100  0.38693035  0.86675924  1
  O  O181  1  0.38067465  0.87890171  0.37908654  1
  O  O182  1  0.39174971  0.85914267  0.89356618  1
  O  O183  1  0.88143700  0.37982041  0.38210459  1
  O  O184  1  0.88704481  0.36822291  0.88301444  1
  O  O185  1  0.88028360  0.88527248  0.38268330  1
  O  O186  1  0.87281455  0.87265524  0.88554919  1
  O  O187  1  0.25544333  0.00664626  0.37530399  1
  O  O188  1  0.26836052  -0.04490298  0.86383076  1
  O  O189  1  0.25591676  0.51072531  0.37019854  1
  O  O190  1  0.25729418  0.49768178  0.86740392  1
  O  O191  1  0.76191265  -0.00263350  0.36335753  1
  O  O192  1  0.75762633  0.01595875  0.87513844  1
  O  O193  1  0.75830235  0.49439574  0.36831192  1
  O  O194  1  0.74425961  0.51411945  0.88444478  1
  O  O195  1  0.25344901  0.48627530  0.13827916  1
  O  O196  1  0.24714657  0.49544161  0.63187844  1
  O  O197  1  0.24020843  0.99585352  0.12292203  1
  O  O198  1  0.23961015  0.99023286  0.61782665  1
  O  O199  1  0.74810413  0.49713483  0.13273254  1
  O  O200  1  0.74275012  0.48649605  0.61825851  1
  O  O201  1  0.75088134  0.99624481  0.13588945  1
  O  O202  1  0.73866612  0.99648036  0.62319700  1
  O  O203  1  -0.00173086  0.36487836  0.26220822  1
  O  O204  1  0.00839357  0.36375291  0.75507630  1
  O  O205  1  0.00426009  0.87100704  0.25781528  1
  O  O206  1  0.00474173  0.86465886  0.75050271  1
  O  O207  1  0.51300452  0.38204241  0.24887912  1
  O  O208  1  0.50570760  0.36809548  0.75625760  1
  O  O209  1  0.51091154  0.87731298  0.25810844  1
  O  O210  1  0.51545965  0.86890224  0.74486870  1
  O  O211  1  0.50117147  0.11934246  0.23560915  1
  O  O212  1  0.49636991  0.13364445  0.74096125  1
  O  O213  1  0.48582489  0.62032987  0.24215204  1
  O  O214  1  0.50054333  0.63655833  0.74735842  1
  O  O215  1  0.99850008  0.13750119  0.24165646  1
  O  O216  1  0.99627064  0.12992219  0.74281037  1
  O  O217  1  0.98726968  0.63590807  0.24547015  1
  O  O218  1  1.00656113  0.63006539  0.74599623  1
  O  O219  1  0.36075777  0.24764598  -0.01096819  1
  O  O220  1  0.37000066  0.25997260  0.49946563  1
  O  O221  1  0.38576583  0.75575699  0.01434246  1
  O  O222  1  0.36983188  0.76343047  0.49736847  1
  O  O223  1  0.87631523  0.25857694  0.00860950  1
  O  O224  1  0.86877870  0.25843167  0.50112597  1
  O  O225  1  0.86935268  0.75799506  0.00862086  1
  O  O226  1  0.89632707  0.77939082  0.51131748  1
  O  O227  1  0.12881850  0.23914186  0.49130018  1
  O  O228  1  0.13122328  0.24658544  0.98774383  1
  O  O229  1  0.12617547  0.74668345  0.49190501  1
  O  O230  1  0.13520026  0.73260754  1.04161444  1
  O  O231  1  0.63340611  0.24428452  0.49828045  1
  O  O232  1  0.62846998  0.25130977  0.99451079  1
  O  O233  1  0.62401611  0.75249587  0.48684896  1
  O  O234  1  0.62866811  0.75002033  0.99391031  1
  O  O235  1  0.49867134  0.23527401  0.12186013  1
  O  O236  1  0.49384870  0.24729429  0.62850079  1
  O  O237  1  0.49254315  0.74077345  0.13150891  1
  O  O238  1  0.50088185  0.75018159  0.63393251  1
  O  O239  1  0.99561715  0.24368957  0.13031493  1
  O  O240  1  1.00327251  0.23932935  0.63404669  1
  O  O241  1  0.98997601  0.74625087  0.13877318  1
  O  O242  1  0.98904240  0.73463043  0.62787837  1
  O  O243  1  0.00398512  0.25418297  0.36742738  1
  O  O244  1  0.01186708  0.25451305  0.87030448  1
  O  O245  1  -0.00196133  0.75850279  0.36676568  1
  O  O246  1  -0.00758180  0.74766163  0.86231174  1
  O  O247  1  0.52233914  0.25815284  0.39197754  1
  O  O248  1  0.49365303  0.25838776  0.86468760  1
  O  O249  1  0.50404974  0.76346262  0.37405563  1
  O  O250  1  0.51462699  0.74218296  0.86991371  1
  O  O251  1  0.24116371  0.13035146  0.49208336  1
  O  O252  1  0.25535885  0.13045265  0.99819478  1
  O  O253  1  0.24299902  0.63169376  0.49219060  1
  O  O254  1  0.25736778  0.62412820  0.98304942  1
  O  O255  1  0.74130210  0.13625311  0.50585430  1
  O  O256  1  0.74734641  0.12583605  0.98670340  1
  O  O257  1  0.82036307  0.65871723  0.52051742  1
  O  O258  1  0.74614654  0.63293508  0.99444667  1
  O  O259  1  0.25426737  0.37403181  0.00943079  1
  O  O260  1  0.25962548  0.37256819  0.50241704  1
  O  O261  1  0.26265592  0.87512824  0.01701200  1
  O  O262  1  0.25490390  0.87102364  0.50528236  1
  O  O263  1  0.76114427  0.37371096  0.00081877  1
  O  O264  1  0.75746956  0.36851513  0.50648142  1
  O  O265  1  0.75659315  0.87136426  0.00703697  1
  O  O266  1  0.76051180  0.87948057  0.51342610  1
  O  O267  1  0.13597630  0.50738444  0.25824164  1
  O  O268  1  0.13812695  0.49322680  0.74609823  1
  O  O269  1  0.11721194  0.99092917  0.23987455  1
  O  O270  1  0.11858938  0.98872782  0.73559054  1
  O  O271  1  0.62943902  0.49035013  0.24973270  1
  O  O272  1  0.61828601  0.48750438  0.74007035  1
  O  O273  1  0.63806442  0.99062310  0.25372334  1
  O  O274  1  0.61866731  0.99307533  0.73979263  1
  O  O275  1  0.37765215  -0.00030570  0.26083981  1
  O  O276  1  0.38424062  0.01542409  0.74494344  1
  O  O277  1  0.36787958  0.50462060  0.26154745  1
  O  O278  1  0.36502148  0.49926924  0.75382038  1
  O  O279  1  0.86276271  -0.00208535  0.25896120  1
  O  O280  1  0.88192126  0.01291084  0.74965369  1
  O  O281  1  0.86408419  0.49724728  0.25977537  1
  O  O282  1  0.87378477  0.49919910  0.76073992  1
  O  O283  1  0.11326610  0.36301466  0.38636862  1
  O  O284  1  0.12164647  0.36412582  0.86963153  1
  O  O285  1  0.11755753  0.87413418  0.36802021  1
  O  O286  1  0.12360280  0.87467181  0.85998845  1
  O  O287  1  0.62349764  0.36993569  0.36356053  1
  O  O288  1  0.61375158  0.38094743  0.86396071  1
  O  O289  1  0.61962783  0.87114561  0.37117603  1
  O  O290  1  0.63308068  0.86797956  0.86517824  1
  O  O291  1  0.38974025  0.12082832  0.12902233  1
  O  O292  1  0.38186530  0.13002559  0.62582733  1
  O  O293  1  0.37820840  0.63049561  0.13022404  1
  O  O294  1  0.37805257  0.63201437  0.63041051  1
  O  O295  1  0.88712328  0.13171253  0.11963316  1
  O  O296  1  0.88260722  0.12732870  0.62995202  1
  O  O297  1  0.87616121  0.63873395  0.12699983  1
  O  O298  1  0.89010665  0.61648007  0.63883984  1
  O  O299  1  0.24534580  0.25258258  0.10453596  1
  O  O300  1  0.25513039  0.25584835  0.61581699  1
  O  O301  1  0.26791219  0.76237218  0.14055796  1
  O  O302  1  0.25052842  0.75655667  0.61352459  1
  O  O303  1  0.76196644  0.24912859  0.12384843  1
  O  O304  1  0.75134623  0.26123397  0.61546612  1
  O  O305  1  0.75430295  0.75522366  0.12190783  1
  O  O306  1  0.76141463  0.75861507  0.63058433  1
  O  O307  1  0.23863749  0.24145438  0.38003973  1
  O  O308  1  0.23871798  0.25243049  0.88491584  1
  O  O309  1  0.24234769  0.74694978  0.37748391  1
  O  O310  1  0.26033709  0.74209123  0.86986721  1
  O  O311  1  0.74087767  0.25722233  0.38787449  1
  O  O312  1  0.75968032  0.23054265  0.87501092  1
  O  O313  1  0.73927618  0.75070615  0.37522706  1
  O  O314  1  0.74001062  0.74300315  0.88066537  1
  O  O315  1  -0.00353830  0.11199217  0.00553546  1
  O  O316  1  0.00946192  0.13251754  0.50889070  1
  O  O317  1  -0.00240736  0.62760971  0.02006946  1
  O  O318  1  0.00577908  0.62262733  0.50996494  1
  O  O319  1  0.49990353  0.11379741  0.00651483  1
  O  O320  1  0.50929686  0.11933218  0.50422643  1
  O  O321  1  0.49844502  0.61642595  0.00905107  1
  O  O322  1  0.49359759  0.61226892  0.50131779  1
  O  O323  1  0.48607146  0.38546632  0.50089991  1
  O  O324  1  0.50059604  0.38017477  0.98919350  1
  O  O325  1  0.49314311  0.88068307  0.49407815  1
  O  O326  1  0.49491450  0.88849526  1.01114013  1
  O  O327  1  0.99114868  0.37215724  0.49218617  1
  O  O328  1  0.99725118  0.37257542  0.99313571  1
  O  O329  1  1.00147035  0.88297924  0.48590487  1
  O  O330  1  0.99228203  0.87959688  0.99945458  1
  O  O331  1  0.49127908  0.49788888  0.38116999  1
  O  O332  1  0.49222945  0.49519524  0.88122585  1
  O  O333  1  0.49398464  0.99022190  0.37916552  1
  O  O334  1  0.49370273  1.00453210  0.89073087  1
  O  O335  1  0.99327907  0.49016348  0.37589647  1
  O  O336  1  1.00587715  0.48361601  0.87216326  1
  O  O337  1  0.98388519  0.99553839  0.36493832  1
  O  O338  1  0.99711000  0.99370111  0.88400095  1
  O  O339  1  0.00571790  0.00642199  0.12013951  1
  O  O340  1  0.00804604  0.01267307  0.62362134  1
  O  O341  1  -0.01603697  0.51447645  0.13025263  1
  O  O342  1  0.01035788  0.50655087  0.62551111  1
  O  O343  1  0.50488030  0.00810877  0.11296270  1
  O  O344  1  0.51202517  0.00341405  0.61558364  1
  O  O345  1  0.49205951  0.50373430  0.11791720  1
  O  O346  1  0.50834519  0.50133312  0.61669617  1
  O  O347  1  0.23495650  0.39245374  0.27091488  1
  O  O348  1  0.24758748  0.37905675  0.74521243  1
  O  O349  1  0.23925315  0.87678216  0.24257637  1
  O  O350  1  0.23741618  0.86071743  0.73009718  1
  O  O351  1  0.73891786  0.38513152  0.24714911  1
  O  O352  1  0.74011420  0.36525871  0.74205907  1
  O  O353  1  0.74496770  0.88226824  0.24497916  1
  O  O354  1  0.74162713  0.87214182  0.73872561  1
  O  O355  1  0.25175906  0.13249241  0.25873071  1
  O  O356  1  0.26691650  0.12712448  0.73977724  1
  O  O357  1  0.26033345  0.61547151  0.25135659  1
  O  O358  1  0.25257456  0.61778330  0.75955810  1
  O  O359  1  0.74406648  0.11212085  0.24708668  1
  O  O360  1  0.76006435  0.13117911  0.75650503  1
  O  O361  1  0.74799328  0.61045314  0.24722977  1
  O  O362  1  0.74839137  0.62971992  0.76744040  1
  O  O363  1  0.36056817  0.10818289  0.38446574  1
  O  O364  1  0.37604611  0.12429690  0.85642051  1
  O  O365  1  0.36940400  0.62189186  0.36838280  1
  O  O366  1  0.36763357  0.61311360  0.86971158  1
  O  O367  1  0.87703178  0.11437593  0.37705535  1
  O  O368  1  0.87267799  0.12182535  0.86538750  1
  O  O369  1  0.88155535  0.60784062  0.37343174  1
  O  O370  1  0.85876039  0.62451600  0.87843077  1
  O  O371  1  0.14577762  0.36667840  0.12983252  1
  O  O372  1  0.13186412  0.37756430  0.62978551  1
  O  O373  1  0.13403975  0.88333518  0.13199025  1
  O  O374  1  0.12750471  0.88269140  0.62387835  1
  O  O375  1  0.62594028  0.37579296  0.13623817  1
  O  O376  1  0.63212277  0.38233244  0.63098428  1
  O  O377  1  0.63187938  0.87722864  0.13577437  1
  O  O378  1  0.63431517  0.88351341  0.62937253  1
  O  O379  1  0.11623636  0.24530904  0.26143382  1
  O  O380  1  0.11930358  0.25135253  0.75673769  1
  O  O381  1  0.11400597  0.76265510  0.25163791  1
  O  O382  1  0.10903617  0.75982530  0.73701849  1
  O  O383  1  0.63137420  0.26256996  0.25807396  1
  O  O384  1  0.61105714  0.25979758  0.74129777  1
  O  O385  1  0.62414165  0.76233907  0.25905567  1
  O  O386  1  0.61894093  0.75909712  0.75712013  1
  O  O387  1  0.39097946  0.23968178  0.29921682  1
  O  O388  1  0.38381354  0.24261521  0.74214041  1
  O  O389  1  0.38041986  0.74023829  0.24740528  1
  O  O390  1  0.39104112  0.75822272  0.75273519  1
  O  O391  1  0.88189490  0.25595643  0.24112850  1
  O  O392  1  0.89058305  0.24232780  0.74851336  1
  O  O393  1  0.87775916  0.75353790  0.24546342  1
  O  O394  1  0.88316095  0.74231180  0.73751455  1
  O  O395  1  0.37644519  0.49648709  0.49011684  1
  O  O396  1  0.38367194  0.50025023  0.99191360  1
  O  O397  1  0.37816481  0.98830535  0.49328689  1
  O  O398  1  0.38507036  0.98993744  0.99853201  1
  O  O399  1  0.87745343  0.48628274  0.49398860  1
  O  O400  1  0.88305740  0.48726335  0.99464559  1
  O  O401  1  0.87180114  0.99819588  0.48543806  1
  O  O402  1  0.88367650  0.98818335  1.00250790  1
  O  O403  1  0.11596037  -0.00783896  0.00992405  1
  O  O404  1  0.12619817  0.01244089  0.50702834  1
  O  O405  1  0.11920114  0.51250303  -0.00107353  1
  O  O406  1  0.12524676  0.50680403  0.50529773  1
  O  O407  1  0.61414478  -0.00009199  -0.00044717  1
  O  O408  1  0.62385514  0.00813661  0.50298231  1
  O  O409  1  0.60910310  0.50110148  0.00471440  1
  O  O410  1  0.61461973  0.49220953  0.50790172  1
  O  O411  1  0.34209323  0.35836042  0.16326036  1
  O  O412  1  0.37026351  0.37058239  0.61711561  1
  O  O413  1  0.37224426  0.86991180  0.12436778  1
  O  O414  1  0.36626858  0.87566910  0.61664616  1
  O  O415  1  0.87606902  0.36481673  0.11707700  1
  O  O416  1  0.86945596  0.37327746  0.61827334  1
  O  O417  1  0.87184910  0.86554271  0.11919504  1
  O  O418  1  0.86720663  0.88795724  0.61832183  1
  O  O419  1  0.12873455  0.12723235  0.37928778  1
  O  O420  1  0.12352529  0.13627926  0.86835035  1
  O  O421  1  0.12553424  0.63471478  0.37761827  1
  O  O422  1  0.14435413  0.63093435  0.87399382  1
  O  O423  1  0.62279101  0.13087849  0.38482791  1
  O  O424  1  0.63749133  0.12044587  0.86972176  1
  O  O425  1  0.61880427  0.64172036  0.36991166  1
  O  O426  1  0.63337069  0.63179450  0.87791380  1
