# generated using pymatgen
data_V85Zn86O256
_symmetry_space_group_name_H-M   'P 1'
_cell_length_a   16.93580663
_cell_length_b   16.94675804
_cell_length_c   16.94123699
_cell_angle_alpha   90.05259743
_cell_angle_beta   89.94382190
_cell_angle_gamma   89.94690350
_symmetry_Int_Tables_number   1
_chemical_formula_structural   V85Zn86O256
_chemical_formula_sum   'V85 Zn86 O256'
_cell_volume   4862.24742100
_cell_formula_units_Z   1
loop_
 _symmetry_equiv_pos_site_id
 _symmetry_equiv_pos_as_xyz
  1  'x, y, z'
loop_
 _atom_site_type_symbol
 _atom_site_label
 _atom_site_symmetry_multiplicity
 _atom_site_fract_x
 _atom_site_fract_y
 _atom_site_fract_z
 _atom_site_occupancy
  V  V0  1  0.87565749  0.63103518  0.24905953  1
  V  V1  1  0.50061174  0.49687269  0.49781549  1
  V  V2  1  0.00074468  0.37458641  0.86691665  1
  V  V3  1  0.11014936  0.49854651  0.62486496  1
  V  V4  1  0.87166432  0.00700638  0.87565567  1
  V  V5  1  0.48206716  0.62609449  0.63033208  1
  V  V6  1  0.00265099  0.38562809  0.37101748  1
  V  V7  1  0.61884851  0.25913251  0.37561025  1
  V  V8  1  0.87854133  0.38877924  0.50026403  1
  V  V9  1  0.24514965  0.37520427  0.12567388  1
  V  V10  1  -0.00423926  0.73560332  0.74736619  1
  V  V11  1  0.24922998  0.62042080  0.37701427  1
  V  V12  1  0.00203288  -0.00136729  -0.00013396  1
  V  V13  1  0.37641765  0.12441834  0.75010870  1
  V  V14  1  0.49080432  0.75287138  0.74726209  1
  V  V15  1  -0.00146887  0.00387716  0.50379019  1
  V  V16  1  -0.00187529  0.49792330  0.00229540  1
  V  V17  1  0.12584717  0.25428245  0.86739981  1
  V  V18  1  0.12061828  0.49805970  0.12986596  1
  V  V19  1  0.37694643  0.24913082  0.12450812  1
  V  V20  1  0.64214377  0.24863413  0.87999536  1
  V  V21  1  0.37759213  0.50090956  0.86859743  1
  V  V22  1  0.63904944  0.12926946  -0.00148766  1
  V  V23  1  0.74415173  0.50061286  0.25150174  1
  V  V24  1  0.63631522  0.88196283  0.25508232  1
  V  V25  1  0.24969605  0.25015933  0.50046807  1
  V  V26  1  0.74444182  0.37038120  0.12054517  1
  V  V27  1  0.50314032  0.37337173  0.87880493  1
  V  V28  1  0.50242299  0.12386480  0.62609383  1
  V  V29  1  0.25473284  0.75151879  0.00059466  1
  V  V30  1  0.12224091  0.25396142  0.36675245  1
  V  V31  1  0.37866028  0.86561759  0.49774041  1
  V  V32  1  0.62113439  0.62773070  0.50430368  1
  V  V33  1  0.51304151  0.87299567  0.87222923  1
  V  V34  1  0.62832911  0.37510043  0.75112272  1
  V  V35  1  0.12741589  0.86967454  0.24895847  1
  V  V36  1  0.12417567  0.74887190  0.87388327  1
  V  V37  1  -0.00019337  0.74653532  0.23540192  1
  V  V38  1  0.62376819  -0.00439797  0.63003568  1
  V  V39  1  0.50406432  0.12319039  0.12357862  1
  V  V40  1  0.81421489  0.70335145  0.07067790  1
  V  V41  1  0.86426213  0.87481178  0.01081480  1
  V  V42  1  0.37585528  0.24991644  0.62547191  1
  V  V43  1  0.25405307  0.86496333  0.62541615  1
  V  V44  1  0.88402756  0.12571354  0.74622719  1
  V  V45  1  0.87654425  0.87670555  0.50146571  1
  V  V46  1  0.24988953  0.24909405  -0.00176132  1
  V  V47  1  0.37916937  0.37668008  -0.00120302  1
  V  V48  1  0.74858959  0.00713666  0.75279877  1
  V  V49  1  0.63600736  0.72850638  0.87579626  1
  V  V50  1  0.49248376  0.76103787  0.24382974  1
  V  V51  1  0.87190819  0.00050154  0.36824084  1
  V  V52  1  0.49937379  -0.00386747  0.49404633  1
  V  V53  1  0.12480751  0.62232966  0.00445707  1
  V  V54  1  0.25235353  0.62424987  0.86839056  1
  V  V55  1  0.12014722  0.12706929  0.50344974  1
  V  V56  1  0.88572935  0.24676519  0.62174320  1
  V  V57  1  0.74907311  0.12374612  0.36528823  1
  V  V58  1  0.61225949  0.75889001  0.37825444  1
  V  V59  1  0.12367879  0.87505989  0.74960474  1
  V  V60  1  0.24412172  0.37539915  0.62980778  1
  V  V61  1  0.74842621  0.62751259  0.37908495  1
  V  V62  1  0.12315588  0.00062378  0.62412804  1
  V  V63  1  0.10993695  0.62015195  0.50406419  1
  V  V64  1  0.61018009  0.51443379  0.11109727  1
  V  V65  1  0.25083139  -0.00194450  0.74884577  1
  V  V66  1  0.74885642  0.87579885  0.63155633  1
  V  V67  1  0.24840178  0.49210112  0.25006915  1
  V  V68  1  0.64007898  -0.00414975  0.12641857  1
  V  V69  1  0.25014438  0.12234917  0.37578288  1
  V  V70  1  0.74893204  0.37459983  0.62672730  1
  V  V71  1  0.12236934  0.74758270  0.37441186  1
  V  V72  1  0.37955022  0.87602787  0.00483704  1
  V  V73  1  0.74785600  0.75386518  0.50139294  1
  V  V74  1  0.37689200  0.12237913  0.25035404  1
  V  V75  1  0.12807869  -0.00018021  0.12751369  1
  V  V76  1  0.87132845  0.50982776  0.86817385  1
  V  V77  1  0.37906699  -0.00110045  0.87455821  1
  V  V78  1  0.37979062  0.49225707  0.37241944  1
  V  V79  1  0.12454463  0.12566636  -0.00190482  1
  V  V80  1  0.87946571  0.73917106  0.62759619  1
  V  V81  1  0.75335093  0.24803992  0.49768179  1
  V  V82  1  0.24525150  0.49962127  0.74762386  1
  V  V83  1  -0.00417651  0.87394415  0.87365642  1
  V  V84  1  0.37726737  0.37473007  0.49959999  1
  Zn  Zn85  1  0.25788842  0.87462236  0.12761144  1
  Zn  Zn86  1  0.00720595  0.24948557  0.74375844  1
  Zn  Zn87  1  0.25099689  0.74354771  0.50523958  1
  Zn  Zn88  1  0.87784719  0.12765784  0.24720796  1
  Zn  Zn89  1  0.42549026  0.69775296  0.09081078  1
  Zn  Zn90  1  0.00151649  0.13053271  0.13125568  1
  Zn  Zn91  1  0.00027126  0.87417127  0.37446129  1
  Zn  Zn92  1  0.62340761  0.50422306  0.63055689  1
  Zn  Zn93  1  0.87544247  0.24681457  0.12152813  1
  Zn  Zn94  1  0.49810097  0.25419708  0.25606185  1
  Zn  Zn95  1  0.50387009  0.24983370  0.75074774  1
  Zn  Zn96  1  0.61274859  0.38546785  0.25213138  1
  Zn  Zn97  1  -0.00508683  0.25368892  0.24774939  1
  Zn  Zn98  1  0.25246372  0.12563611  0.87370139  1
  Zn  Zn99  1  0.86639949  0.36774642  -0.00563976  1
  Zn  Zn100  1  0.38679087  0.62106937  0.24775687  1
  Zn  Zn101  1  0.87684412  0.50678332  0.38027136  1
  Zn  Zn102  1  0.37948751  -0.00370189  0.37404761  1
  Zn  Zn103  1  0.62678955  0.12396562  0.50030171  1
  Zn  Zn104  1  0.50530679  0.00087970  -0.00094324  1
  Zn  Zn105  1  0.25169455  -0.00300559  0.25157019  1
  Zn  Zn106  1  0.74130513  0.53101635  0.77004325  1
  Zn  Zn107  1  0.18780189  0.18607022  0.18748563  1
  Zn  Zn108  1  0.18959976  0.18450558  0.68618088  1
  Zn  Zn109  1  0.22344469  0.66938758  0.17171769  1
  Zn  Zn110  1  0.18224241  0.68449198  0.68730436  1
  Zn  Zn111  1  0.68653261  0.18862560  0.19090869  1
  Zn  Zn112  1  0.69088452  0.18808581  0.68969065  1
  Zn  Zn113  1  0.67862005  0.68712416  0.19331847  1
  Zn  Zn114  1  0.68005135  0.69364063  0.69381763  1
  Zn  Zn115  1  0.31373864  0.31086994  0.31226540  1
  Zn  Zn116  1  0.31226185  0.31264639  0.80997017  1
  Zn  Zn117  1  0.30883435  0.81214493  0.31939481  1
  Zn  Zn118  1  0.31626956  0.81356471  0.81515065  1
  Zn  Zn119  1  0.81315267  0.31584192  0.30928382  1
  Zn  Zn120  1  0.81774408  0.31541419  0.81090718  1
  Zn  Zn121  1  0.81161119  0.81080548  0.31329024  1
  Zn  Zn122  1  0.81233242  0.81340861  0.81200739  1
  Zn  Zn123  1  0.18509131  0.43746150  0.44195429  1
  Zn  Zn124  1  0.18730724  0.43565433  0.93818812  1
  Zn  Zn125  1  0.18979905  0.93569533  0.43869906  1
  Zn  Zn126  1  0.19012041  0.93764076  0.93557620  1
  Zn  Zn127  1  0.69114459  0.43999148  0.44099699  1
  Zn  Zn128  1  0.68388668  0.44532581  0.94061122  1
  Zn  Zn129  1  0.68772058  0.93980961  0.44003302  1
  Zn  Zn130  1  0.68975184  0.93902896  0.93880148  1
  Zn  Zn131  1  0.31235141  0.06073074  0.06185337  1
  Zn  Zn132  1  0.31274039  0.05763485  0.56260685  1
  Zn  Zn133  1  0.33911566  0.56990185  0.05188640  1
  Zn  Zn134  1  0.30768392  0.55930300  0.55958415  1
  Zn  Zn135  1  0.81646380  0.06480111  0.06338464  1
  Zn  Zn136  1  0.81275348  0.06509589  0.56232284  1
  Zn  Zn137  1  0.80984939  0.54120860  0.06385460  1
  Zn  Zn138  1  0.79745318  0.57567249  0.59330487  1
  Zn  Zn139  1  0.43915432  0.43296009  0.18923859  1
  Zn  Zn140  1  0.43794932  0.43745652  0.68855238  1
  Zn  Zn141  1  0.44612847  0.93821027  0.18965820  1
  Zn  Zn142  1  0.43705233  0.93274957  0.68569604  1
  Zn  Zn143  1  0.93142396  0.43824029  0.19003969  1
  Zn  Zn144  1  0.93241048  0.43521822  0.69243275  1
  Zn  Zn145  1  0.94413808  0.93805223  0.18773763  1
  Zn  Zn146  1  0.93703410  0.93549992  0.68701714  1
  Zn  Zn147  1  0.06012855  0.06167362  0.31477754  1
  Zn  Zn148  1  0.06182311  0.06390239  0.81411534  1
  Zn  Zn149  1  0.06146954  0.56410820  0.30910932  1
  Zn  Zn150  1  0.06455205  0.55806053  0.81392039  1
  Zn  Zn151  1  0.56611731  0.06577226  0.31210021  1
  Zn  Zn152  1  0.56570494  0.06448902  0.81440116  1
  Zn  Zn153  1  0.56015234  0.57140685  0.31194977  1
  Zn  Zn154  1  0.55799117  0.56085561  0.81087320  1
  Zn  Zn155  1  0.43768637  0.18299456  0.44079722  1
  Zn  Zn156  1  0.44519456  0.18830265  0.93890653  1
  Zn  Zn157  1  0.43553858  0.68399055  0.43491685  1
  Zn  Zn158  1  0.44197673  0.68264122  0.92592088  1
  Zn  Zn159  1  0.93821058  0.18941754  0.43319164  1
  Zn  Zn160  1  0.93606985  0.19028315  0.94132213  1
  Zn  Zn161  1  0.93608600  0.69050238  0.43599224  1
  Zn  Zn162  1  0.94137516  0.68478486  0.93838372  1
  Zn  Zn163  1  0.05821983  0.31369062  0.05905361  1
  Zn  Zn164  1  0.06138120  0.31787353  0.55575791  1
  Zn  Zn165  1  0.06515468  0.81369359  0.06010634  1
  Zn  Zn166  1  0.06284726  0.81089507  0.56226845  1
  Zn  Zn167  1  0.56608225  0.31425589  0.06512550  1
  Zn  Zn168  1  0.56400189  0.31135406  0.56130616  1
  Zn  Zn169  1  0.57538883  0.81502505  0.05702047  1
  Zn  Zn170  1  0.55961784  0.81288240  0.57016272  1
  O  O171  1  0.12659602  0.11747809  0.11656791  1
  O  O172  1  0.13125642  0.11849983  0.61094136  1
  O  O173  1  0.13670664  0.61385850  0.11124109  1
  O  O174  1  0.12677987  0.61697218  0.61132317  1
  O  O175  1  0.62146372  0.11875106  0.12188120  1
  O  O176  1  0.61787650  0.11961355  0.62377400  1
  O  O177  1  0.62352496  0.61329438  0.12859174  1
  O  O178  1  0.60954237  0.62795102  0.61206077  1
  O  O179  1  0.36959480  0.38474037  0.38277341  1
  O  O180  1  0.38258186  0.37634307  0.87915316  1
  O  O181  1  0.36685648  0.88029439  0.39337753  1
  O  O182  1  0.38441117  0.88352986  0.88190454  1
  O  O183  1  0.88310800  0.38038925  0.38330215  1
  O  O184  1  0.88476864  0.38285373  0.87599058  1
  O  O185  1  0.87256008  0.88158484  0.38738329  1
  O  O186  1  0.88149474  0.88247810  0.88125314  1
  O  O187  1  0.25013991  0.01316402  0.37526644  1
  O  O188  1  0.26138945  0.00050406  0.86690426  1
  O  O189  1  0.25457931  0.50022192  0.37021488  1
  O  O190  1  0.25133802  0.50443546  0.86619280  1
  O  O191  1  0.75974324  0.01199048  0.38657867  1
  O  O192  1  0.75916113  -0.00516431  0.86428602  1
  O  O193  1  0.75116884  0.51050531  0.37120382  1
  O  O194  1  0.76469138  0.49853717  0.87780073  1
  O  O195  1  0.24546364  0.49151003  0.13336430  1
  O  O196  1  0.24437119  0.49340620  0.63080688  1
  O  O197  1  0.23954545  0.99718437  0.12672783  1
  O  O198  1  0.24353212  0.98999982  0.63023961  1
  O  O199  1  0.73501200  0.49422021  0.13565153  1
  O  O200  1  0.74050296  0.47753724  0.61060451  1
  O  O201  1  0.73811263  1.00316275  0.12728044  1
  O  O202  1  0.74266120  0.99624097  0.62856239  1
  O  O203  1  -0.00578483  0.37581282  0.26712806  1
  O  O204  1  -0.00059575  0.37050758  0.76219696  1
  O  O205  1  0.01151654  0.86708217  0.25298563  1
  O  O206  1  0.00334118  0.87362735  0.76181310  1
  O  O207  1  0.50018094  0.36695882  0.25414079  1
  O  O208  1  0.51237384  0.37308065  0.75467409  1
  O  O209  1  0.51119808  0.86780063  0.25437319  1
  O  O210  1  0.49632988  0.86151682  0.75454131  1
  O  O211  1  0.49308948  0.12954514  0.24469127  1
  O  O212  1  0.49506373  0.12449987  0.73958820  1
  O  O213  1  0.49981973  0.65105129  0.25549758  1
  O  O214  1  0.49737783  0.62882540  0.73568410  1
  O  O215  1  0.99972266  0.13101552  0.25207112  1
  O  O216  1  0.98869745  0.12596663  0.74995335  1
  O  O217  1  0.98485075  0.63067126  0.25334804  1
  O  O218  1  1.00733267  0.63694985  0.75307767  1
  O  O219  1  0.37023676  0.25633008  0.00428165  1
  O  O220  1  0.37026122  0.25389891  0.50562080  1
  O  O221  1  0.36884798  0.76213734  -0.00420134  1
  O  O222  1  0.37249759  0.76162560  0.49623379  1
  O  O223  1  0.87762354  0.25628406  0.00647143  1
  O  O224  1  0.86993895  0.25511691  0.50530001  1
  O  O225  1  0.87986311  0.76032946  0.00434843  1
  O  O226  1  0.87023059  0.76119491  0.50353228  1
  O  O227  1  0.13004825  0.24273213  0.49360335  1
  O  O228  1  0.12986169  0.24173532  0.99067214  1
  O  O229  1  0.12610466  0.73822998  0.49474054  1
  O  O230  1  0.12879397  0.74199159  0.99098965  1
  O  O231  1  0.63423331  0.24836920  0.49234252  1
  O  O232  1  0.62225426  0.24198603  0.99217860  1
  O  O233  1  0.62532846  0.74868572  0.49659245  1
  O  O234  1  0.61890856  0.75124406  0.97487731  1
  O  O235  1  0.49442420  0.23883403  0.12539521  1
  O  O236  1  0.49556305  0.24004181  0.62504895  1
  O  O237  1  0.50450266  0.76258411  0.13765019  1
  O  O238  1  0.49863552  0.74012882  0.63650043  1
  O  O239  1  1.00240700  0.25034053  0.13020495  1
  O  O240  1  0.98964724  0.25630873  0.62410103  1
  O  O241  1  1.00777348  0.75026517  0.13621189  1
  O  O242  1  0.99126339  0.76208781  0.63728639  1
  O  O243  1  0.00847225  0.26076029  0.37432465  1
  O  O244  1  0.00936231  0.25706576  0.87326006  1
  O  O245  1  0.01229548  0.75099450  0.36973999  1
  O  O246  1  0.00367377  0.75667844  0.86878893  1
  O  O247  1  0.51637511  0.24310419  0.38244157  1
  O  O248  1  0.50504671  0.26274605  0.87182581  1
  O  O249  1  0.50922260  0.75310013  0.37455968  1
  O  O250  1  0.50430114  0.75406407  0.86428934  1
  O  O251  1  0.24559074  0.12924468  0.49384293  1
  O  O252  1  0.24159360  0.13012738  0.99801699  1
  O  O253  1  0.24211838  0.62358771  0.48935492  1
  O  O254  1  0.24735862  0.63232535  0.98644335  1
  O  O255  1  0.75049579  0.13733439  0.49546757  1
  O  O256  1  0.73822342  0.12069631  1.00026355  1
  O  O257  1  0.73815320  0.63389703  0.50138988  1
  O  O258  1  0.76762267  0.63850198  1.01203566  1
  O  O259  1  0.25557333  0.36612132  0.00608712  1
  O  O260  1  0.25640962  0.37014205  0.50943329  1
  O  O261  1  0.26106157  0.86847971  -0.00526252  1
  O  O262  1  0.25835173  0.87180766  0.50888462  1
  O  O263  1  0.74672045  0.38356535  0.01639765  1
  O  O264  1  0.75777763  0.36264667  0.50246068  1
  O  O265  1  0.76536498  0.87633783  -0.00113062  1
  O  O266  1  0.75664108  0.87328735  0.51011445  1
  O  O267  1  0.12951632  0.50160031  0.23713668  1
  O  O268  1  0.13620318  0.50277689  0.74033083  1
  O  O269  1  0.12565843  0.99065379  0.24385999  1
  O  O270  1  0.12934379  0.99516362  0.74554728  1
  O  O271  1  0.63489163  0.50510117  0.25594691  1
  O  O272  1  0.62949947  0.49077174  0.74940938  1
  O  O273  1  0.62147844  0.99079308  0.24208076  1
  O  O274  1  0.63376829  1.00680299  0.73941244  1
  O  O275  1  0.37524044  0.00938530  0.25309195  1
  O  O276  1  0.37291690  0.00294020  0.75719581  1
  O  O277  1  0.36702472  0.50038739  0.25760814  1
  O  O278  1  0.35998697  0.49058574  0.75818909  1
  O  O279  1  0.88252128  -0.00362364  0.26615779  1
  O  O280  1  0.87103914  0.00625355  0.75501672  1
  O  O281  1  0.86164577  0.51255072  0.25105499  1
  O  O282  1  0.86996150  0.49850802  0.76450858  1
  O  O283  1  0.11190336  0.36880479  0.38370790  1
  O  O284  1  0.11884225  0.36439303  0.87808397  1
  O  O285  1  0.12707586  0.86504471  0.36931732  1
  O  O286  1  0.11781147  0.87001434  0.86984084  1
  O  O287  1  0.63056391  0.36124626  0.37894589  1
  O  O288  1  0.62035675  0.37129405  0.87140363  1
  O  O289  1  0.62812148  0.87294547  0.36662824  1
  O  O290  1  0.61377075  0.88088721  0.87382034  1
  O  O291  1  0.38195315  0.12663937  0.13110224  1
  O  O292  1  0.38161004  0.12795732  0.62969574  1
  O  O293  1  0.33842195  0.63907499  0.14464351  1
  O  O294  1  0.38361365  0.62402441  0.61818843  1
  O  O295  1  0.88244774  0.12380041  0.12910835  1
  O  O296  1  0.87292186  0.13524071  0.63171018  1
  O  O297  1  0.86464563  0.63264666  0.13270231  1
  O  O298  1  0.88912815  0.64260235  0.60689664  1
  O  O299  1  0.25548838  0.25636458  0.12046804  1
  O  O300  1  0.25361137  0.25686856  0.62010709  1
  O  O301  1  0.23845265  0.75995668  0.10375998  1
  O  O302  1  0.24371833  0.76105742  0.62572162  1
  O  O303  1  0.74249046  0.26826372  0.13101315  1
  O  O304  1  0.75669676  0.25667136  0.61695524  1
  O  O305  1  0.74703412  0.75275889  0.12584891  1
  O  O306  1  0.75715003  0.76155688  0.62078236  1
  O  O307  1  0.24536334  0.24163289  0.38133795  1
  O  O308  1  0.24430159  0.24928332  0.88019829  1
  O  O309  1  0.23873887  0.73802957  0.37652600  1
  O  O310  1  0.24542331  0.74358103  0.87924419  1
  O  O311  1  0.74422791  0.24404496  0.38163852  1
  O  O312  1  0.74092188  0.25609047  0.87352862  1
  O  O313  1  0.73920270  0.74690808  0.38405402  1
  O  O314  1  0.73437626  0.74971563  0.86203100  1
  O  O315  1  0.01384093  0.11667904  -0.00264935  1
  O  O316  1  0.00944855  0.11787084  0.49514980  1
  O  O317  1  0.01215472  0.61070634  -0.00412724  1
  O  O318  1  0.01178062  0.62516179  0.49437472  1
  O  O319  1  0.50839524  0.12167305  0.00929527  1
  O  O320  1  0.49953145  0.11495544  0.51334500  1
  O  O321  1  0.44210048  0.61715575  0.01463032  1
  O  O322  1  0.50087549  0.61811322  0.50749674  1
  O  O323  1  0.49575329  0.38984847  0.50798858  1
  O  O324  1  0.49013122  0.37032240  0.99255875  1
  O  O325  1  0.48649544  0.88043608  0.50891717  1
  O  O326  1  0.49561641  0.87829420  0.99072509  1
  O  O327  1  0.98851734  0.37289366  0.48667366  1
  O  O328  1  1.00401603  0.38739257  0.98752237  1
  O  O329  1  0.99221431  0.88111793  0.49770188  1
  O  O330  1  0.99657853  0.87881440  0.98870181  1
  O  O331  1  0.48954107  0.50831555  0.38400998  1
  O  O332  1  0.48848117  0.48647426  0.86674434  1
  O  O333  1  0.50232198  1.00710242  0.39122760  1
  O  O334  1  0.49404374  0.99241655  0.87279919  1
  O  O335  1  0.99935198  0.48967204  0.37381695  1
  O  O336  1  0.99455978  0.49285344  0.87920422  1
  O  O337  1  0.99354144  0.99594736  0.38826120  1
  O  O338  1  0.99383905  0.99204312  0.87964015  1
  O  O339  1  0.01464904  0.00036340  0.11740400  1
  O  O340  1  0.00609499  -0.00550926  0.61226951  1
  O  O341  1  0.00929526  0.49054646  0.11706567  1
  O  O342  1  0.01108107  0.49136671  0.63146828  1
  O  O343  1  0.50871444  0.01298976  0.12508595  1
  O  O344  1  0.50700536  0.00403057  0.62222934  1
  O  O345  1  0.51206627  0.50006316  0.13352100  1
  O  O346  1  0.49948946  0.51192971  0.61993564  1
  O  O347  1  0.25353393  0.38361433  0.24288046  1
  O  O348  1  0.24997143  0.37977191  0.73676456  1
  O  O349  1  0.24065218  0.87484573  0.24858150  1
  O  O350  1  0.24671958  0.87867643  0.74474436  1
  O  O351  1  0.74293667  0.38737232  0.24599628  1
  O  O352  1  0.74081938  0.37196079  0.74126824  1
  O  O353  1  0.73554896  0.87299706  0.25292498  1
  O  O354  1  0.76005129  0.88960788  0.73688505  1
  O  O355  1  0.25760937  0.12263940  0.25843979  1
  O  O356  1  0.26010575  0.11630343  0.74982061  1
  O  O357  1  0.24165947  0.60864010  0.26721747  1
  O  O358  1  0.24305875  0.61810271  0.76044995  1
  O  O359  1  0.75106083  0.12447778  0.26253306  1
  O  O360  1  0.76254996  0.11311181  0.74483877  1
  O  O361  1  0.75612678  0.62500521  0.25987697  1
  O  O362  1  0.75450595  0.61268401  0.69760357  1
  O  O363  1  0.36798758  0.12403406  0.36827593  1
  O  O364  1  0.37868182  0.11688059  0.86920653  1
  O  O365  1  0.36526404  0.61383367  0.37254336  1
  O  O366  1  0.36506864  0.61031377  0.86810299  1
  O  O367  1  0.86689598  0.11728718  0.37606239  1
  O  O368  1  0.88174113  0.11195158  0.86893578  1
  O  O369  1  0.86671548  0.62640032  0.36966887  1
  O  O370  1  0.88228645  0.60866812  0.87703310  1
  O  O371  1  0.13872820  0.38259296  0.11616242  1
  O  O372  1  0.13423790  0.38450504  0.61531222  1
  O  O373  1  0.12735756  0.88233446  0.13243971  1
  O  O374  1  0.13195184  0.88079909  0.62997526  1
  O  O375  1  0.63074468  0.38563776  0.12908455  1
  O  O376  1  0.63020867  0.37117626  0.63522527  1
  O  O377  1  0.62297403  0.89012684  0.13361334  1
  O  O378  1  0.63485898  0.88351197  0.62415235  1
  O  O379  1  0.12976377  0.24902574  0.26519814  1
  O  O380  1  0.12582237  0.24016964  0.76282732  1
  O  O381  1  0.12065853  0.75409813  0.25749105  1
  O  O382  1  0.11732169  0.75697521  0.75480949  1
  O  O383  1  0.62392765  0.24977602  0.26814060  1
  O  O384  1  0.62522796  0.25550602  0.75958065  1
  O  O385  1  0.61750262  0.76337560  0.25959501  1
  O  O386  1  0.60765810  0.74564384  0.76207573  1
  O  O387  1  0.37354392  0.23760512  0.24351300  1
  O  O388  1  0.37759389  0.24233579  0.74282705  1
  O  O389  1  0.39000037  0.75979921  0.25686271  1
  O  O390  1  0.39039591  0.74726370  0.75744310  1
  O  O391  1  0.87441183  0.24833240  0.24353602  1
  O  O392  1  0.87662578  0.24210087  0.74063320  1
  O  O393  1  0.88638672  0.74487209  0.25599066  1
  O  O394  1  0.88382157  0.75511260  0.74045582  1
  O  O395  1  0.38054067  0.49482311  0.49270581  1
  O  O396  1  0.35909352  0.48053753  0.98278599  1
  O  O397  1  0.38374542  0.99119287  0.49966663  1
  O  O398  1  0.37735487  0.99704175  0.98768345  1
  O  O399  1  0.86625701  0.48895208  0.50392833  1
  O  O400  1  0.88454762  0.49301029  0.99130621  1
  O  O401  1  0.88212253  0.99571344  0.49707571  1
  O  O402  1  0.87968426  0.99212501  0.99206881  1
  O  O403  1  0.12453733  0.00579944  0.00492230  1
  O  O404  1  0.11829746  0.00662623  0.50214917  1
  O  O405  1  0.12171028  0.50502855  0.00735071  1
  O  O406  1  0.12654768  0.51215537  0.50860835  1
  O  O407  1  0.62559556  0.00473476  0.01264630  1
  O  O408  1  0.61729369  0.00072382  0.51274207  1
  O  O409  1  0.61799502  0.50433840  0.01096401  1
  O  O410  1  0.61583217  0.50981462  0.50004739  1
  O  O411  1  0.36586556  0.37203010  0.11590766  1
  O  O412  1  0.36870032  0.36917988  0.61991839  1
  O  O413  1  0.37673867  0.88752663  0.10952379  1
  O  O414  1  0.36486329  0.87896386  0.61295637  1
  O  O415  1  0.85410549  0.38316459  0.12475168  1
  O  O416  1  0.86807163  0.36749650  0.61972438  1
  O  O417  1  0.88091134  0.88308295  0.10913814  1
  O  O418  1  0.86872257  0.87392173  0.61421454  1
  O  O419  1  0.13216401  0.13159194  0.38461055  1
  O  O420  1  0.12929544  0.12960210  0.88281440  1
  O  O421  1  0.12803276  0.62739129  0.38456615  1
  O  O422  1  0.13237685  0.62683263  0.88470310  1
  O  O423  1  0.63396249  0.13205965  0.38020599  1
  O  O424  1  0.61972918  0.13628355  0.88552270  1
  O  O425  1  0.62623117  0.63721262  0.38806246  1
  O  O426  1  0.62803597  0.62734525  0.87077456  1
