# generated using pymatgen
data_V85Zn86O256
_symmetry_space_group_name_H-M   'P 1'
_cell_length_a   16.91839087
_cell_length_b   16.91945921
_cell_length_c   16.91854158
_cell_angle_alpha   89.85475220
_cell_angle_beta   89.99831331
_cell_angle_gamma   90.02750299
_symmetry_Int_Tables_number   1
_chemical_formula_structural   V85Zn86O256
_chemical_formula_sum   'V85 Zn86 O256'
_cell_volume   4842.91681497
_cell_formula_units_Z   1
loop_
 _symmetry_equiv_pos_site_id
 _symmetry_equiv_pos_as_xyz
  1  'x, y, z'
loop_
 _atom_site_type_symbol
 _atom_site_label
 _atom_site_symmetry_multiplicity
 _atom_site_fract_x
 _atom_site_fract_y
 _atom_site_fract_z
 _atom_site_occupancy
  V  V0  1  0.75127663  0.00192553  0.75321349  1
  V  V1  1  -0.01595487  0.49742702  0.49386761  1
  V  V2  1  0.62727055  0.87177785  0.25835314  1
  V  V3  1  0.61801682  0.00435289  0.12533634  1
  V  V4  1  0.49310540  -0.01371898  0.00014450  1
  V  V5  1  0.75202188  0.12709634  0.37550464  1
  V  V6  1  0.75852401  0.62511355  0.87444326  1
  V  V7  1  0.01299671  0.12664612  0.62726755  1
  V  V8  1  0.25085221  0.37339333  0.62300073  1
  V  V9  1  0.25804886  0.74686927  0.50559855  1
  V  V10  1  0.25143454  0.87222906  0.62666217  1
  V  V11  1  0.51264860  0.50145286  0.00136499  1
  V  V12  1  0.87388501  0.37729874  -0.00136316  1
  V  V13  1  0.12580157  0.75345414  0.36807489  1
  V  V14  1  0.25145033  0.49930393  0.24863235  1
  V  V15  1  -0.01194521  0.37548915  0.37762580  1
  V  V16  1  0.00956449  0.00414418  -0.00116532  1
  V  V17  1  0.51515323  0.62260712  0.11852310  1
  V  V18  1  0.73687661  0.38471765  0.12403521  1
  V  V19  1  0.50764790  0.49809065  0.50543459  1
  V  V20  1  0.24760658  0.62924862  0.87231791  1
  V  V21  1  0.62416679  0.24893928  0.86551157  1
  V  V22  1  0.00301475  0.25174993  0.25141182  1
  V  V23  1  0.37865907  0.25101815  0.62925113  1
  V  V24  1  0.24003302  -0.00093293  0.74749417  1
  V  V25  1  0.01737417  0.00252952  0.50660235  1
  V  V26  1  0.01178970  0.12657308  0.12181939  1
  V  V27  1  0.75015239  0.87505952  0.62696452  1
  V  V28  1  0.37577990  0.62814125  0.74105640  1
  V  V29  1  0.62488983  0.12904699  0.49844540  1
  V  V30  1  0.75275437  0.38184628  0.61896073  1
  V  V31  1  0.49862637  0.36795738  0.86829864  1
  V  V32  1  0.00025692  0.86819527  0.88170894  1
  V  V33  1  0.12361620  0.49789173  0.62187849  1
  V  V34  1  0.12263216  0.62312735  0.49814226  1
  V  V35  1  0.87690117  0.13154860  0.74987268  1
  V  V36  1  0.11936310  0.86450133  0.74851716  1
  V  V37  1  0.75277218  0.87754950  0.11578443  1
  V  V38  1  0.24366170  0.24429282  0.00293941  1
  V  V39  1  0.87625712  0.12497139  0.24838240  1
  V  V40  1  0.37829568  0.75647686  0.11980254  1
  V  V41  1  0.50486157  0.25576543  0.24970461  1
  V  V42  1  0.12697780  0.50030289  0.12362373  1
  V  V43  1  0.11877652  0.24610036  0.87454074  1
  V  V44  1  0.24663802  -0.00733018  0.25159485  1
  V  V45  1  0.61520135  0.12707998  -0.00029848  1
  V  V46  1  0.61782613  0.74257883  0.88193711  1
  V  V47  1  0.37634517  -0.01511473  0.87613106  1
  V  V48  1  0.25021651  0.37394545  0.12517858  1
  V  V49  1  0.75056276  0.00022005  0.24848257  1
  V  V50  1  0.51210475  0.62567082  0.62719410  1
  V  V51  1  0.37778615  0.62384733  0.24407898  1
  V  V52  1  0.87713158  0.87958960  0.50216002  1
  V  V53  1  0.25350222  0.75739029  -0.00369514  1
  V  V54  1  -0.00192624  0.62585266  0.12305916  1
  V  V55  1  0.37833748  0.49722664  0.37629011  1
  V  V56  1  0.62007015  0.87720201  0.75776295  1
  V  V57  1  0.25158321  0.11859961  0.38196320  1
  V  V58  1  0.37413406  0.37413615  -0.00148541  1
  V  V59  1  0.62373319  0.63094416  0.49006625  1
  V  V60  1  0.49539278  0.75988304  0.74654526  1
  V  V61  1  0.12713996  0.24995899  0.38388096  1
  V  V62  1  0.00412030  0.87860082  0.36855312  1
  V  V63  1  0.87804837  0.61829417  0.25609191  1
  V  V64  1  0.74644706  0.75480009  0.49132628  1
  V  V65  1  0.11662227  0.36910857  0.74917670  1
  V  V66  1  0.87515508  -0.00171689  0.88309371  1
  V  V67  1  0.24977147  0.49978014  0.74932160  1
  V  V68  1  0.87340910  0.25078418  0.12378098  1
  V  V69  1  0.50092884  0.13050438  0.62741461  1
  V  V70  1  -0.00846996  0.62676581  0.62972142  1
  V  V71  1  0.87529667  0.24968321  0.61745805  1
  V  V72  1  0.87470116  0.75363955  0.12060629  1
  V  V73  1  0.38176045  0.11695730  0.25433520  1
  V  V74  1  0.37590788  0.49988518  0.87534634  1
  V  V75  1  0.37813791  0.24202661  0.12643994  1
  V  V76  1  0.73870408  0.49824525  0.25557006  1
  V  V77  1  0.24983924  0.62346262  0.37381159  1
  V  V78  1  0.62523114  0.38514438  0.74371280  1
  V  V79  1  0.37937141  0.12488097  0.75387734  1
  V  V80  1  0.62494376  0.00285649  0.62739645  1
  V  V81  1  0.12522145  0.63207376  -0.00626953  1
  V  V82  1  0.50506592  0.74768795  0.25737849  1
  V  V83  1  0.24750617  0.12159398  0.88086170  1
  V  V84  1  0.00062375  0.49815398  -0.00323959  1
  Zn  Zn85  1  0.75383302  0.25681276  0.49494657  1
  Zn  Zn86  1  0.51179569  0.37930219  0.37155893  1
  Zn  Zn87  1  0.62905924  0.25692027  0.36963739  1
  Zn  Zn88  1  -0.00705238  0.74129066  0.76050156  1
  Zn  Zn89  1  0.00305094  0.75604302  0.24576952  1
  Zn  Zn90  1  -0.00527678  0.36947676  0.86914208  1
  Zn  Zn91  1  0.74468819  0.25031635  0.00007204  1
  Zn  Zn92  1  0.75562430  0.50965315  0.74365924  1
  Zn  Zn93  1  0.24932549  0.24405374  0.50318708  1
  Zn  Zn94  1  0.87814350  0.50354092  0.86703210  1
  Zn  Zn95  1  0.12392584  -0.00965325  0.12847257  1
  Zn  Zn96  1  0.74988205  0.12684005  0.87800965  1
  Zn  Zn97  1  0.87846313  0.00192832  0.37609241  1
  Zn  Zn98  1  0.37853199  0.37258422  0.49968730  1
  Zn  Zn99  1  0.38050354  0.87493980  0.50210932  1
  Zn  Zn100  1  0.49131415  0.00297032  0.48977001  1
  Zn  Zn101  1  0.49731586  0.88115207  0.37843137  1
  Zn  Zn102  1  0.74580645  0.74731061  0.00096286  1
  Zn  Zn103  1  0.12470071  0.37596325  0.25293954  1
  Zn  Zn104  1  0.87055338  0.74820598  0.63150167  1
  Zn  Zn105  1  0.75407266  0.62434396  0.37660958  1
  Zn  Zn106  1  0.24556607  0.87191479  0.12690829  1
  Zn  Zn107  1  0.19015320  0.18529437  0.19641646  1
  Zn  Zn108  1  0.19182507  0.18797289  0.69211625  1
  Zn  Zn109  1  0.18821073  0.68829131  0.18360096  1
  Zn  Zn110  1  0.17942615  0.68752122  0.68754738  1
  Zn  Zn111  1  0.68777143  0.18700957  0.18286257  1
  Zn  Zn112  1  0.69055086  0.19276902  0.68853754  1
  Zn  Zn113  1  0.69090506  0.68747592  0.18867545  1
  Zn  Zn114  1  0.68752993  0.69171269  0.68862987  1
  Zn  Zn115  1  0.31464678  0.31085395  0.31276406  1
  Zn  Zn116  1  0.30850821  0.30986089  0.81097991  1
  Zn  Zn117  1  0.31755708  0.81046305  0.31468430  1
  Zn  Zn118  1  0.31019648  0.81039409  0.80859347  1
  Zn  Zn119  1  0.80964212  0.31515427  0.30797557  1
  Zn  Zn120  1  0.80933692  0.31333758  0.80903621  1
  Zn  Zn121  1  0.81811066  0.81283153  0.30914510  1
  Zn  Zn122  1  0.81344552  0.80982603  0.81268503  1
  Zn  Zn123  1  0.18494230  0.43500279  0.43693486  1
  Zn  Zn124  1  0.18625915  0.43631095  0.93584194  1
  Zn  Zn125  1  0.19266059  0.93453629  0.43744573  1
  Zn  Zn126  1  0.18267550  0.93642136  0.93498083  1
  Zn  Zn127  1  0.68608294  0.43886666  0.43583529  1
  Zn  Zn128  1  0.68866821  0.43750681  0.93291771  1
  Zn  Zn129  1  0.68417004  0.94378825  0.43866020  1
  Zn  Zn130  1  0.68291105  0.93818957  0.93660414  1
  Zn  Zn131  1  0.31343375  0.05977673  0.06622295  1
  Zn  Zn132  1  0.30958520  0.05952385  0.56631120  1
  Zn  Zn133  1  0.31734078  0.56549729  0.06000225  1
  Zn  Zn134  1  0.31527354  0.56181718  0.56145029  1
  Zn  Zn135  1  0.81029271  0.06545719  0.05962864  1
  Zn  Zn136  1  0.81479700  0.06304900  0.56277762  1
  Zn  Zn137  1  0.80820271  0.56542984  0.05832410  1
  Zn  Zn138  1  0.80884579  0.56331701  0.56043937  1
  Zn  Zn139  1  0.43899259  0.43614836  0.18306954  1
  Zn  Zn140  1  0.43928808  0.43976282  0.68770897  1
  Zn  Zn141  1  0.43771086  0.93599850  0.19045129  1
  Zn  Zn142  1  0.42826173  0.94515958  0.66926562  1
  Zn  Zn143  1  0.93569079  0.43771830  0.18695920  1
  Zn  Zn144  1  0.93307221  0.43931409  0.68504551  1
  Zn  Zn145  1  0.93712713  0.93991691  0.18509005  1
  Zn  Zn146  1  0.93756219  0.94016643  0.69043243  1
  Zn  Zn147  1  0.06665647  0.06475226  0.31548486  1
  Zn  Zn148  1  0.06186474  0.06263054  0.81125806  1
  Zn  Zn149  1  0.06106423  0.56102907  0.31226101  1
  Zn  Zn150  1  0.06302237  0.55806870  0.81158873  1
  Zn  Zn151  1  0.56245064  0.06467484  0.31332171  1
  Zn  Zn152  1  0.55794285  0.06102645  0.81586748  1
  Zn  Zn153  1  0.56288257  0.56356254  0.31267152  1
  Zn  Zn154  1  0.56307133  0.56296025  0.81461558  1
  Zn  Zn155  1  0.43673081  0.18891154  0.43762605  1
  Zn  Zn156  1  0.43631741  0.18390348  0.93968608  1
  Zn  Zn157  1  0.43614290  0.69037003  0.43619547  1
  Zn  Zn158  1  0.43758758  0.68704986  0.93471812  1
  Zn  Zn159  1  0.94066758  0.18474917  0.43972237  1
  Zn  Zn160  1  0.93562064  0.18565034  0.93998830  1
  Zn  Zn161  1  0.93691705  0.69367261  0.43980285  1
  Zn  Zn162  1  0.93289824  0.68905378  0.94192651  1
  Zn  Zn163  1  0.06330042  0.31278006  0.06192576  1
  Zn  Zn164  1  0.05905716  0.31093286  0.56159610  1
  Zn  Zn165  1  0.06441509  0.81499459  0.06213527  1
  Zn  Zn166  1  0.06816666  0.81249847  0.56149743  1
  Zn  Zn167  1  0.55819306  0.31077150  0.06009291  1
  Zn  Zn168  1  0.56517754  0.31256071  0.56219608  1
  Zn  Zn169  1  0.56363978  0.81470939  0.06878766  1
  Zn  Zn170  1  0.56281338  0.81268061  0.56539480  1
  O  O171  1  0.11370468  0.12521342  0.13086730  1
  O  O172  1  0.11218918  0.13014866  0.63116504  1
  O  O173  1  0.11846766  0.61955073  0.11601794  1
  O  O174  1  0.11632609  0.61705860  0.61568872  1
  O  O175  1  0.62778307  0.11178954  0.11743171  1
  O  O176  1  0.61919993  0.12548776  0.62204463  1
  O  O177  1  0.61442900  0.63074539  0.12236859  1
  O  O178  1  0.61625403  0.62643435  0.61925110  1
  O  O179  1  0.37523743  0.38819759  0.37713119  1
  O  O180  1  0.38023258  0.37782547  0.87564043  1
  O  O181  1  0.38594025  0.85113337  0.38989332  1
  O  O182  1  0.37012421  0.88599317  0.87116150  1
  O  O183  1  0.88843462  0.36633921  0.37407956  1
  O  O184  1  0.87522366  0.36957992  0.88854545  1
  O  O185  1  0.88538729  0.87757134  0.38337087  1
  O  O186  1  0.88849162  0.88646688  0.87029974  1
  O  O187  1  0.24880449  0.00983555  0.36830567  1
  O  O188  1  0.25597497  0.00587186  0.87292228  1
  O  O189  1  0.25633809  0.50468110  0.37056375  1
  O  O190  1  0.25472178  0.50757675  0.86907727  1
  O  O191  1  0.75107301  0.01236986  0.36792727  1
  O  O192  1  0.75756934  0.00066746  0.87129575  1
  O  O193  1  0.75195460  0.50218091  0.35963475  1
  O  O194  1  0.75032976  0.51510347  0.87572056  1
  O  O195  1  0.24802482  0.49554738  0.12778198  1
  O  O196  1  0.24565019  0.49355793  0.62968442  1
  O  O197  1  0.24851131  0.99819088  0.13847811  1
  O  O198  1  0.24798580  0.99046324  0.63848085  1
  O  O199  1  0.75284347  0.48983728  0.12981322  1
  O  O200  1  0.75270957  0.48657517  0.62464655  1
  O  O201  1  0.74469715  0.99516111  0.12917730  1
  O  O202  1  0.74404857  0.99672368  0.63263630  1
  O  O203  1  0.00083780  0.36988245  0.25674466  1
  O  O204  1  0.01286026  0.37714366  0.74843554  1
  O  O205  1  -0.00370731  0.87781880  0.26472768  1
  O  O206  1  0.00675137  0.87992569  0.76061057  1
  O  O207  1  0.49323265  0.36022982  0.25005684  1
  O  O208  1  0.50784341  0.37890333  0.75791322  1
  O  O209  1  0.50943768  0.86453114  0.24868812  1
  O  O210  1  0.50533194  0.86887340  0.73876087  1
  O  O211  1  0.48688247  0.13497846  0.25361885  1
  O  O212  1  0.48626345  0.12386725  0.74751402  1
  O  O213  1  0.49703573  0.62815857  0.23957449  1
  O  O214  1  0.49461965  0.62955784  0.74387738  1
  O  O215  1  0.99445342  0.13068768  0.24497968  1
  O  O216  1  0.99281751  0.11733156  0.73517569  1
  O  O217  1  0.99068916  0.62405359  0.24317597  1
  O  O218  1  1.00739443  0.62255757  0.73345326  1
  O  O219  1  0.36639887  0.25240271  0.00746094  1
  O  O220  1  0.37295730  0.25161763  0.51486265  1
  O  O221  1  0.36629351  0.74253301  0.00671084  1
  O  O222  1  0.35959655  0.73764961  0.50703955  1
  O  O223  1  0.87225439  0.25567436  0.01056694  1
  O  O224  1  0.87369439  0.24409099  0.51274815  1
  O  O225  1  0.86968271  0.74850650  0.01582049  1
  O  O226  1  0.87029784  0.76428764  0.50630287  1
  O  O227  1  0.12756989  0.25260837  0.48853155  1
  O  O228  1  0.13776069  0.25416930  0.99374021  1
  O  O229  1  0.12880061  0.73717356  0.49016787  1
  O  O230  1  0.13229544  0.73613447  1.00158342  1
  O  O231  1  0.62935374  0.23796240  0.49954389  1
  O  O232  1  0.62162230  0.24294473  0.99097313  1
  O  O233  1  0.63448764  0.74309553  0.50449392  1
  O  O234  1  0.62181684  0.75946816  0.98406825  1
  O  O235  1  0.48902397  0.25337873  0.13435500  1
  O  O236  1  0.49407158  0.24007419  0.62564954  1
  O  O237  1  0.49450350  0.74233222  0.12824450  1
  O  O238  1  0.50284063  0.74012206  0.63738792  1
  O  O239  1  0.99417598  0.24480569  0.12840088  1
  O  O240  1  0.99345923  0.23517062  0.61941171  1
  O  O241  1  0.99362497  0.74415916  0.12577759  1
  O  O242  1  1.00288816  0.73171906  0.61784451  1
  O  O243  1  0.00754001  0.25426769  0.37314645  1
  O  O244  1  0.01492849  0.24869021  0.88242174  1
  O  O245  1  0.00806230  0.76039038  0.37513100  1
  O  O246  1  -0.00482504  0.76442066  0.88013856  1
  O  O247  1  0.49757593  0.25322016  0.36091144  1
  O  O248  1  0.50277264  0.26209610  0.88021164  1
  O  O249  1  0.50474700  0.74027005  0.35879030  1
  O  O250  1  0.51019287  0.74639037  0.86483321  1
  O  O251  1  0.25515004  0.12255209  0.48669600  1
  O  O252  1  0.25481609  0.13168032  0.99287570  1
  O  O253  1  0.24120992  0.62687201  0.49573175  1
  O  O254  1  0.24370052  0.62887446  0.99062336  1
  O  O255  1  0.74531618  0.12596312  0.49086590  1
  O  O256  1  0.73376105  0.12660220  0.99803718  1
  O  O257  1  0.74286743  0.63450454  0.49908599  1
  O  O258  1  0.74736962  0.62910891  0.98409339  1
  O  O259  1  0.25532426  0.36686189  0.00386626  1
  O  O260  1  0.25258308  0.37672823  0.51374323  1
  O  O261  1  0.24593306  0.85976256  -0.00582077  1
  O  O262  1  0.25009325  0.86411236  0.50916337  1
  O  O263  1  0.75600304  0.37631013  0.00926800  1
  O  O264  1  0.74559094  0.37504984  0.51458604  1
  O  O265  1  0.74505532  0.87622310  0.01290694  1
  O  O266  1  0.75522165  0.87365553  0.50448161  1
  O  O267  1  0.13246074  0.50048296  0.24185407  1
  O  O268  1  0.13141051  0.49149678  0.74218697  1
  O  O269  1  0.14248163  1.00604132  0.25016738  1
  O  O270  1  0.13634226  0.99146705  0.75846694  1
  O  O271  1  0.64002793  0.50695958  0.24726683  1
  O  O272  1  0.62848814  0.48804591  0.75433391  1
  O  O273  1  0.63048722  0.99700834  0.24069445  1
  O  O274  1  0.62969698  0.99542100  0.74948955  1
  O  O275  1  0.36643386  0.01015543  0.24459177  1
  O  O276  1  0.36681178  0.00619472  0.75766984  1
  O  O277  1  0.37250302  0.50481106  0.25528246  1
  O  O278  1  0.36874023  0.50670998  0.75571545  1
  O  O279  1  0.86866533  0.00805708  0.25186419  1
  O  O280  1  0.87026597  0.01000098  0.75939538  1
  O  O281  1  0.86902237  0.51438495  0.24318417  1
  O  O282  1  0.86935084  0.49482214  0.75538834  1
  O  O283  1  0.11771984  0.36666444  0.37293182  1
  O  O284  1  0.12537704  0.36574491  0.86610200  1
  O  O285  1  0.11798951  0.86465361  0.38215110  1
  O  O286  1  0.10809784  0.87845895  0.86770918  1
  O  O287  1  0.62556319  0.36982538  0.37361187  1
  O  O288  1  0.61776244  0.36832657  0.86788160  1
  O  O289  1  0.62811638  0.87907740  0.36097775  1
  O  O290  1  0.62720707  0.86680453  0.86269037  1
  O  O291  1  0.36845081  0.13607183  0.13590467  1
  O  O292  1  0.38085430  0.13172189  0.63398974  1
  O  O293  1  0.38099809  0.63264310  0.13069791  1
  O  O294  1  0.38120304  0.62085638  0.63762466  1
  O  O295  1  0.87965999  0.13413087  0.12909230  1
  O  O296  1  0.88105408  0.13072799  0.63168435  1
  O  O297  1  0.88026350  0.63023725  0.13037884  1
  O  O298  1  0.88869249  0.62570687  0.61776212  1
  O  O299  1  0.25333439  0.25272513  0.11992144  1
  O  O300  1  0.25628386  0.25678793  0.62344631  1
  O  O301  1  0.25919851  0.74724848  0.11417878  1
  O  O302  1  0.23692658  0.75445285  0.61458173  1
  O  O303  1  0.75759063  0.26234504  0.12528595  1
  O  O304  1  0.75908164  0.25774229  0.62189739  1
  O  O305  1  0.75517754  0.75953759  0.12376223  1
  O  O306  1  0.74980034  0.76002572  0.61613915  1
  O  O307  1  0.24460245  0.24258038  0.37787866  1
  O  O308  1  0.24434901  0.24202724  0.88394862  1
  O  O309  1  0.24297009  0.74144331  0.38195698  1
  O  O310  1  0.25438039  0.73644750  0.87984544  1
  O  O311  1  0.75178627  0.23950760  0.37313515  1
  O  O312  1  0.73835204  0.24948769  0.87860682  1
  O  O313  1  0.75737153  0.75077474  0.38788138  1
  O  O314  1  0.73801369  0.74394787  0.87667075  1
  O  O315  1  -0.00304868  0.11813267  0.01067887  1
  O  O316  1  -0.00101125  0.11081577  0.51038789  1
  O  O317  1  0.00713255  0.61861601  0.00098161  1
  O  O318  1  0.00467623  0.61552556  0.50191521  1
  O  O319  1  0.50978169  0.11628487  -0.00165748  1
  O  O320  1  0.50733382  0.12597066  0.50888386  1
  O  O321  1  0.49387702  0.61346719  0.00591825  1
  O  O322  1  0.50663888  0.62440754  0.50764276  1
  O  O323  1  0.49855066  0.38505788  0.50099417  1
  O  O324  1  0.49171760  0.38091254  0.99255021  1
  O  O325  1  0.50295252  0.87946415  0.50056137  1
  O  O326  1  0.50111069  0.88746444  1.00169555  1
  O  O327  1  1.00355980  0.39018086  0.49504038  1
  O  O328  1  0.99298278  0.38231613  0.99927991  1
  O  O329  1  0.99574850  0.88547515  0.49817001  1
  O  O330  1  1.00124288  0.88449020  0.98816211  1
  O  O331  1  0.49307192  0.50044096  0.38118242  1
  O  O332  1  0.49408126  0.49152046  0.88036882  1
  O  O333  1  0.50161810  0.99763613  0.37608007  1
  O  O334  1  0.48976907  1.00151733  0.88821567  1
  O  O335  1  1.00392100  0.49201972  0.38624010  1
  O  O336  1  1.00045687  0.49508129  0.88600008  1
  O  O337  1  1.00293734  0.99660831  0.38773854  1
  O  O338  1  0.99436419  0.99729017  0.88228775  1
  O  O339  1  0.00035856  0.00878937  0.11732281  1
  O  O340  1  -0.00201393  0.01027038  0.61444173  1
  O  O341  1  0.00444031  0.50435495  0.11356319  1
  O  O342  1  0.00252498  0.50702025  0.61212599  1
  O  O343  1  0.50566767  -0.00363222  0.11426987  1
  O  O344  1  0.51221946  0.01753955  0.63387271  1
  O  O345  1  0.49433383  0.50889748  0.11365696  1
  O  O346  1  0.49518832  0.51125374  0.61619995  1
  O  O347  1  0.25044512  0.38155521  0.24297732  1
  O  O348  1  0.24238111  0.37893810  0.73983323  1
  O  O349  1  0.25741933  0.89010170  0.25569572  1
  O  O350  1  0.23775310  0.87824254  0.74866113  1
  O  O351  1  0.75636365  0.38928541  0.23688475  1
  O  O352  1  0.74091037  0.37559636  0.73947029  1
  O  O353  1  0.74520604  0.88108237  0.24356779  1
  O  O354  1  0.74180294  0.88255244  0.74652865  1
  O  O355  1  0.26019455  0.11691447  0.25999895  1
  O  O356  1  0.25828909  0.11569645  0.75655038  1
  O  O357  1  0.25720737  0.61921896  0.25340335  1
  O  O358  1  0.25449877  0.62281095  0.75398684  1
  O  O359  1  0.75567535  0.12167241  0.25437014  1
  O  O360  1  0.75727837  0.11806397  0.75225423  1
  O  O361  1  0.76001117  0.61525073  0.24938439  1
  O  O362  1  0.73899890  0.62602377  0.76699232  1
  O  O363  1  0.36177735  0.13140559  0.36749212  1
  O  O364  1  0.36524959  0.12127704  0.86931420  1
  O  O365  1  0.37093400  0.61533619  0.36702711  1
  O  O366  1  0.36811509  0.61791674  0.86477431  1
  O  O367  1  0.86995963  0.12455059  0.36776348  1
  O  O368  1  0.87442659  0.12009778  0.86709525  1
  O  O369  1  0.87705774  0.63184367  0.35930077  1
  O  O370  1  0.86279683  0.62793176  0.87471182  1
  O  O371  1  0.13284790  0.38162989  0.12594250  1
  O  O372  1  0.13060700  0.37691727  0.62977910  1
  O  O373  1  0.13114246  0.87570582  0.12559264  1
  O  O374  1  0.13158413  0.87268962  0.63666291  1
  O  O375  1  0.63886330  0.37125117  0.11984780  1
  O  O376  1  0.63781777  0.36736756  0.63384662  1
  O  O377  1  0.63265132  0.88653566  0.13274698  1
  O  O378  1  0.63228787  0.88242010  0.63614908  1
  O  O379  1  0.11882618  0.25220363  0.26064264  1
  O  O380  1  0.13273557  0.25813019  0.76150361  1
  O  O381  1  0.12330823  0.74080556  0.26371119  1
  O  O382  1  0.11509768  0.75956803  0.75229527  1
  O  O383  1  0.60720112  0.24061985  0.24569733  1
  O  O384  1  0.62529759  0.25795075  0.76116945  1
  O  O385  1  0.61831054  0.76008658  0.24184104  1
  O  O386  1  0.61578974  0.75876510  0.75772276  1
  O  O387  1  0.38065432  0.24257610  0.24333808  1
  O  O388  1  0.36702858  0.24005845  0.73929472  1
  O  O389  1  0.38345550  0.74109883  0.24137807  1
  O  O390  1  0.38533278  0.74051854  0.75723340  1
  O  O391  1  0.88101541  0.24776555  0.23824278  1
  O  O392  1  0.87157822  0.23726403  0.74295879  1
  O  O393  1  0.87667357  0.73791516  0.23932453  1
  O  O394  1  0.88251837  0.75720638  0.74316783  1
  O  O395  1  0.38642902  0.50192080  0.49163754  1
  O  O396  1  0.37708542  0.49223491  0.99097988  1
  O  O397  1  0.38729919  0.98561442  0.53854726  1
  O  O398  1  0.38596412  1.00368843  0.99462451  1
  O  O399  1  0.88559903  0.50337784  0.49569893  1
  O  O400  1  0.88313028  0.49343078  0.99627065  1
  O  O401  1  0.88014322  0.99014687  0.49798529  1
  O  O402  1  0.88254452  1.00731471  0.98783979  1
  O  O403  1  0.11332158  0.00255007  0.00054717  1
  O  O404  1  0.11565585  -0.00348462  0.50213518  1
  O  O405  1  0.11975485  0.50675967  0.00374387  1
  O  O406  1  0.12138707  0.50975999  0.50330485  1
  O  O407  1  0.61258721  0.00436627  0.00385207  1
  O  O408  1  0.62603262  0.01480023  0.51035033  1
  O  O409  1  0.61146662  0.49433757  -0.00430720  1
  O  O410  1  0.61361891  0.51119960  0.49746778  1
  O  O411  1  0.36743701  0.36434799  0.11943778  1
  O  O412  1  0.36813690  0.36808664  0.62833911  1
  O  O413  1  0.37035810  0.85981810  0.12977548  1
  O  O414  1  0.35391391  0.86272326  0.63665498  1
  O  O415  1  0.87065848  0.36957215  0.11469224  1
  O  O416  1  0.86267071  0.36421359  0.62905318  1
  O  O417  1  0.86502665  0.86724612  0.13272063  1
  O  O418  1  0.86665781  0.88046075  0.61844091  1
  O  O419  1  0.14177174  0.13402781  0.37087964  1
  O  O420  1  0.13836485  0.13120919  0.86827286  1
  O  O421  1  0.12910692  0.62784543  0.38160800  1
  O  O422  1  0.13482484  0.61789255  0.88141337  1
  O  O423  1  0.63404783  0.13045521  0.38218826  1
  O  O424  1  0.62302875  0.13324012  0.87959661  1
  O  O425  1  0.62885931  0.62505713  0.38660143  1
  O  O426  1  0.62716385  0.63950968  0.87477613  1
