# generated using pymatgen
data_V85Zn86O256
_symmetry_space_group_name_H-M   'P 1'
_cell_length_a   16.91282573
_cell_length_b   16.91341301
_cell_length_c   16.91503436
_cell_angle_alpha   90.04980142
_cell_angle_beta   89.97044693
_cell_angle_gamma   89.98792649
_symmetry_Int_Tables_number   1
_chemical_formula_structural   V85Zn86O256
_chemical_formula_sum   'V85 Zn86 O256'
_cell_volume   4838.60400932
_cell_formula_units_Z   1
loop_
 _symmetry_equiv_pos_site_id
 _symmetry_equiv_pos_as_xyz
  1  'x, y, z'
loop_
 _atom_site_type_symbol
 _atom_site_label
 _atom_site_symmetry_multiplicity
 _atom_site_fract_x
 _atom_site_fract_y
 _atom_site_fract_z
 _atom_site_occupancy
  V  V0  1  0.75831229  0.87450862  0.61494455  1
  V  V1  1  -0.00261676  -0.00539428  0.50006607  1
  V  V2  1  -0.00143331  0.37527691  0.87574689  1
  V  V3  1  0.87467410  0.12758191  0.25519598  1
  V  V4  1  0.36652776  0.37401219  -0.00865923  1
  V  V5  1  0.87297750  -0.00571501  0.37735142  1
  V  V6  1  0.00848159  0.13213407  0.12226790  1
  V  V7  1  0.24693245  0.74804892  0.49891171  1
  V  V8  1  0.36770113  0.24765777  0.61991944  1
  V  V9  1  0.74960605  0.62817932  0.87385571  1
  V  V10  1  0.37695559  0.87536900  0.50452603  1
  V  V11  1  0.25250407  0.13058511  0.37815490  1
  V  V12  1  0.36855790  -0.00167582  0.87057617  1
  V  V13  1  0.00145254  0.62650823  0.62285542  1
  V  V14  1  0.49502335  0.00630435  0.00473214  1
  V  V15  1  0.75005405  0.88049025  0.12626763  1
  V  V16  1  0.74802468  0.50587525  0.24942425  1
  V  V17  1  0.87565820  0.87973718  -0.00044818  1
  V  V18  1  0.36255709  0.12115140  0.75001742  1
  V  V19  1  0.61274039  0.50087069  0.61809484  1
  V  V20  1  0.62418312  0.13152426  -0.00361977  1
  V  V21  1  0.01501519  0.87276648  0.37365234  1
  V  V22  1  0.37813773  0.12311596  0.24667201  1
  V  V23  1  0.49473501  0.50095464  -0.00389213  1
  V  V24  1  0.38149258  0.61881690  0.75802313  1
  V  V25  1  0.62685671  0.74309849  0.37195328  1
  V  V26  1  -0.00087687  0.50141054  0.00189831  1
  V  V27  1  0.12523852  0.62761198  0.49275272  1
  V  V28  1  0.24977196  0.37535169  0.13369940  1
  V  V29  1  0.12528985  0.49803860  0.62545844  1
  V  V30  1  0.75460652  0.36919080  0.62504076  1
  V  V31  1  0.13025364  0.12719118  0.50201643  1
  V  V32  1  0.49882635  0.74459152  0.75002193  1
  V  V33  1  0.37299323  0.87601361  0.00170090  1
  V  V34  1  0.11981494  0.25685504  0.37746263  1
  V  V35  1  0.74999457  0.75265879  0.00075888  1
  V  V36  1  0.38219580  0.49704220  0.38145646  1
  V  V37  1  0.49871041  0.25122377  0.25426284  1
  V  V38  1  0.86456180  0.25586319  0.12330182  1
  V  V39  1  0.74774460  0.00604079  0.25545544  1
  V  V40  1  0.01558011  0.75604011  0.25070152  1
  V  V41  1  0.87619638  0.75346424  0.12897131  1
  V  V42  1  0.43575608  0.69068171  0.57776500  1
  V  V43  1  -0.00322853  0.12580245  0.62415699  1
  V  V44  1  0.38328167  0.74858864  0.12534020  1
  V  V45  1  0.50108727  0.12537294  0.62625898  1
  V  V46  1  0.62568683  0.75062707  0.87472043  1
  V  V47  1  0.12523806  0.37335220  0.75110511  1
  V  V48  1  0.12296480  -0.00706103  0.12434790  1
  V  V49  1  0.62674257  0.49191678  0.12159753  1
  V  V50  1  0.24351337  -0.00693772  0.25455655  1
  V  V51  1  0.74894919  0.24727530  0.48584734  1
  V  V52  1  0.62710371  0.00297195  0.62287874  1
  V  V53  1  0.87833388  0.36913256  0.49616876  1
  V  V54  1  0.61861936  0.00595844  0.12689871  1
  V  V55  1  0.62516267  0.87492342  0.74867324  1
  V  V56  1  0.74916249  0.00191571  0.74837387  1
  V  V57  1  0.24483328  0.12588390  0.89192658  1
  V  V58  1  -0.00304992  0.62813412  0.12696344  1
  V  V59  1  0.38020459  0.61302102  0.23882830  1
  V  V60  1  0.87556843  0.62987799  0.74644098  1
  V  V61  1  0.12799136  -0.00608250  0.63703417  1
  V  V62  1  0.87375036  0.00439212  0.87691953  1
  V  V63  1  0.62883043  0.12961338  0.48591809  1
  V  V64  1  0.24765119  0.61936160  0.36532835  1
  V  V65  1  0.24884370  0.87140350  0.63507560  1
  V  V66  1  0.50177990  0.00019633  0.49712188  1
  V  V67  1  0.87494509  0.50220279  0.87313326  1
  V  V68  1  0.00580662  0.87851165  0.86862870  1
  V  V69  1  0.37159755  0.24792729  0.12271519  1
  V  V70  1  0.12797818  0.50006510  0.13391218  1
  V  V71  1  0.87287664  0.13231741  0.74871652  1
  V  V72  1  0.75790282  0.73999363  0.49251499  1
  V  V73  1  0.00116316  0.49458005  0.49100876  1
  V  V74  1  0.24944292  0.75078109  0.00060782  1
  V  V75  1  0.63202153  0.36667936  0.25245695  1
  V  V76  1  0.62618378  0.37163362  0.75475138  1
  V  V77  1  -0.00063132  0.25077141  0.74669460  1
  V  V78  1  0.86902942  0.50443915  0.37506524  1
  V  V79  1  0.50232427  0.24602867  0.75884536  1
  V  V80  1  0.12465065  0.62632390  -0.00167016  1
  V  V81  1  0.12508458  0.24652440  0.88986440  1
  V  V82  1  0.12781724  0.75357055  0.86518471  1
  V  V83  1  0.61850999  0.62688193  0.00829183  1
  V  V84  1  0.25474802  0.49678503  0.75623338  1
  Zn  Zn85  1  0.00553282  0.00698594  -0.00224126  1
  Zn  Zn86  1  0.49989617  0.87350084  0.37067842  1
  Zn  Zn87  1  0.24489962  0.86943972  0.13442057  1
  Zn  Zn88  1  -0.00277461  0.25878246  0.25552593  1
  Zn  Zn89  1  0.73384613  0.26921209  -0.00370716  1
  Zn  Zn90  1  0.50173417  0.37309983  0.87693998  1
  Zn  Zn91  1  0.37754624  0.37349475  0.50162889  1
  Zn  Zn92  1  0.62072363  0.61883075  0.49858266  1
  Zn  Zn93  1  0.24600511  0.36599516  0.62139522  1
  Zn  Zn94  1  0.74758707  0.50245375  0.74409553  1
  Zn  Zn95  1  0.74223574  0.13333437  0.87258686  1
  Zn  Zn96  1  0.50313762  0.74971997  0.24468507  1
  Zn  Zn97  1  0.50887999  0.37496259  0.38310044  1
  Zn  Zn98  1  0.37314605  -0.00277231  0.37425807  1
  Zn  Zn99  1  0.25307661  0.61984940  0.87668942  1
  Zn  Zn100  1  0.00626243  0.75592926  0.74374096  1
  Zn  Zn101  1  0.87058826  0.63273340  0.25789983  1
  Zn  Zn102  1  0.87964617  0.75560238  0.61839179  1
  Zn  Zn103  1  0.12403148  0.38309723  0.26058127  1
  Zn  Zn104  1  0.49914416  0.87733954  0.87485717  1
  Zn  Zn105  1  0.62235173  0.87496759  0.25175838  1
  Zn  Zn106  1  0.86558144  0.38210457  0.00952244  1
  Zn  Zn107  1  0.19089530  0.18828953  0.19176035  1
  Zn  Zn108  1  0.18398627  0.18314766  0.69351683  1
  Zn  Zn109  1  0.19141491  0.68352842  0.18476719  1
  Zn  Zn110  1  0.19468862  0.68422541  0.68431317  1
  Zn  Zn111  1  0.68575031  0.18447112  0.18698103  1
  Zn  Zn112  1  0.68734839  0.19100980  0.68236815  1
  Zn  Zn113  1  0.68940197  0.68624992  0.18672744  1
  Zn  Zn114  1  0.68705076  0.68601116  0.68030664  1
  Zn  Zn115  1  0.30808153  0.31226776  0.31223071  1
  Zn  Zn116  1  0.30963865  0.30591820  0.81064354  1
  Zn  Zn117  1  0.31373455  0.80855596  0.31521527  1
  Zn  Zn118  1  0.31721095  0.80680819  0.81314305  1
  Zn  Zn119  1  0.81348739  0.31900208  0.31172458  1
  Zn  Zn120  1  0.80822018  0.31269340  0.81754792  1
  Zn  Zn121  1  0.81390478  0.81830882  0.31399065  1
  Zn  Zn122  1  0.81455980  0.81492938  0.80915788  1
  Zn  Zn123  1  0.19790853  0.43838371  0.44217639  1
  Zn  Zn124  1  0.18652517  0.43454792  0.94023185  1
  Zn  Zn125  1  0.18869206  0.94132345  0.44446802  1
  Zn  Zn126  1  0.18718616  0.93925503  0.94070615  1
  Zn  Zn127  1  0.68810090  0.43728718  0.43681689  1
  Zn  Zn128  1  0.68987574  0.44066876  0.93561311  1
  Zn  Zn129  1  0.68752085  0.93378385  0.43493907  1
  Zn  Zn130  1  0.68649747  0.94300618  0.93713817  1
  Zn  Zn131  1  0.30867730  0.06092450  0.06737580  1
  Zn  Zn132  1  0.31110332  0.05848968  0.56484334  1
  Zn  Zn133  1  0.31112261  0.55900506  0.06062907  1
  Zn  Zn134  1  0.30673155  0.55255066  0.56114836  1
  Zn  Zn135  1  0.81129823  0.06901945  0.06624815  1
  Zn  Zn136  1  0.81415597  0.06609738  0.56072487  1
  Zn  Zn137  1  0.80871061  0.56413788  0.06481635  1
  Zn  Zn138  1  0.81124116  0.55823540  0.56395987  1
  Zn  Zn139  1  0.44387072  0.43482163  0.18282710  1
  Zn  Zn140  1  0.43840413  0.43224699  0.68985133  1
  Zn  Zn141  1  0.43523228  0.93489073  0.18876739  1
  Zn  Zn142  1  0.43652143  0.93564051  0.68558619  1
  Zn  Zn143  1  0.94076426  0.43600435  0.19532350  1
  Zn  Zn144  1  0.93596282  0.43912368  0.68374144  1
  Zn  Zn145  1  0.94007641  0.93991991  0.19189478  1
  Zn  Zn146  1  0.93785239  0.94140299  0.68965690  1
  Zn  Zn147  1  0.06192488  0.06635746  0.31152960  1
  Zn  Zn148  1  0.06383239  0.06449260  0.81403801  1
  Zn  Zn149  1  0.05692001  0.56671707  0.31264856  1
  Zn  Zn150  1  0.06446516  0.56555903  0.81135730  1
  Zn  Zn151  1  0.55851107  0.06414267  0.31155383  1
  Zn  Zn152  1  0.55698383  0.06131551  0.81534838  1
  Zn  Zn153  1  0.56145490  0.56322938  0.30841588  1
  Zn  Zn154  1  0.56450418  0.55853830  0.81294535  1
  Zn  Zn155  1  0.43932585  0.18769566  0.43661039  1
  Zn  Zn156  1  0.43413264  0.18709493  0.94041908  1
  Zn  Zn157  1  0.43739417  0.68492242  0.41505428  1
  Zn  Zn158  1  0.43922504  0.68732578  0.93641493  1
  Zn  Zn159  1  0.93588761  0.18564784  0.43866247  1
  Zn  Zn160  1  0.93367757  0.19023083  0.93960158  1
  Zn  Zn161  1  0.93913095  0.68992285  0.43473292  1
  Zn  Zn162  1  0.93945559  0.69180694  0.93676283  1
  Zn  Zn163  1  0.05581745  0.31774257  0.06879140  1
  Zn  Zn164  1  0.06332810  0.31006449  0.56158420  1
  Zn  Zn165  1  0.06118145  0.81650064  0.05775690  1
  Zn  Zn166  1  0.06552958  0.81313651  0.55782176  1
  Zn  Zn167  1  0.55299946  0.31446897  0.06909856  1
  Zn  Zn168  1  0.56117495  0.31358634  0.56387241  1
  Zn  Zn169  1  0.56198203  0.81999535  0.06206299  1
  Zn  Zn170  1  0.57493252  0.81619126  0.55518901  1
  O  O171  1  0.11214820  0.12300515  0.13067847  1
  O  O172  1  0.11711030  0.11867680  0.62064500  1
  O  O173  1  0.11908398  0.61868689  0.11712412  1
  O  O174  1  0.11859247  0.61944908  0.61730517  1
  O  O175  1  0.62446836  0.11227769  0.11658715  1
  O  O176  1  0.61999610  0.11853597  0.61836476  1
  O  O177  1  0.62767812  0.62064684  0.11208029  1
  O  O178  1  0.62767797  0.60630864  0.62261800  1
  O  O179  1  0.37044589  0.39184985  0.36861770  1
  O  O180  1  0.37149291  0.36811343  0.88867469  1
  O  O181  1  0.37708227  0.87393458  0.39057616  1
  O  O182  1  0.37350124  0.88301816  0.88098899  1
  O  O183  1  0.87252805  0.38512496  0.38832359  1
  O  O184  1  0.88048011  0.39174881  0.87097720  1
  O  O185  1  0.88616432  0.89047242  0.37171916  1
  O  O186  1  0.87922688  0.88786800  0.87711753  1
  O  O187  1  0.24842615  0.00974000  0.37061141  1
  O  O188  1  0.25736990  0.01112934  0.88056360  1
  O  O189  1  0.26065929  0.51299882  0.37552911  1
  O  O190  1  0.24136635  0.50016881  0.86098410  1
  O  O191  1  0.75881064  -0.00355744  0.36831664  1
  O  O192  1  0.75710860  0.00505300  0.86620136  1
  O  O193  1  0.75748452  0.49714505  0.36573869  1
  O  O194  1  0.75971093  0.51042043  0.86907526  1
  O  O195  1  0.23729617  0.49227365  0.11875035  1
  O  O196  1  0.23980339  0.50013296  0.63794602  1
  O  O197  1  0.23723949  0.99856692  0.13404962  1
  O  O198  1  0.23977402  0.98628496  0.61959521  1
  O  O199  1  0.73655453  0.50378499  0.13127615  1
  O  O200  1  0.74372569  0.48570908  0.62450081  1
  O  O201  1  0.74352871  0.99739107  0.13234387  1
  O  O202  1  0.74740667  0.99413957  0.62803128  1
  O  O203  1  0.01234085  0.37119671  0.24884567  1
  O  O204  1  0.00172334  0.36841147  0.75412373  1
  O  O205  1  0.00091601  0.87115764  0.26316492  1
  O  O206  1  -0.00481347  0.87360677  0.76340632  1
  O  O207  1  0.51095186  0.36843689  0.25301764  1
  O  O208  1  0.50737936  0.36474845  0.75438298  1
  O  O209  1  0.50315388  0.86982678  0.25151687  1
  O  O210  1  0.51102995  0.86840444  0.74813254  1
  O  O211  1  0.48593659  0.13031579  0.25216275  1
  O  O212  1  0.49224323  0.12811579  0.74585684  1
  O  O213  1  0.48400465  0.62937215  0.24848565  1
  O  O214  1  0.49617486  0.63109713  0.75165923  1
  O  O215  1  0.99167664  0.12909703  0.24009916  1
  O  O216  1  0.99430152  0.13132017  0.74482517  1
  O  O217  1  0.99481809  0.63700366  0.24422658  1
  O  O218  1  0.99519729  0.62777337  0.73899278  1
  O  O219  1  0.37929403  0.26284730  0.00896885  1
  O  O220  1  0.37444050  0.23759331  0.51861529  1
  O  O221  1  0.36796813  0.75288128  0.00374788  1
  O  O222  1  0.37665112  0.74891714  0.50845268  1
  O  O223  1  0.87698828  0.25269132  0.01709825  1
  O  O224  1  0.86434249  0.25584991  0.49652924  1
  O  O225  1  0.87095891  0.75889036  0.00703669  1
  O  O226  1  0.86264113  0.74883153  0.49898224  1
  O  O227  1  0.12263677  0.23746247  0.49302146  1
  O  O228  1  0.11391650  0.25551410  0.98850598  1
  O  O229  1  0.13234000  0.73680972  0.49870827  1
  O  O230  1  0.13232354  0.74683499  0.99425895  1
  O  O231  1  0.63876905  0.24296417  0.50456426  1
  O  O232  1  0.61765386  0.23467376  1.01137812  1
  O  O233  1  0.63619450  0.74325223  0.49108679  1
  O  O234  1  0.62813254  0.74571239  0.99641565  1
  O  O235  1  0.48155951  0.25523504  0.13847371  1
  O  O236  1  0.49025479  0.24086062  0.63560826  1
  O  O237  1  0.48696158  0.75237206  0.11980331  1
  O  O238  1  0.50307538  0.75161790  0.62888427  1
  O  O239  1  0.99297128  0.24088820  0.12962950  1
  O  O240  1  1.00522275  0.24110544  0.63806495  1
  O  O241  1  0.99520799  0.75073585  0.13066510  1
  O  O242  1  1.00003096  0.74060335  0.62280366  1
  O  O243  1  0.01569884  0.24464301  0.37735696  1
  O  O244  1  0.00322510  0.25271524  0.86637150  1
  O  O245  1  -0.00255388  0.76492178  0.36780617  1
  O  O246  1  0.01006242  0.75967244  0.87343099  1
  O  O247  1  0.49261930  0.25207969  0.35904553  1
  O  O248  1  0.49533231  0.24834538  0.86286303  1
  O  O249  1  0.51276033  0.75377799  0.37048257  1
  O  O250  1  0.50746522  0.75459391  0.86631810  1
  O  O251  1  0.23968827  0.11654380  0.49393186  1
  O  O252  1  0.25218351  0.12723148  0.99045597  1
  O  O253  1  0.24251063  0.62768027  0.49460705  1
  O  O254  1  0.24408722  0.63150545  0.99687871  1
  O  O255  1  0.74527973  0.13941175  0.50464874  1
  O  O256  1  0.73054530  0.12099083  1.00039532  1
  O  O257  1  0.74957742  0.63782897  0.50401558  1
  O  O258  1  0.74314856  0.63401775  0.99377575  1
  O  O259  1  0.26162397  0.37853540  0.00827824  1
  O  O260  1  0.26450259  0.38279145  0.51122048  1
  O  O261  1  0.25490903  0.86670225  0.00372907  1
  O  O262  1  0.25768250  0.86510283  0.50257211  1
  O  O263  1  0.75284816  0.38105954  0.00395353  1
  O  O264  1  0.75483932  0.36510054  0.50542978  1
  O  O265  1  0.75493870  0.87288967  0.00476215  1
  O  O266  1  0.74572343  0.86414080  0.50830423  1
  O  O267  1  0.12040101  0.50522510  0.23719113  1
  O  O268  1  0.12815947  0.49370174  0.74481777  1
  O  O269  1  0.13245569  1.00790931  0.23917596  1
  O  O270  1  0.12006411  1.00232344  0.73624372  1
  O  O271  1  0.62886139  0.49416298  0.24149221  1
  O  O272  1  0.62684814  0.49117684  0.73932878  1
  O  O273  1  0.63036133  1.00204654  0.24434166  1
  O  O274  1  0.62796751  0.99366750  0.74573034  1
  O  O275  1  0.36691755  0.00719968  0.25120347  1
  O  O276  1  0.38101933  0.00632655  0.76081446  1
  O  O277  1  0.37821526  0.50998105  0.24833480  1
  O  O278  1  0.36810538  0.50589422  0.74502888  1
  O  O279  1  0.86803466  0.00763195  0.25590201  1
  O  O280  1  0.87030919  0.01142298  0.75666619  1
  O  O281  1  0.86568115  0.49931586  0.25746054  1
  O  O282  1  0.87628743  0.51324628  0.75559603  1
  O  O283  1  0.13510380  0.35953851  0.38175002  1
  O  O284  1  0.11760831  0.36762887  0.87105711  1
  O  O285  1  0.11409288  0.87959307  0.37863064  1
  O  O286  1  0.11750916  0.86846305  0.88052244  1
  O  O287  1  0.62505951  0.37993046  0.35702694  1
  O  O288  1  0.62745043  0.38019400  0.85835674  1
  O  O289  1  0.62348453  0.86037231  0.37419232  1
  O  O290  1  0.62507842  0.87058524  0.86554508  1
  O  O291  1  0.36628176  0.13395592  0.13460533  1
  O  O292  1  0.37854111  0.12681829  0.63374905  1
  O  O293  1  0.36835583  0.63011993  0.13330145  1
  O  O294  1  0.37618018  0.62530603  0.63048023  1
  O  O295  1  0.88270569  0.13284633  0.13546972  1
  O  O296  1  0.88838060  0.12005336  0.63373411  1
  O  O297  1  0.88054729  0.63649699  0.12480539  1
  O  O298  1  0.88316537  0.62575832  0.63052721  1
  O  O299  1  0.25950120  0.25885492  0.12940577  1
  O  O300  1  0.26348359  0.24391113  0.63427835  1
  O  O301  1  0.25588689  0.75036219  0.11368064  1
  O  O302  1  0.24695549  0.75508957  0.60966892  1
  O  O303  1  0.76241245  0.24282050  0.12093271  1
  O  O304  1  0.74934036  0.26483732  0.61703603  1
  O  O305  1  0.75583531  0.75926919  0.12036660  1
  O  O306  1  0.75117375  0.75724715  0.61217527  1
  O  O307  1  0.24216902  0.23680709  0.37434472  1
  O  O308  1  0.24005523  0.23552791  0.87277317  1
  O  O309  1  0.26171283  0.73455407  0.38935826  1
  O  O310  1  0.24495424  0.74909240  0.88513675  1
  O  O311  1  0.75044600  0.25395325  0.38685442  1
  O  O312  1  0.75842701  0.24371464  0.88699811  1
  O  O313  1  0.74590282  0.75383026  0.38543593  1
  O  O314  1  0.74621695  0.74834196  0.88007770  1
  O  O315  1  -0.00698182  0.12387727  0.01853121  1
  O  O316  1  0.00566163  0.11945170  0.50904211  1
  O  O317  1  0.00434018  0.62157724  0.00560150  1
  O  O318  1  0.00692313  0.61980706  0.50362515  1
  O  O319  1  0.50604773  0.11406961  -0.00195366  1
  O  O320  1  0.50788211  0.11915747  0.50470614  1
  O  O321  1  0.50793898  0.61764442  -0.00434042  1
  O  O322  1  0.49145386  0.63834313  0.51111386  1
  O  O323  1  0.49017432  0.36179064  0.49378169  1
  O  O324  1  0.48827941  0.38035034  0.99721994  1
  O  O325  1  0.49537496  0.88335099  0.50265272  1
  O  O326  1  0.49205115  0.88694948  0.99682775  1
  O  O327  1  0.99078996  0.38288132  0.50855154  1
  O  O328  1  0.99138070  0.38619065  0.99461649  1
  O  O329  1  1.00140383  0.88234235  0.48831261  1
  O  O330  1  0.99189253  0.88075456  0.98838406  1
  O  O331  1  0.48579688  0.49892310  0.36927930  1
  O  O332  1  0.50595569  0.49489178  0.89030173  1
  O  O333  1  0.49884870  0.99750388  0.38732817  1
  O  O334  1  0.48526085  0.99874198  0.88344218  1
  O  O335  1  0.99563352  0.50026774  0.38681426  1
  O  O336  1  0.99443636  0.49960268  0.88181554  1
  O  O337  1  0.99812215  0.99241855  0.38074527  1
  O  O338  1  0.99431877  0.99667171  0.87738729  1
  O  O339  1  0.00957139  0.00987851  0.12739950  1
  O  O340  1  0.00487659  0.00394418  0.61788192  1
  O  O341  1  0.00266559  0.50680545  0.11737756  1
  O  O342  1  0.00445013  0.50988132  0.61573626  1
  O  O343  1  0.50634895  -0.00433344  0.11731892  1
  O  O344  1  0.50507490  0.00488716  0.61512328  1
  O  O345  1  0.51355515  0.49649067  0.11097353  1
  O  O346  1  0.51388896  0.49150245  0.62572946  1
  O  O347  1  0.24252420  0.37536976  0.23860198  1
  O  O348  1  0.24406123  0.37944391  0.74742068  1
  O  O349  1  0.25493523  0.88816867  0.25413546  1
  O  O350  1  0.25737058  0.86345412  0.73427813  1
  O  O351  1  0.73776744  0.38304759  0.24881317  1
  O  O352  1  0.74665651  0.37459323  0.73947426  1
  O  O353  1  0.74890413  0.88870319  0.24392278  1
  O  O354  1  0.74004363  0.87894893  0.74332664  1
  O  O355  1  0.25816230  0.11635642  0.25871241  1
  O  O356  1  0.25972656  0.12278401  0.75885869  1
  O  O357  1  0.26214494  0.62868026  0.25636120  1
  O  O358  1  0.26134047  0.61707011  0.75157133  1
  O  O359  1  0.75716364  0.11410120  0.24662439  1
  O  O360  1  0.75692314  0.12172505  0.74758285  1
  O  O361  1  0.75270865  0.61174232  0.24714960  1
  O  O362  1  0.75868565  0.62681569  0.75367239  1
  O  O363  1  0.36718680  0.12208883  0.36960604  1
  O  O364  1  0.36343836  0.12002942  0.87164536  1
  O  O365  1  0.36963309  0.61323669  0.36007595  1
  O  O366  1  0.37349458  0.62670128  0.86221624  1
  O  O367  1  0.88425842  0.11419169  0.36224906  1
  O  O368  1  0.87751210  0.11555404  0.86839181  1
  O  O369  1  0.88097709  0.61012626  0.37531453  1
  O  O370  1  0.87382668  0.62006452  0.86798773  1
  O  O371  1  0.13286760  0.38464107  0.12121168  1
  O  O372  1  0.12408099  0.37911432  0.63289320  1
  O  O373  1  0.12303437  0.88863591  0.12662743  1
  O  O374  1  0.13428413  0.88178409  0.61966934  1
  O  O375  1  0.62149629  0.38174430  0.13685868  1
  O  O376  1  0.63372861  0.38081979  0.63183851  1
  O  O377  1  0.63320869  0.88744472  0.12500334  1
  O  O378  1  0.63528653  0.88237810  0.63092733  1
  O  O379  1  0.12537805  0.24626805  0.26929525  1
  O  O380  1  0.11617863  0.25355554  0.75914180  1
  O  O381  1  0.11503765  0.74808438  0.24283464  1
  O  O382  1  0.12793896  0.74367340  0.76209095  1
  O  O383  1  0.61805820  0.25941939  0.24216469  1
  O  O384  1  0.61466357  0.25733460  0.74280969  1
  O  O385  1  0.62787844  0.75018508  0.25826536  1
  O  O386  1  0.61819069  0.75514422  0.75077971  1
  O  O387  1  0.37719676  0.24335273  0.24515978  1
  O  O388  1  0.38088978  0.23786719  0.74482394  1
  O  O389  1  0.37448481  0.74091933  0.23967730  1
  O  O390  1  0.39100891  0.74146117  0.74963796  1
  O  O391  1  0.87322808  0.24416536  0.24410105  1
  O  O392  1  0.88210501  0.23883658  0.75449851  1
  O  O393  1  0.87999532  0.75345501  0.24197364  1
  O  O394  1  0.87920679  0.73955211  0.74781550  1
  O  O395  1  0.37830077  0.50590652  0.48385771  1
  O  O396  1  0.38146088  0.48664007  1.00406361  1
  O  O397  1  0.38400944  0.99251620  0.49940252  1
  O  O398  1  0.37828783  0.99743334  0.99663396  1
  O  O399  1  0.88138423  0.49347402  0.49465130  1
  O  O400  1  0.88423063  0.50653174  0.99263044  1
  O  O401  1  0.88796097  1.00799908  0.49250880  1
  O  O402  1  0.87367946  0.99907169  0.99201100  1
  O  O403  1  0.12476607  0.00209352  0.01853523  1
  O  O404  1  0.11355753  0.00913460  0.50696575  1
  O  O405  1  0.11277398  0.50488339  0.00315185  1
  O  O406  1  0.11872526  0.50654907  0.50427228  1
  O  O407  1  0.61462205  0.00561755  0.00660175  1
  O  O408  1  0.62086833  0.00587777  0.50361937  1
  O  O409  1  0.62058579  0.50858066  0.00479688  1
  O  O410  1  0.62619504  0.49945930  0.51124554  1
  O  O411  1  0.36630088  0.37025987  0.11945370  1
  O  O412  1  0.37492890  0.35444741  0.63142832  1
  O  O413  1  0.36851671  0.86582895  0.11911257  1
  O  O414  1  0.36695156  0.87842132  0.61278895  1
  O  O415  1  0.87926955  0.35874795  0.12974691  1
  O  O416  1  0.86332053  0.38063894  0.61414499  1
  O  O417  1  0.87076075  0.87423515  0.12037885  1
  O  O418  1  0.86259466  0.87425013  0.63307553  1
  O  O419  1  0.13074904  0.13009070  0.38463218  1
  O  O420  1  0.13666234  0.12909474  0.87516810  1
  O  O421  1  0.13337003  0.61940984  0.38176895  1
  O  O422  1  0.12554246  0.63503657  0.88228655  1
  O  O423  1  0.62327339  0.12285948  0.38670384  1
  O  O424  1  0.62262665  0.11860874  0.89159252  1
  O  O425  1  0.61914028  0.63633397  0.37844421  1
  O  O426  1  0.63088115  0.63176042  0.88226236  1
