# generated using pymatgen
data_V85Zn86O256
_symmetry_space_group_name_H-M   'P 1'
_cell_length_a   16.91462250
_cell_length_b   16.92264237
_cell_length_c   16.92301236
_cell_angle_alpha   89.96337099
_cell_angle_beta   89.99321222
_cell_angle_gamma   90.10562422
_symmetry_Int_Tables_number   1
_chemical_formula_structural   V85Zn86O256
_chemical_formula_sum   'V85 Zn86 O256'
_cell_volume   4844.03562101
_cell_formula_units_Z   1
loop_
 _symmetry_equiv_pos_site_id
 _symmetry_equiv_pos_as_xyz
  1  'x, y, z'
loop_
 _atom_site_type_symbol
 _atom_site_label
 _atom_site_symmetry_multiplicity
 _atom_site_fract_x
 _atom_site_fract_y
 _atom_site_fract_z
 _atom_site_occupancy
  V  V0  1  0.87594228  0.37380463  0.00311458  1
  V  V1  1  0.87512538  0.49914276  0.38125622  1
  V  V2  1  0.12898019  0.25485599  0.87332901  1
  V  V3  1  0.25061355  0.12222340  0.86644739  1
  V  V4  1  0.88006263  0.87288973  0.00037390  1
  V  V5  1  0.37216293  0.24723147  0.62344318  1
  V  V6  1  0.23953956  0.49998682  0.24757696  1
  V  V7  1  0.23697390  0.13118577  0.38676236  1
  V  V8  1  0.62544792  0.87200006  0.24970547  1
  V  V9  1  -0.00063340  0.12185267  0.13265741  1
  V  V10  1  0.14361097  0.87775299  0.74748905  1
  V  V11  1  0.87693261  0.86699123  0.50121793  1
  V  V12  1  0.36640747  0.87591899  0.50224500  1
  V  V13  1  0.37410096  0.61644369  0.74860806  1
  V  V14  1  0.75479401  0.25447502  0.49745310  1
  V  V15  1  0.00500907  0.37947738  0.87487688  1
  V  V16  1  0.37834956  0.49519078  0.88966139  1
  V  V17  1  0.24859097  0.62535142  0.87936034  1
  V  V18  1  0.74728789  0.62551122  0.38065747  1
  V  V19  1  0.87740939  0.63104595  0.23904555  1
  V  V20  1  0.75135432  -0.00063394  0.74902756  1
  V  V21  1  0.00289663  0.50504137  0.01618573  1
  V  V22  1  0.74855058  0.50072614  0.24586290  1
  V  V23  1  0.50022132  0.87368418  0.87747065  1
  V  V24  1  0.62110347  0.74422242  0.38230574  1
  V  V25  1  0.00072911  0.25654116  0.75261368  1
  V  V26  1  0.12253677  0.62602840  0.01145162  1
  V  V27  1  0.49934141  0.74877130  0.74983812  1
  V  V28  1  0.75114840  0.12350047  0.87638778  1
  V  V29  1  0.37507944  0.62699712  0.23670649  1
  V  V30  1  0.25205251  0.86661121  0.13850586  1
  V  V31  1  0.75030900  0.50193999  0.74923658  1
  V  V32  1  -0.00022533  0.75581655  0.74648336  1
  V  V33  1  0.87606524  0.24588802  0.13290833  1
  V  V34  1  0.26137007  0.25402684  -0.00034762  1
  V  V35  1  0.49581610  0.74630053  0.23587585  1
  V  V36  1  0.13632707  -0.00307764  0.13615546  1
  V  V37  1  0.62564325  0.74818644  0.87664040  1
  V  V38  1  0.62676240  0.12426045  0.49842929  1
  V  V39  1  0.75664390  0.74599026  0.00594957  1
  V  V40  1  0.00986904  0.87198434  0.37072414  1
  V  V41  1  0.61666338  0.24902470  0.37101081  1
  V  V42  1  0.87597798  0.12595020  0.75143639  1
  V  V43  1  0.12572266  0.49044027  0.62473767  1
  V  V44  1  0.12700705  0.12260576  0.00083893  1
  V  V45  1  0.61473754  0.62152983  0.00508322  1
  V  V46  1  0.37073950  0.37181997  0.50026103  1
  V  V47  1  0.62187646  0.37714516  0.74844163  1
  V  V48  1  0.75503972  0.00341784  0.24829535  1
  V  V49  1  0.62510450  0.25092973  0.87441385  1
  V  V50  1  0.49736626  0.87179953  0.37319290  1
  V  V51  1  0.75159077  0.62588809  0.87533040  1
  V  V52  1  0.50076923  0.13027820  0.13637385  1
  V  V53  1  0.61626736  0.37189263  0.24824715  1
  V  V54  1  0.00886065  0.63194172  0.61511878  1
  V  V55  1  0.62363937  0.12368801  -0.00027279  1
  V  V56  1  0.37251903  0.50125011  0.37437612  1
  V  V57  1  0.62456120  0.50415845  0.61407009  1
  V  V58  1  0.87781335  0.50250494  0.87549349  1
  V  V59  1  0.36696021  0.75217462  0.62578876  1
  V  V60  1  -0.00360158  0.36767986  0.38206422  1
  V  V61  1  0.75550482  0.86841894  0.62501921  1
  V  V62  1  0.75680604  0.87011926  0.12790697  1
  V  V63  1  0.12183961  0.36610369  0.24873938  1
  V  V64  1  0.35911061  0.12584247  0.25280379  1
  V  V65  1  0.60915379  0.50168514  0.12298771  1
  V  V66  1  0.49695935  -0.00024144  0.00258655  1
  V  V67  1  0.75399768  0.12484310  0.37203873  1
  V  V68  1  0.00483515  0.00200746  0.50046269  1
  V  V69  1  0.87592418  0.63272112  0.74159392  1
  V  V70  1  0.24089167  0.62106165  0.37865680  1
  V  V71  1  0.87886200  0.00200321  0.37025771  1
  V  V72  1  0.24118064  0.74736801  0.50112859  1
  V  V73  1  0.36562927  0.86249518  0.00469638  1
  V  V74  1  0.49728220  -0.00072024  0.49707398  1
  V  V75  1  0.50039151  0.62539513  0.61395092  1
  V  V76  1  0.00134935  0.12472536  0.62665830  1
  V  V77  1  0.37087766  -0.00160950  0.86869304  1
  V  V78  1  0.13773510  -0.00052201  0.62764475  1
  V  V79  1  0.25016811  0.37863909  0.12121535  1
  V  V80  1  0.75642882  0.37691931  0.62100475  1
  V  V81  1  0.62644751  -0.00255574  0.62326109  1
  V  V82  1  0.12966758  0.75095105  0.87712195  1
  V  V83  1  0.49984301  0.37880242  0.88868566  1
  V  V84  1  0.00409226  0.75006336  0.23696434  1
  Zn  Zn85  1  0.87444490  0.25379933  0.62347091  1
  Zn  Zn86  1  0.50139884  0.12569040  0.62671519  1
  Zn  Zn87  1  0.36295180  -0.00362076  0.36640913  1
  Zn  Zn88  1  0.38068714  0.25624334  0.12834797  1
  Zn  Zn89  1  0.24370803  0.36613351  0.63194887  1
  Zn  Zn90  1  0.00594768  0.50433338  0.49524835  1
  Zn  Zn91  1  0.00314260  -0.00226002  -0.00012855  1
  Zn  Zn92  1  0.50058850  0.50040946  0.49431336  1
  Zn  Zn93  1  0.74767517  0.74588295  0.50404813  1
  Zn  Zn94  1  0.62585343  0.87358828  0.75168510  1
  Zn  Zn95  1  0.62581848  -0.00097933  0.12617518  1
  Zn  Zn96  1  0.12358177  0.16655007  0.49773219  1
  Zn  Zn97  1  0.49459431  0.37212726  0.37240789  1
  Zn  Zn98  1  0.50027367  0.24609695  0.74942544  1
  Zn  Zn99  1  0.75309598  0.24776411  0.00173806  1
  Zn  Zn100  1  0.88086163  -0.00049235  0.87674704  1
  Zn  Zn101  1  -0.00084496  0.24492069  0.25505300  1
  Zn  Zn102  1  0.00350203  0.87816479  0.87379481  1
  Zn  Zn103  1  0.12305938  0.74655440  0.37409138  1
  Zn  Zn104  1  0.23805561  0.49064826  0.75556198  1
  Zn  Zn105  1  0.37721884  0.12111316  0.74672922  1
  Zn  Zn106  1  0.74854227  0.37175139  0.12541397  1
  Zn  Zn107  1  0.18767261  0.19060656  0.18542065  1
  Zn  Zn108  1  0.18634474  0.18971883  0.68767536  1
  Zn  Zn109  1  0.18853044  0.68949096  0.19066765  1
  Zn  Zn110  1  0.18622827  0.68232282  0.69056072  1
  Zn  Zn111  1  0.68845254  0.18692688  0.18713202  1
  Zn  Zn112  1  0.68659989  0.18842034  0.68660387  1
  Zn  Zn113  1  0.68506202  0.68599148  0.18965764  1
  Zn  Zn114  1  0.68442777  0.68716503  0.68731384  1
  Zn  Zn115  1  0.31293215  0.30959898  0.30910015  1
  Zn  Zn116  1  0.31521408  0.31473735  0.80666107  1
  Zn  Zn117  1  0.31280048  0.80782532  0.31465776  1
  Zn  Zn118  1  0.31455369  0.80888115  0.81602438  1
  Zn  Zn119  1  0.81023995  0.31502691  0.31070368  1
  Zn  Zn120  1  0.81342442  0.31322890  0.81283314  1
  Zn  Zn121  1  0.81591660  0.81149958  0.31493740  1
  Zn  Zn122  1  0.81397817  0.81267395  0.81463500  1
  Zn  Zn123  1  0.16472307  0.38125892  0.46261953  1
  Zn  Zn124  1  0.18795301  0.44133277  0.94052765  1
  Zn  Zn125  1  0.18890261  0.94361936  0.43561286  1
  Zn  Zn126  1  0.18822538  0.93758123  0.93979072  1
  Zn  Zn127  1  0.68778475  0.43572053  0.43415892  1
  Zn  Zn128  1  0.68789607  0.43931243  0.93930319  1
  Zn  Zn129  1  0.68850527  0.93345944  0.43573186  1
  Zn  Zn130  1  0.68879775  0.93662006  0.93991698  1
  Zn  Zn131  1  0.31416340  0.06302323  0.06138113  1
  Zn  Zn132  1  0.31253135  0.06874522  0.55600639  1
  Zn  Zn133  1  0.30580027  0.56351203  0.06302999  1
  Zn  Zn134  1  0.30767685  0.55840379  0.55986545  1
  Zn  Zn135  1  0.81557944  0.05953859  0.06293645  1
  Zn  Zn136  1  0.81582781  0.06076385  0.56005735  1
  Zn  Zn137  1  0.81026458  0.56001007  0.06311677  1
  Zn  Zn138  1  0.81493861  0.56498919  0.56203053  1
  Zn  Zn139  1  0.43181547  0.43849537  0.18774164  1
  Zn  Zn140  1  0.43760548  0.43557855  0.68742007  1
  Zn  Zn141  1  0.43414636  0.93983402  0.18729870  1
  Zn  Zn142  1  0.43755933  0.93503539  0.68639274  1
  Zn  Zn143  1  0.93479275  0.43642042  0.19292903  1
  Zn  Zn144  1  0.94056756  0.44396428  0.68758144  1
  Zn  Zn145  1  0.94125870  0.93576821  0.18548499  1
  Zn  Zn146  1  0.93842243  0.93828152  0.68750806  1
  Zn  Zn147  1  0.06825550  0.06265120  0.31257022  1
  Zn  Zn148  1  0.06439775  0.06154069  0.81236611  1
  Zn  Zn149  1  0.06004372  0.56121200  0.30845220  1
  Zn  Zn150  1  0.06097609  0.56593024  0.81106572  1
  Zn  Zn151  1  0.56526549  0.05840649  0.31341698  1
  Zn  Zn152  1  0.56159957  0.06051017  0.81138133  1
  Zn  Zn153  1  0.55897467  0.56392628  0.30861644  1
  Zn  Zn154  1  0.56080856  0.56221412  0.81151491  1
  Zn  Zn155  1  0.43309282  0.18508070  0.43749551  1
  Zn  Zn156  1  0.43966708  0.18677607  0.93523330  1
  Zn  Zn157  1  0.42973989  0.68747888  0.43269460  1
  Zn  Zn158  1  0.43579454  0.68498603  0.93884159  1
  Zn  Zn159  1  0.93591765  0.18535085  0.43998035  1
  Zn  Zn160  1  0.94007550  0.18731283  0.94218428  1
  Zn  Zn161  1  0.93480098  0.68767640  0.43134089  1
  Zn  Zn162  1  0.94195497  0.68967712  0.93608887  1
  Zn  Zn163  1  0.06546072  0.31203658  0.06419570  1
  Zn  Zn164  1  0.04908101  0.32016499  0.56777922  1
  Zn  Zn165  1  0.07022484  0.81256332  0.06339800  1
  Zn  Zn166  1  0.06415625  0.81812262  0.56448793  1
  Zn  Zn167  1  0.56602239  0.31034788  0.06304374  1
  Zn  Zn168  1  0.55838500  0.31347694  0.55958386  1
  Zn  Zn169  1  0.56746596  0.81365841  0.06075420  1
  Zn  Zn170  1  0.55911457  0.81391534  0.56235907  1
  O  O171  1  0.12358642  0.11568286  0.11942480  1
  O  O172  1  0.11554379  0.11883237  0.62479820  1
  O  O173  1  0.13079206  0.62901312  0.10988178  1
  O  O174  1  0.11173787  0.62266337  0.62187615  1
  O  O175  1  0.61605027  0.12271979  0.11882309  1
  O  O176  1  0.62790968  0.11179726  0.61833344  1
  O  O177  1  0.63029018  0.61453890  0.11743946  1
  O  O178  1  0.61442819  0.61621102  0.62912352  1
  O  O179  1  0.37324976  0.38069782  0.38005037  1
  O  O180  1  0.38393917  0.38805755  0.87254212  1
  O  O181  1  0.38016516  0.87761928  0.38234485  1
  O  O182  1  0.37775428  0.87951896  0.88670346  1
  O  O183  1  0.88537251  0.38684830  0.36219836  1
  O  O184  1  0.88528063  0.37886657  0.88220545  1
  O  O185  1  0.88163800  0.88533405  0.38277722  1
  O  O186  1  0.87724825  0.87636243  0.88641412  1
  O  O187  1  0.24968865  0.01958486  0.37767083  1
  O  O188  1  0.25908408  0.01000500  0.88288234  1
  O  O189  1  0.26032110  0.50638170  0.36538493  1
  O  O190  1  0.26148855  0.50528959  0.87432202  1
  O  O191  1  0.75887522  0.00158047  0.36823121  1
  O  O192  1  0.74945572  0.01018250  0.86919707  1
  O  O193  1  0.75238097  0.50611409  0.36484788  1
  O  O194  1  0.75686820  0.50651027  0.86904243  1
  O  O195  1  0.25139739  0.49203074  0.13475667  1
  O  O196  1  0.23460397  0.50358451  0.62865973  1
  O  O197  1  0.24114353  0.99488137  0.12127020  1
  O  O198  1  0.23598038  1.00850582  0.61991378  1
  O  O199  1  0.74634836  0.49723907  0.13722765  1
  O  O200  1  0.74364742  0.49679552  0.62822553  1
  O  O201  1  0.74951401  0.99301266  0.13327083  1
  O  O202  1  0.74460796  0.99200959  0.62751975  1
  O  O203  1  0.00629536  0.37281734  0.25602410  1
  O  O204  1  -0.00740421  0.36489874  0.75915947  1
  O  O205  1  -0.00957637  0.85950138  0.25769414  1
  O  O206  1  0.00481566  0.86451292  0.74776044  1
  O  O207  1  0.51175643  0.37783830  0.25122205  1
  O  O208  1  0.51372115  0.37737667  0.75672842  1
  O  O209  1  0.50290818  0.86967223  0.25438641  1
  O  O210  1  0.50107867  0.86657075  0.75749936  1
  O  O211  1  0.50621140  0.12330067  0.23719299  1
  O  O212  1  0.49776822  0.12560614  0.74608490  1
  O  O213  1  0.48748506  0.63336972  0.25077561  1
  O  O214  1  0.49214153  0.63093132  0.74327618  1
  O  O215  1  1.00539749  0.12581809  0.23745789  1
  O  O216  1  0.99647273  0.13411070  0.74562898  1
  O  O217  1  0.98673690  0.63524544  0.25307531  1
  O  O218  1  0.99470789  0.63733063  0.74064271  1
  O  O219  1  0.36386016  0.24629172  0.00036173  1
  O  O220  1  0.38059478  0.25602751  0.51201789  1
  O  O221  1  0.37754216  0.76421230  -0.00185850  1
  O  O222  1  0.36709161  0.75692180  0.50718548  1
  O  O223  1  0.87650446  0.25909800  0.00812846  1
  O  O224  1  0.85950221  0.24505679  0.50364233  1
  O  O225  1  0.86417276  0.75433514  -0.00469512  1
  O  O226  1  0.87138965  0.76384407  0.49369482  1
  O  O227  1  0.12832163  0.27799723  0.50291836  1
  O  O228  1  0.13078443  0.24365492  0.98921993  1
  O  O229  1  0.13833264  0.75683499  0.50054585  1
  O  O230  1  0.11857169  0.73762366  0.98974972  1
  O  O231  1  0.63422444  0.24476308  0.49300442  1
  O  O232  1  0.63039284  0.24239493  0.99213491  1
  O  O233  1  0.62469730  0.75551320  0.48631875  1
  O  O234  1  0.63654757  0.74314790  0.99605854  1
  O  O235  1  0.49864214  0.23397201  0.11732549  1
  O  O236  1  0.49238325  0.24687399  0.62681464  1
  O  O237  1  0.50564620  0.75509430  0.13692066  1
  O  O238  1  0.49152053  0.74341527  0.62927682  1
  O  O239  1  0.99467719  0.24065010  0.12572731  1
  O  O240  1  0.99548810  0.24499143  0.63632377  1
  O  O241  1  1.00153988  0.75499481  0.13817688  1
  O  O242  1  1.00488708  0.74083920  0.62972381  1
  O  O243  1  -0.01189728  0.26328211  0.37313389  1
  O  O244  1  0.00681481  0.25752154  0.87175054  1
  O  O245  1  0.00205044  0.75753593  0.36962317  1
  O  O246  1  0.01294131  0.75128576  0.86407223  1
  O  O247  1  0.51391048  0.24730304  0.37892122  1
  O  O248  1  0.50696926  0.25938438  0.87323709  1
  O  O249  1  0.50457591  0.75381919  0.36945318  1
  O  O250  1  0.50377367  0.75428803  0.87069194  1
  O  O251  1  0.24172208  0.13154057  0.49128262  1
  O  O252  1  0.24224425  0.13352616  0.99496177  1
  O  O253  1  0.25691958  0.63474159  0.48983243  1
  O  O254  1  0.23756991  0.62077424  0.98848811  1
  O  O255  1  0.74469083  0.12909990  0.49355546  1
  O  O256  1  0.74366809  0.12158347  0.99189343  1
  O  O257  1  0.75357369  0.62756925  0.48637436  1
  O  O258  1  0.74743843  0.63133926  0.99502013  1
  O  O259  1  0.24323983  0.36690099  0.00806331  1
  O  O260  1  0.26722761  0.38097114  0.51268734  1
  O  O261  1  0.26278001  0.87635392  0.00545791  1
  O  O262  1  0.26104859  0.86864019  0.49402315  1
  O  O263  1  0.76546948  0.37507796  -0.00091818  1
  O  O264  1  0.74462015  0.36714710  0.50848492  1
  O  O265  1  0.75716662  0.86720930  0.00744274  1
  O  O266  1  0.75937579  0.87595704  0.50727191  1
  O  O267  1  0.13504785  0.49310623  0.25184388  1
  O  O268  1  0.12305462  0.51380229  0.73313726  1
  O  O269  1  0.12503155  0.99923269  0.23479237  1
  O  O270  1  0.12210589  0.99328155  0.73672249  1
  O  O271  1  0.63046744  0.49554652  0.24304819  1
  O  O272  1  0.63192006  0.49544691  0.74253748  1
  O  O273  1  0.63584071  0.98945849  0.25081420  1
  O  O274  1  0.63228474  0.99651356  0.74049068  1
  O  O275  1  0.38565267  0.02049189  0.25249015  1
  O  O276  1  0.37920252  -0.00302671  0.76447799  1
  O  O277  1  0.36627861  0.50798557  0.25536331  1
  O  O278  1  0.37631847  0.51052856  0.75481133  1
  O  O279  1  0.86822107  -0.00668146  0.25831490  1
  O  O280  1  0.86917844  0.00743550  0.75263455  1
  O  O281  1  0.86729955  0.51079748  0.25575667  1
  O  O282  1  0.87029495  0.50957972  0.75587138  1
  O  O283  1  0.10342581  0.38242113  0.36523492  1
  O  O284  1  0.11308073  0.36973481  0.88156219  1
  O  O285  1  0.11253398  0.87625398  0.37766117  1
  O  O286  1  0.12677327  0.86828789  0.86820099  1
  O  O287  1  0.62262167  0.36647306  0.36712079  1
  O  O288  1  0.62164408  0.37309990  0.86833714  1
  O  O289  1  0.61885277  0.86683490  0.36843238  1
  O  O290  1  0.61943881  0.86684836  0.87681183  1
  O  O291  1  0.38501121  0.12517442  0.13430157  1
  O  O292  1  0.37831497  0.13391522  0.62412268  1
  O  O293  1  0.36732998  0.62449011  0.13714157  1
  O  O294  1  0.38042246  0.62844025  0.63192804  1
  O  O295  1  0.88767416  0.13210097  0.11628973  1
  O  O296  1  0.88671093  0.12515226  0.63031851  1
  O  O297  1  0.86887101  0.62350583  0.14042884  1
  O  O298  1  0.88449637  0.62171361  0.63607766  1
  O  O299  1  0.25134382  0.25609792  0.11451487  1
  O  O300  1  0.26606013  0.24713337  0.62890271  1
  O  O301  1  0.24513034  0.76734572  0.12736317  1
  O  O302  1  0.26030099  0.73979960  0.61896171  1
  O  O303  1  0.75960760  0.24983682  0.12116739  1
  O  O304  1  0.74906958  0.25967275  0.61760326  1
  O  O305  1  0.74619154  0.75709008  0.11769997  1
  O  O306  1  0.74262453  0.76394871  0.62336483  1
  O  O307  1  0.25358519  0.22980796  0.36684765  1
  O  O308  1  0.24517311  0.24607220  0.88011763  1
  O  O309  1  0.24630572  0.74104459  0.38262775  1
  O  O310  1  0.23933753  0.74108457  0.87215193  1
  O  O311  1  0.74564873  0.24557134  0.38035630  1
  O  O312  1  0.74570377  0.23844539  0.87547254  1
  O  O313  1  0.74057033  0.74265071  0.37449304  1
  O  O314  1  0.74463681  0.74464275  0.88225915  1
  O  O315  1  0.01482619  0.12613943  0.00840842  1
  O  O316  1  0.00600743  0.12110648  0.50808445  1
  O  O317  1  0.01133400  0.61860040  -0.00344602  1
  O  O318  1  -0.00851103  0.62645145  0.51271633  1
  O  O319  1  0.50367045  0.11661950  0.00571789  1
  O  O320  1  0.50714670  0.11424522  0.49985079  1
  O  O321  1  0.51561039  0.62972259  -0.00303465  1
  O  O322  1  0.49291876  0.62537564  0.51116750  1
  O  O323  1  0.48877345  0.37976695  0.49443962  1
  O  O324  1  0.50794103  0.37525900  0.98805927  1
  O  O325  1  0.48904502  0.87952374  0.49474068  1
  O  O326  1  0.49205920  0.88167714  0.99930278  1
  O  O327  1  0.98924523  0.38089187  0.48522236  1
  O  O328  1  0.99299583  0.38219563  0.99517539  1
  O  O329  1  0.99408417  0.88174261  0.49393983  1
  O  O330  1  0.98983501  0.87019307  1.00124826  1
  O  O331  1  0.48563228  0.50103486  0.37301115  1
  O  O332  1  0.48740351  0.49538947  0.87240138  1
  O  O333  1  0.50193463  0.99200812  0.38638639  1
  O  O334  1  0.49458460  0.99240916  0.88317467  1
  O  O335  1  0.98997001  0.49594243  0.37450067  1
  O  O336  1  0.99570241  0.49394425  0.87861216  1
  O  O337  1  0.99691446  0.99582186  0.38008782  1
  O  O338  1  1.00035213  0.99669786  0.88006243  1
  O  O339  1  0.01187211  0.00437684  0.12173110  1
  O  O340  1  0.00434103  0.00876909  0.61879263  1
  O  O341  1  -0.00487406  0.49759593  0.11490995  1
  O  O342  1  0.00613506  0.51355894  0.62270717  1
  O  O343  1  0.50194362  0.00941995  0.11747421  1
  O  O344  1  0.50860206  -0.00315023  0.61362138  1
  O  O345  1  0.50977639  0.49783611  0.12725924  1
  O  O346  1  0.50785552  0.50842543  0.62456800  1
  O  O347  1  0.24092374  0.38128134  0.24723664  1
  O  O348  1  0.24949144  0.37878343  0.74547429  1
  O  O349  1  0.26064093  0.87663272  0.23798334  1
  O  O350  1  0.24299570  0.87170654  0.75153060  1
  O  O351  1  0.73908305  0.38559646  0.24978697  1
  O  O352  1  0.74074405  0.38056754  0.74554672  1
  O  O353  1  0.74886921  0.87906764  0.24429790  1
  O  O354  1  0.75076204  0.88118684  0.74287360  1
  O  O355  1  0.25720148  0.12211031  0.24926726  1
  O  O356  1  0.25146681  0.12765979  0.76373685  1
  O  O357  1  0.25407746  0.61881207  0.25590714  1
  O  O358  1  0.25801790  0.62216141  0.76200592  1
  O  O359  1  0.74648127  0.11100764  0.25495658  1
  O  O360  1  0.75490645  0.12045943  0.75593046  1
  O  O361  1  0.75815795  0.62105661  0.25776745  1
  O  O362  1  0.75823014  0.62320041  0.75277902  1
  O  O363  1  0.36896506  0.12247253  0.36439181  1
  O  O364  1  0.36800846  0.11596913  0.87520349  1
  O  O365  1  0.36454474  0.61801790  0.36697873  1
  O  O366  1  0.36965597  0.61704018  0.87002170  1
  O  O367  1  0.87105705  0.11022800  0.37934557  1
  O  O368  1  0.86743895  0.12484652  0.87232200  1
  O  O369  1  0.86640019  0.61820421  0.36563743  1
  O  O370  1  0.87201904  0.62242415  0.86524541  1
  O  O371  1  0.13539111  0.37214255  0.13442498  1
  O  O372  1  0.11724998  0.38805483  0.63613800  1
  O  O373  1  0.13998470  0.88711105  0.11884821  1
  O  O374  1  0.12461018  0.89010230  0.63267423  1
  O  O375  1  0.62793067  0.38118262  0.13059079  1
  O  O376  1  0.63168986  0.38290928  0.63165873  1
  O  O377  1  0.63825420  0.87708812  0.13035061  1
  O  O378  1  0.63147456  0.88483641  0.62417725  1
  O  O379  1  0.12238642  0.26173897  0.24912452  1
  O  O380  1  0.11604416  0.24465894  0.76508137  1
  O  O381  1  0.10812199  0.74366460  0.25371743  1
  O  O382  1  0.12061700  0.75846518  0.75380185  1
  O  O383  1  0.63276477  0.25929107  0.25865301  1
  O  O384  1  0.62578993  0.25974801  0.75605053  1
  O  O385  1  0.61717337  0.75395710  0.25876500  1
  O  O386  1  0.61785451  0.75085229  0.75800776  1
  O  O387  1  0.37701736  0.23167173  0.24676821  1
  O  O388  1  0.38087174  0.24689270  0.73802040  1
  O  O389  1  0.38341618  0.73868719  0.25460108  1
  O  O390  1  0.37804373  0.74019846  0.74359853  1
  O  O391  1  0.87542021  0.25221203  0.23667145  1
  O  O392  1  0.88245266  0.24312507  0.74989811  1
  O  O393  1  0.88217295  0.73751526  0.25443250  1
  O  O394  1  0.88489014  0.74363392  0.75394261  1
  O  O395  1  0.37675340  0.49436003  0.49102067  1
  O  O396  1  0.37449487  0.50572024  0.98770852  1
  O  O397  1  0.38189560  0.99308961  0.49967203  1
  O  O398  1  0.38447822  0.99508860  0.99251463  1
  O  O399  1  0.87271293  0.50314388  0.48412027  1
  O  O400  1  0.88210014  0.49556809  0.99490168  1
  O  O401  1  0.88836459  0.99400943  0.49422795  1
  O  O402  1  0.87819849  0.98722308  0.99859916  1
  O  O403  1  0.12569179  0.00902447  0.00747893  1
  O  O404  1  0.11311050  -0.00631076  0.51237280  1
  O  O405  1  0.11572354  0.51538046  -0.00524951  1
  O  O406  1  0.12138754  0.48848384  0.51708063  1
  O  O407  1  0.61329585  0.00369827  0.00048312  1
  O  O408  1  0.61985141  0.00149330  0.50476753  1
  O  O409  1  0.63274215  0.50927571  0.01129395  1
  O  O410  1  0.62330216  0.49667771  0.51053919  1
  O  O411  1  0.35828712  0.37093601  0.13262323  1
  O  O412  1  0.37870180  0.36360565  0.61948992  1
  O  O413  1  0.36437423  0.88220886  0.11373530  1
  O  O414  1  0.37832359  0.86299542  0.61718993  1
  O  O415  1  0.87439325  0.36718919  0.11850203  1
  O  O416  1  0.86013744  0.37775379  0.63267899  1
  O  O417  1  0.86428996  0.87734380  0.11728544  1
  O  O418  1  0.86678308  0.88158704  0.61512254  1
  O  O419  1  0.13125488  0.12804186  0.38118453  1
  O  O420  1  0.13197255  0.13108321  0.88225683  1
  O  O421  1  0.13669230  0.62181103  0.37309819  1
  O  O422  1  0.13245838  0.63196900  0.87720829  1
  O  O423  1  0.63302003  0.13029998  0.37847541  1
  O  O424  1  0.63165712  0.12877426  0.87940122  1
  O  O425  1  0.63312643  0.63237183  0.36799176  1
  O  O426  1  0.63228490  0.62772505  0.88068959  1
