# generated using pymatgen
data_V85Zn86O256
_symmetry_space_group_name_H-M   'P 1'
_cell_length_a   16.97110768
_cell_length_b   16.96178082
_cell_length_c   16.96180243
_cell_angle_alpha   89.91674635
_cell_angle_beta   90.01239398
_cell_angle_gamma   89.94034077
_symmetry_Int_Tables_number   1
_chemical_formula_structural   V85Zn86O256
_chemical_formula_sum   'V85 Zn86 O256'
_cell_volume   4882.62007143
_cell_formula_units_Z   1
loop_
 _symmetry_equiv_pos_site_id
 _symmetry_equiv_pos_as_xyz
  1  'x, y, z'
loop_
 _atom_site_type_symbol
 _atom_site_label
 _atom_site_symmetry_multiplicity
 _atom_site_fract_x
 _atom_site_fract_y
 _atom_site_fract_z
 _atom_site_occupancy
  V  V0  1  0.37363658  0.75587484  0.62894713  1
  V  V1  1  0.51577081  0.25474273  0.75386166  1
  V  V2  1  0.24383398  0.75549126  0.00229367  1
  V  V3  1  -0.00173808  0.12220894  0.11437327  1
  V  V4  1  0.87500476  0.75675975  0.12052521  1
  V  V5  1  0.36621423  0.88016344  0.00722469  1
  V  V6  1  0.13679385  0.37336182  0.24856509  1
  V  V7  1  0.62109059  0.49720538  0.62823179  1
  V  V8  1  0.44231549  0.54796160  0.44293780  1
  V  V9  1  0.49909875  0.25228658  0.24915373  1
  V  V10  1  0.13041525  0.23500143  0.37558871  1
  V  V11  1  0.24994496  -0.00303303  0.24261406  1
  V  V12  1  -0.00650515  0.49442577  -0.00663841  1
  V  V13  1  0.12252947  -0.00260252  0.11365753  1
  V  V14  1  0.75804748  0.25765766  0.49897875  1
  V  V15  1  0.00156574  0.63372326  0.63008939  1
  V  V16  1  0.87800071  0.49560718  0.37866530  1
  V  V17  1  0.25211060  0.49507400  0.74701040  1
  V  V18  1  0.36857622  0.00438184  0.37364638  1
  V  V19  1  0.87087220  0.25663898  0.12260424  1
  V  V20  1  0.12898972  0.74241426  0.37316041  1
  V  V21  1  0.62751772  0.86507468  0.25124183  1
  V  V22  1  0.50760097  0.87674481  0.37407620  1
  V  V23  1  0.50373217  0.75691347  0.76542928  1
  V  V24  1  0.00472261  0.12093386  0.62934320  1
  V  V25  1  0.74860577  0.62471527  0.87445838  1
  V  V26  1  0.75176799  0.50050283  0.75498041  1
  V  V27  1  0.11406737  0.74935157  0.86528230  1
  V  V28  1  0.00276293  0.49380939  0.50020043  1
  V  V29  1  0.74907280  0.00050615  0.25065691  1
  V  V30  1  0.75211338  0.12665122  0.37452793  1
  V  V31  1  0.75012019  0.62631118  0.37628809  1
  V  V32  1  0.86951308  0.00654195  0.88997056  1
  V  V33  1  0.37476919  0.87813238  0.50112237  1
  V  V34  1  0.75152596  0.49807789  0.24967394  1
  V  V35  1  0.37687127  0.12825395  0.75443657  1
  V  V36  1  0.74611703  0.25177067  -0.01767617  1
  V  V37  1  0.74647631  0.75032311  0.49801824  1
  V  V38  1  0.00186424  0.24937630  0.24905703  1
  V  V39  1  0.49926747  0.62258083  0.62578000  1
  V  V40  1  0.37976443  0.37227466  0.49426885  1
  V  V41  1  -0.00013771  0.37076114  0.37761393  1
  V  V42  1  0.87901787  0.25096127  0.62642195  1
  V  V43  1  0.62428842  0.13326272  -0.00992233  1
  V  V44  1  0.36851830  0.37615112  0.00115126  1
  V  V45  1  0.12909890  0.61811823  0.50174118  1
  V  V46  1  0.24145324  0.25486368  0.00255367  1
  V  V47  1  0.49082085  0.74774250  0.25186412  1
  V  V48  1  0.62025800  0.00044609  0.12840517  1
  V  V49  1  0.54878116  -0.05761792  -0.05484900  1
  V  V50  1  0.62480863  0.50295296  0.12371955  1
  V  V51  1  0.62432964  0.25394253  0.37514198  1
  V  V52  1  0.37476622  0.49884985  0.87451014  1
  V  V53  1  -0.00011239  0.87338957  0.37515473  1
  V  V54  1  0.37428728  0.62731948  0.75166850  1
  V  V55  1  0.00048750  0.74810440  0.24981285  1
  V  V56  1  0.62763411  0.12678943  0.50215643  1
  V  V57  1  0.74722076  0.75407924  -0.00610806  1
  V  V58  1  0.49873022  0.50163241  -0.00081700  1
  V  V59  1  0.50310726  0.00239766  0.50064602  1
  V  V60  1  0.00110325  0.62143774  0.12294685  1
  V  V61  1  0.48773129  0.62497521  0.12834959  1
  V  V62  1  0.25761155  0.51491527  0.26231927  1
  V  V63  1  0.51140720  0.37413815  0.87319240  1
  V  V64  1  0.36993818  0.25334831  0.12304996  1
  V  V65  1  0.08280637  0.44359787  0.67991843  1
  V  V66  1  0.24722276  0.12617340  0.87341938  1
  V  V67  1  0.24976012  0.74868250  0.49736812  1
  V  V68  1  0.74643120  0.87565435  0.63093754  1
  V  V69  1  0.25210854  0.37093025  0.62425065  1
  V  V70  1  0.74717476  0.37565453  0.62732232  1
  V  V71  1  0.12108076  0.25666436  0.85247898  1
  V  V72  1  0.36735722  0.12778088  0.25097556  1
  V  V73  1  0.87699744  0.62400031  0.25194397  1
  V  V74  1  -0.00385518  0.89398473  0.87907007  1
  V  V75  1  0.49856082  0.12579711  0.11828016  1
  V  V76  1  0.86722657  0.12308964  0.75199954  1
  V  V77  1  0.13310587  0.49513404  0.12341905  1
  V  V78  1  0.87558520  0.12548687  0.24923161  1
  V  V79  1  0.87562004  0.87354504  0.50248217  1
  V  V80  1  0.37128788  -0.00521676  0.87794201  1
  V  V81  1  0.00671132  0.00160334  0.50223638  1
  V  V82  1  0.62794656  0.62282534  0.49792586  1
  V  V83  1  0.12942302  0.87223767  0.24222328  1
  V  V84  1  0.24971232  0.23919004  0.49813856  1
  Zn  Zn85  1  0.24953306  0.62910794  0.87463088  1
  Zn  Zn86  1  0.75559538  0.87683923  0.12534055  1
  Zn  Zn87  1  0.62496050  -0.00183612  0.62807361  1
  Zn  Zn88  1  0.62352189  0.37645570  0.24904085  1
  Zn  Zn89  1  0.87593600  0.75149329  0.63550620  1
  Zn  Zn90  1  0.74828984  0.37580819  0.12118102  1
  Zn  Zn91  1  0.62225769  0.87570426  0.76181389  1
  Zn  Zn92  1  0.11998018  0.12529650  -0.00443521  1
  Zn  Zn93  1  0.00063550  0.37259268  0.85640030  1
  Zn  Zn94  1  0.16846689  0.06945767  0.55960757  1
  Zn  Zn95  1  0.37800487  0.25180584  0.62930049  1
  Zn  Zn96  1  0.86955335  0.38015652  -0.01845576  1
  Zn  Zn97  1  0.88052348  0.62960893  0.76219575  1
  Zn  Zn98  1  0.12609568  0.62371893  -0.00212294  1
  Zn  Zn99  1  0.36461855  0.75318399  0.13030524  1
  Zn  Zn100  1  0.23896506  0.88835464  0.62338345  1
  Zn  Zn101  1  0.87571139  -0.00068432  0.37442943  1
  Zn  Zn102  1  0.50328439  0.12948712  0.62744108  1
  Zn  Zn103  1  0.74508529  0.00119494  0.75300582  1
  Zn  Zn104  1  0.11490430  0.88346623  0.74220169  1
  Zn  Zn105  1  0.61990568  0.63148455  -0.00518952  1
  Zn  Zn106  1  0.49832763  0.37931579  0.37497170  1
  Zn  Zn107  1  0.18641657  0.18507715  0.18454828  1
  Zn  Zn108  1  0.23340929  0.00781411  0.73757279  1
  Zn  Zn109  1  0.18870485  0.68378736  0.18353931  1
  Zn  Zn110  1  0.18739179  0.68892511  0.68483486  1
  Zn  Zn111  1  0.68650142  0.18828482  0.18425271  1
  Zn  Zn112  1  0.68968524  0.18835647  0.68601723  1
  Zn  Zn113  1  0.68717522  0.68468991  0.18340443  1
  Zn  Zn114  1  0.68702541  0.68960717  0.68888364  1
  Zn  Zn115  1  0.31174651  0.31477654  0.31590008  1
  Zn  Zn116  1  0.31202967  0.31171425  0.81514375  1
  Zn  Zn117  1  0.31214981  0.81602470  0.31570023  1
  Zn  Zn118  1  0.30211465  0.82060068  0.81229465  1
  Zn  Zn119  1  0.81475798  0.31457911  0.31076493  1
  Zn  Zn120  1  0.81756069  0.31547023  0.80629280  1
  Zn  Zn121  1  0.81331143  0.81099479  0.31414051  1
  Zn  Zn122  1  0.82072054  0.81525924  0.81301279  1
  Zn  Zn123  1  0.18753820  0.43176520  0.43567649  1
  Zn  Zn124  1  0.18317074  0.43627681  0.93286014  1
  Zn  Zn125  1  0.18848197  0.93175009  0.43142532  1
  Zn  Zn126  1  0.18333731  0.93685599  0.92319570  1
  Zn  Zn127  1  0.68586571  0.43883373  0.44037383  1
  Zn  Zn128  1  0.68804218  0.44052073  0.93863920  1
  Zn  Zn129  1  0.68992658  0.93872500  0.43786851  1
  Zn  Zn130  1  0.71111669  0.93837275  0.94219946  1
  Zn  Zn131  1  0.30956434  0.06445581  0.05943180  1
  Zn  Zn132  1  0.32872966  0.06535367  0.56801449  1
  Zn  Zn133  1  0.30847040  0.56549328  0.06200380  1
  Zn  Zn134  1  0.30549869  0.56294989  0.56966730  1
  Zn  Zn135  1  0.80469296  0.07235313  0.06587397  1
  Zn  Zn136  1  0.81530279  0.05950030  0.56396763  1
  Zn  Zn137  1  0.81340909  0.56834456  0.06061862  1
  Zn  Zn138  1  0.81665204  0.55939408  0.56363866  1
  Zn  Zn139  1  0.43303884  0.43766426  0.18729547  1
  Zn  Zn140  1  0.43812673  0.43516223  0.68570211  1
  Zn  Zn141  1  0.43881538  0.93785278  0.18531846  1
  Zn  Zn142  1  0.43556178  0.93897526  0.69010437  1
  Zn  Zn143  1  0.94215225  0.43570493  0.18755001  1
  Zn  Zn144  1  0.91830289  0.44061721  0.68304606  1
  Zn  Zn145  1  0.94095531  0.93874409  0.18790008  1
  Zn  Zn146  1  0.93888548  0.93714734  0.69250202  1
  Zn  Zn147  1  0.05975030  0.05806445  0.30841125  1
  Zn  Zn148  1  0.05834617  0.07197491  0.81123121  1
  Zn  Zn149  1  0.06833057  0.55941526  0.31234587  1
  Zn  Zn150  1  0.06249825  0.56854735  0.81729877  1
  Zn  Zn151  1  0.56066098  0.06606983  0.31167801  1
  Zn  Zn152  1  0.56449669  0.06545379  0.80616166  1
  Zn  Zn153  1  0.56915773  0.56966114  0.30733200  1
  Zn  Zn154  1  0.56655498  0.56559576  0.81265740  1
  Zn  Zn155  1  0.43739229  0.18809314  0.43615458  1
  Zn  Zn156  1  0.43654254  0.19115068  0.93463576  1
  Zn  Zn157  1  0.44277278  0.70757224  0.43812524  1
  Zn  Zn158  1  0.43074526  0.68909145  0.94143052  1
  Zn  Zn159  1  0.93970754  0.18509004  0.43910733  1
  Zn  Zn160  1  0.93571404  0.19576322  0.93209475  1
  Zn  Zn161  1  0.93906897  0.68606479  0.44264063  1
  Zn  Zn162  1  0.93350252  0.68487485  0.93912622  1
  Zn  Zn163  1  0.06041286  0.31455202  0.06479241  1
  Zn  Zn164  1  0.06363133  0.30014443  0.55836906  1
  Zn  Zn165  1  0.05844115  0.81400262  0.05650517  1
  Zn  Zn166  1  0.06503486  0.81243403  0.56303236  1
  Zn  Zn167  1  0.56208253  0.31661147  0.06102906  1
  Zn  Zn168  1  0.56198284  0.31404883  0.56488551  1
  Zn  Zn169  1  0.56492284  0.80719427  0.07080964  1
  Zn  Zn170  1  0.56344656  0.80929225  0.56454955  1
  O  O171  1  0.11497841  0.11560340  0.12363826  1
  O  O172  1  0.10339030  0.13277714  0.62819838  1
  O  O173  1  0.11289303  0.61776063  0.12346358  1
  O  O174  1  0.11428618  0.62845868  0.61520702  1
  O  O175  1  0.61755508  0.11879049  0.11785441  1
  O  O176  1  0.62424680  0.12458753  0.61211337  1
  O  O177  1  0.61417973  0.61436246  0.12532128  1
  O  O178  1  0.61742449  0.62103617  0.61807391  1
  O  O179  1  0.37745978  0.37503695  0.38866315  1
  O  O180  1  0.38095814  0.38069562  0.88505726  1
  O  O181  1  0.38703348  0.88459980  0.38016299  1
  O  O182  1  0.37080513  0.88905865  0.88400759  1
  O  O183  1  0.89149454  0.37832151  0.36988762  1
  O  O184  1  0.88871258  0.37047231  0.87036823  1
  O  O185  1  0.88209288  0.87459935  0.38296228  1
  O  O186  1  0.88092917  0.89719443  0.87428363  1
  O  O187  1  0.26266554  -0.00525652  0.36421836  1
  O  O188  1  0.25901265  0.01194510  0.88136890  1
  O  O189  1  0.24314046  0.49812940  0.36084739  1
  O  O190  1  0.25527082  0.50062122  0.86294190  1
  O  O191  1  0.75261776  0.00850197  0.36901107  1
  O  O192  1  0.76479647  0.00585120  0.87172680  1
  O  O193  1  0.75742788  0.50253187  0.36930732  1
  O  O194  1  0.74435069  0.50679750  0.86438900  1
  O  O195  1  0.23606897  0.50664500  0.13102109  1
  O  O196  1  0.24878025  0.48911155  0.63637850  1
  O  O197  1  0.24130736  1.00594346  0.13629595  1
  O  O198  1  0.24570845  1.00867837  0.61916509  1
  O  O199  1  0.74310008  0.50226883  0.13161101  1
  O  O200  1  0.74470326  0.49283927  0.62717807  1
  O  O201  1  0.73749663  1.00060287  0.13021884  1
  O  O202  1  0.74708529  0.98890297  0.62428752  1
  O  O203  1  0.00930711  0.36730431  0.25671676  1
  O  O204  1  0.01074202  0.39337452  0.73582556  1
  O  O205  1  0.00771141  0.86736596  0.25618539  1
  O  O206  1  -0.00394057  0.87580192  0.77143384  1
  O  O207  1  0.49869936  0.36330986  0.25167032  1
  O  O208  1  0.49372454  0.36265695  0.75839852  1
  O  O209  1  0.50703608  0.87163086  0.25602004  1
  O  O210  1  0.49852635  0.86056611  0.74817899  1
  O  O211  1  0.49288619  0.13551900  0.24096341  1
  O  O212  1  0.49665299  0.13988172  0.75218640  1
  O  O213  1  0.50353432  0.63760073  0.24377180  1
  O  O214  1  0.48969575  0.63553690  0.74729046  1
  O  O215  1  0.99293697  0.13049976  0.24188403  1
  O  O216  1  0.98613069  0.12279598  0.73518579  1
  O  O217  1  0.99816656  0.62882019  0.24406478  1
  O  O218  1  1.00057998  0.61620576  0.73323433  1
  O  O219  1  0.36460417  0.25809511  0.00161485  1
  O  O220  1  0.36929409  0.25723967  0.50004939  1
  O  O221  1  0.36166075  0.76058510  -0.00005501  1
  O  O222  1  0.36825416  0.75707429  0.50749817  1
  O  O223  1  0.86137269  0.25059626  0.00531609  1
  O  O224  1  0.86188237  0.24277615  0.50517157  1
  O  O225  1  0.86297690  0.74195373  0.01185573  1
  O  O226  1  0.86955058  0.76096706  0.50296299  1
  O  O227  1  0.13685488  0.24938976  0.48791013  1
  O  O228  1  0.13578501  0.25031054  1.00628141  1
  O  O229  1  0.13236968  0.74341128  0.49153934  1
  O  O230  1  0.13274782  0.74986386  0.99314777  1
  O  O231  1  0.63151092  0.24455906  0.49355426  1
  O  O232  1  0.63688971  0.24722638  1.00490531  1
  O  O233  1  0.63218606  0.73523750  0.50412696  1
  O  O234  1  0.64257937  0.74817570  1.01157510  1
  O  O235  1  0.49397379  0.24600482  0.13186384  1
  O  O236  1  0.49927568  0.25271142  0.64035122  1
  O  O237  1  0.49531177  0.74223716  0.13420832  1
  O  O238  1  0.48622004  0.74380137  0.62611964  1
  O  O239  1  0.99234192  0.24330463  0.13032799  1
  O  O240  1  0.98619761  0.23585423  0.61251354  1
  O  O241  1  0.99481105  0.74120469  0.12786846  1
  O  O242  1  0.99738162  0.73584798  0.61852680  1
  O  O243  1  0.00646588  0.25397427  0.37139212  1
  O  O244  1  0.01659507  0.24986545  0.87393964  1
  O  O245  1  0.00797134  0.75352088  0.37084382  1
  O  O246  1  0.01284275  0.74304477  0.87810616  1
  O  O247  1  0.50831378  0.25010627  0.36651686  1
  O  O248  1  0.49852219  0.25970343  0.86405627  1
  O  O249  1  0.50401823  0.76447844  0.36565542  1
  O  O250  1  0.49492902  0.74761717  0.86344642  1
  O  O251  1  0.25439367  0.13617413  0.50638481  1
  O  O252  1  0.24869303  0.13634680  0.98966591  1
  O  O253  1  0.23804431  0.63159663  0.50582368  1
  O  O254  1  0.24852868  0.63922470  0.99579453  1
  O  O255  1  0.74377234  0.13125406  0.49409779  1
  O  O256  1  0.73844854  0.14252965  1.00318566  1
  O  O257  1  0.74597392  0.63073752  0.49831131  1
  O  O258  1  0.74566728  0.63420311  0.99527589  1
  O  O259  1  0.25732396  0.36853346  -0.00550599  1
  O  O260  1  0.26067548  0.37175626  0.50455825  1
  O  O261  1  0.25353170  0.86590470  -0.00443086  1
  O  O262  1  0.25747754  0.86758934  0.50041455  1
  O  O263  1  0.75146598  0.36557115  0.00146909  1
  O  O264  1  0.74641921  0.36634088  0.50877630  1
  O  O265  1  0.75439180  0.85983450  0.00877886  1
  O  O266  1  0.75605178  0.86819631  0.50307280  1
  O  O267  1  0.13193655  0.49183065  0.24326426  1
  O  O268  1  0.13486221  0.50372134  0.74989476  1
  O  O269  1  0.13255943  0.99090778  0.24433007  1
  O  O270  1  0.12758426  0.99347864  0.77769129  1
  O  O271  1  0.63490958  0.49887788  0.24382586  1
  O  O272  1  0.63484532  0.50706010  0.73536738  1
  O  O273  1  0.62877120  0.99591443  0.24454577  1
  O  O274  1  0.62563916  0.99400848  0.74609865  1
  O  O275  1  0.36909455  0.00562832  0.25287827  1
  O  O276  1  0.38412968  0.01421579  0.76191370  1
  O  O277  1  0.35550360  0.49489991  0.24559028  1
  O  O278  1  0.37051861  0.50824691  0.75248749  1
  O  O279  1  0.86722715  0.00715569  0.24881751  1
  O  O280  1  0.87146034  0.01323885  0.75358289  1
  O  O281  1  0.87072382  0.50433976  0.25519916  1
  O  O282  1  0.85633598  0.51294608  0.74213322  1
  O  O283  1  0.11614304  0.36587341  0.36603229  1
  O  O284  1  0.11991399  0.36246002  0.87331680  1
  O  O285  1  0.12066358  0.86231247  0.36429315  1
  O  O286  1  0.11022245  0.86339353  0.87571032  1
  O  O287  1  0.62242222  0.36454458  0.37450071  1
  O  O288  1  0.61010706  0.38174523  0.87822676  1
  O  O289  1  0.61507487  0.88453401  0.36663466  1
  O  O290  1  0.61515114  0.89091478  0.88770342  1
  O  O291  1  0.38229431  0.13001754  0.13014663  1
  O  O292  1  0.38455324  0.13154542  0.63935099  1
  O  O293  1  0.38485492  0.62869918  0.12279631  1
  O  O294  1  0.37958740  0.63163524  0.63224299  1
  O  O295  1  0.87964205  0.13473741  0.13075023  1
  O  O296  1  0.87772148  0.13077258  0.63193490  1
  O  O297  1  0.88587475  0.63034904  0.13276250  1
  O  O298  1  0.89489098  0.62405334  0.61711480  1
  O  O299  1  0.25881982  0.24393248  0.11588993  1
  O  O300  1  0.25530892  0.26486094  0.61338685  1
  O  O301  1  0.24721185  0.74905639  0.10910354  1
  O  O302  1  0.26196546  0.74910981  0.61525670  1
  O  O303  1  0.75840159  0.25412096  0.12378765  1
  O  O304  1  0.75392224  0.25724462  0.61703651  1
  O  O305  1  0.76087460  0.74789887  0.12149329  1
  O  O306  1  0.75142803  0.75519363  0.61294603  1
  O  O307  1  0.24215905  0.25292402  0.38445767  1
  O  O308  1  0.24020783  0.24623786  0.88163739  1
  O  O309  1  0.24504384  0.75312177  0.38768453  1
  O  O310  1  0.23924965  0.75240846  0.88454936  1
  O  O311  1  0.74456181  0.24883895  0.38074478  1
  O  O312  1  0.75044956  0.25399080  0.88424890  1
  O  O313  1  0.75475653  0.74362438  0.38957193  1
  O  O314  1  0.75293727  0.74855762  0.89008229  1
  O  O315  1  -0.00090681  0.13292928  0.01203476  1
  O  O316  1  -0.00855604  0.11141792  0.51059334  1
  O  O317  1  0.00094688  0.61376102  0.00834558  1
  O  O318  1  0.01074578  0.61647914  0.50677976  1
  O  O319  1  0.50443117  0.13704249  0.01326576  1
  O  O320  1  0.50899089  0.11950742  0.49971947  1
  O  O321  1  0.49910669  0.62062499  0.00831734  1
  O  O322  1  0.50370237  0.61875802  0.49949722  1
  O  O323  1  0.48547775  0.37079205  0.49851402  1
  O  O324  1  0.49265313  0.38190145  0.99229412  1
  O  O325  1  0.49860627  0.88136116  0.49217190  1
  O  O326  1  0.49545924  0.87499212  1.00079603  1
  O  O327  1  1.00939420  0.38166335  0.49039040  1
  O  O328  1  0.99761674  0.38930503  1.00421478  1
  O  O329  1  0.99242958  0.87885612  0.49559631  1
  O  O330  1  0.99457589  0.86600041  0.97719599  1
  O  O331  1  0.50276596  0.49902991  0.37511603  1
  O  O332  1  0.49315852  0.49624949  0.87767737  1
  O  O333  1  0.49386107  0.99731652  0.38204231  1
  O  O334  1  0.49342324  1.00190805  0.88266778  1
  O  O335  1  0.99905329  0.49104589  0.38006469  1
  O  O336  1  1.00686670  0.49997045  0.89138501  1
  O  O337  1  0.99698630  0.99117325  0.38019535  1
  O  O338  1  0.98952879  0.99949376  0.88183570  1
  O  O339  1  0.00924306  0.00993028  0.12977093  1
  O  O340  1  -0.00596611  0.01076256  0.61700404  1
  O  O341  1  0.00859293  0.50601693  0.12094569  1
  O  O342  1  0.00791347  0.49916827  0.61824306  1
  O  O343  1  0.51101169  0.01132245  0.13138580  1
  O  O344  1  0.50060957  0.00091911  0.61024159  1
  O  O345  1  0.50440820  0.50689589  0.12294375  1
  O  O346  1  0.50873672  0.50788407  0.63123839  1
  O  O347  1  0.23894496  0.37683626  0.25132272  1
  O  O348  1  0.25964213  0.38310922  0.73968363  1
  O  O349  1  0.24099400  0.88268293  0.25135838  1
  O  O350  1  0.25111328  0.88968643  0.74181917  1
  O  O351  1  0.74949205  0.38812841  0.24799002  1
  O  O352  1  0.75193327  0.38380358  0.73598242  1
  O  O353  1  0.74244397  0.87964408  0.25015705  1
  O  O354  1  0.74407854  0.87512955  0.74380309  1
  O  O355  1  0.26218910  0.11847414  0.24647034  1
  O  O356  1  0.26188370  0.12221520  0.76631769  1
  O  O357  1  0.24703418  0.61522921  0.25250883  1
  O  O358  1  0.26178010  0.61907270  0.74684591  1
  O  O359  1  0.75446905  0.12194927  0.25503915  1
  O  O360  1  0.76280747  0.12265174  0.74435066  1
  O  O361  1  0.75446596  0.61555775  0.25513304  1
  O  O362  1  0.74619735  0.61948589  0.75835889  1
  O  O363  1  0.38315779  0.11559981  0.36292345  1
  O  O364  1  0.36977286  0.11782233  0.87478273  1
  O  O365  1  0.38890695  0.61358277  0.39277806  1
  O  O366  1  0.37213211  0.61865670  0.86677145  1
  O  O367  1  0.87017020  0.12538263  0.36588152  1
  O  O368  1  0.88323556  0.11862394  0.86100068  1
  O  O369  1  0.87103047  0.61803514  0.37156491  1
  O  O370  1  0.85701222  0.62461443  0.87894704  1
  O  O371  1  0.11907515  0.38424893  0.13648949  1
  O  O372  1  0.13258811  0.37376469  0.61971601  1
  O  O373  1  0.11459521  0.88106450  0.13518772  1
  O  O374  1  0.12569043  0.87324710  0.62904733  1
  O  O375  1  0.62435840  0.38991576  0.12778932  1
  O  O376  1  0.63258329  0.38601967  0.61915850  1
  O  O377  1  0.62497404  0.88494036  0.13526752  1
  O  O378  1  0.63760877  0.87467526  0.62149748  1
  O  O379  1  0.12207807  0.25556883  0.25312473  1
  O  O380  1  0.12796267  0.25291416  0.75773308  1
  O  O381  1  0.12292144  0.75423473  0.25383478  1
  O  O382  1  0.13130490  0.75193324  0.76388413  1
  O  O383  1  0.61720078  0.25097334  0.25660381  1
  O  O384  1  0.61448567  0.24806168  0.75000108  1
  O  O385  1  0.61891532  0.76206307  0.24339643  1
  O  O386  1  0.60729968  0.75315741  0.74757456  1
  O  O387  1  0.37903116  0.24471826  0.24635538  1
  O  O388  1  0.38026639  0.23898812  0.75493332  1
  O  O389  1  0.38615036  0.75902646  0.24892756  1
  O  O390  1  0.37796692  0.74627614  0.74526595  1
  O  O391  1  0.88003575  0.24479221  0.24279182  1
  O  O392  1  0.87032602  0.23700123  0.73731731  1
  O  O393  1  0.88154197  0.74191385  0.24606956  1
  O  O394  1  0.86981732  0.74134549  0.74746597  1
  O  O395  1  0.37614679  0.49334720  0.50240332  1
  O  O396  1  0.37754821  0.49460803  0.99628207  1
  O  O397  1  0.38372362  0.99907454  0.49019591  1
  O  O398  1  0.37231764  0.99280179  0.99435483  1
  O  O399  1  0.89266377  0.50253206  0.49316056  1
  O  O400  1  0.88980254  0.49790303  1.00917278  1
  O  O401  1  0.88224061  0.98724584  0.49755926  1
  O  O402  1  0.86697953  1.01340347  0.98907731  1
  O  O403  1  0.13211891  0.00031016  0.01141484  1
  O  O404  1  0.11212401  -0.00223714  0.48908415  1
  O  O405  1  0.11790674  0.50039779  0.00826067  1
  O  O406  1  0.11692431  0.50816144  0.49171253  1
  O  O407  1  0.61880351  0.00011297  0.00475632  1
  O  O408  1  0.61868352  0.01017794  0.49741334  1
  O  O409  1  0.61638778  0.50330381  0.00870254  1
  O  O410  1  0.63090563  0.51306044  0.51160631  1
  O  O411  1  0.38086131  0.36870477  0.10908252  1
  O  O412  1  0.36936799  0.37438270  0.61331291  1
  O  O413  1  0.37799676  0.87564493  0.11138186  1
  O  O414  1  0.37447876  0.87004829  0.61742132  1
  O  O415  1  0.87551304  0.36288737  0.12537910  1
  O  O416  1  0.86490368  0.36090670  0.62287509  1
  O  O417  1  0.87706249  0.86030095  0.13402047  1
  O  O418  1  0.86563075  0.87419987  0.61878513  1
  O  O419  1  0.12150633  0.13622986  0.36523450  1
  O  O420  1  0.13188241  0.13854753  0.87781906  1
  O  O421  1  0.11944777  0.63706387  0.38247533  1
  O  O422  1  0.12961707  0.63710674  0.87791672  1
  O  O423  1  0.62921862  0.13634590  0.38178540  1
  O  O424  1  0.61638392  0.12002568  0.89213801  1
  O  O425  1  0.63750722  0.61924427  0.38502135  1
  O  O426  1  0.63845699  0.62429031  0.87924747  1
