# generated using pymatgen
data_V85Zn86O256
_symmetry_space_group_name_H-M   'P 1'
_cell_length_a   16.94865823
_cell_length_b   16.95098540
_cell_length_c   16.93331469
_cell_angle_alpha   90.04431798
_cell_angle_beta   89.91961025
_cell_angle_gamma   90.05149603
_symmetry_Int_Tables_number   1
_chemical_formula_structural   V85Zn86O256
_chemical_formula_sum   'V85 Zn86 O256'
_cell_volume   4864.87313154
_cell_formula_units_Z   1
loop_
 _symmetry_equiv_pos_site_id
 _symmetry_equiv_pos_as_xyz
  1  'x, y, z'
loop_
 _atom_site_type_symbol
 _atom_site_label
 _atom_site_symmetry_multiplicity
 _atom_site_fract_x
 _atom_site_fract_y
 _atom_site_fract_z
 _atom_site_occupancy
  V  V0  1  0.25005133  0.00759014  0.25973259  1
  V  V1  1  0.49839906  0.50283122  0.48901020  1
  V  V2  1  0.50599616  0.51624059  -0.00065946  1
  V  V3  1  0.74811924  0.37003226  0.61873664  1
  V  V4  1  0.24382341  0.75220149  0.00410587  1
  V  V5  1  0.12657433  0.87487339  0.74775895  1
  V  V6  1  0.37749199  0.87430416  0.48408735  1
  V  V7  1  0.87408633  0.50021228  0.88699258  1
  V  V8  1  0.62722599  0.00259561  0.62084741  1
  V  V9  1  0.13462934  0.38466597  0.23600654  1
  V  V10  1  0.74769231  0.49333965  0.25120320  1
  V  V11  1  0.37693410  0.37803236  0.49592930  1
  V  V12  1  0.87702712  0.75174889  0.12660323  1
  V  V13  1  0.15374468  0.60321990  0.46301703  1
  V  V14  1  0.74635043  0.11596245  0.39582669  1
  V  V15  1  0.50029918  0.62568835  0.62473342  1
  V  V16  1  0.87470469  0.49961406  0.37785834  1
  V  V17  1  0.12774308  -0.00787949  0.13164061  1
  V  V18  1  0.25363599  0.25655305  0.00479825  1
  V  V19  1  0.87570403  0.62665803  0.25163789  1
  V  V20  1  -0.00574255  0.60923462  0.11265724  1
  V  V21  1  -0.00095935  -0.00115170  0.49274093  1
  V  V22  1  0.12563882  0.12821589  0.01261051  1
  V  V23  1  0.75219937  -0.00520529  0.74566481  1
  V  V24  1  0.74563791  0.74829996  0.00007826  1
  V  V25  1  0.62268422  0.74397630  0.87913882  1
  V  V26  1  0.50489843  -0.00274258  0.49657973  1
  V  V27  1  0.36914840  0.61533112  0.74446761  1
  V  V28  1  -0.00202918  0.87697069  0.36631786  1
  V  V29  1  0.50033040  0.36949562  0.36383319  1
  V  V30  1  0.74964335  0.49802667  0.74929990  1
  V  V31  1  0.49752650  0.13073453  0.14314139  1
  V  V32  1  0.00304245  0.12612556  0.62401095  1
  V  V33  1  0.61453777  0.86987092  0.25903338  1
  V  V34  1  0.37539805  0.24697730  0.62428451  1
  V  V35  1  0.87629841  0.00107195  0.87477800  1
  V  V36  1  0.62241578  0.12538603  0.00235053  1
  V  V37  1  0.25124537  0.12342313  0.87563331  1
  V  V38  1  0.38247356  0.37912814  0.00146167  1
  V  V39  1  0.87460804  0.62244151  0.75095722  1
  V  V40  1  0.24619446  0.61856254  0.86871624  1
  V  V41  1  0.13340953  0.12531994  0.49546537  1
  V  V42  1  0.49859300  0.75037982  0.75117714  1
  V  V43  1  0.87319149  0.36770998  0.49797349  1
  V  V44  1  0.12348879  0.24889239  0.87582129  1
  V  V45  1  -0.00266610  0.50112027  0.50171785  1
  V  V46  1  0.38169531  0.02439959  0.37149633  1
  V  V47  1  0.87155441  0.10543387  0.26538825  1
  V  V48  1  0.37441570  0.87740151  0.00650360  1
  V  V49  1  0.87399794  0.87660743  0.50195042  1
  V  V50  1  0.49988068  0.24847221  0.74885684  1
  V  V51  1  0.37603658  0.25297528  0.13717622  1
  V  V52  1  0.12917665  0.24783233  0.37049792  1
  V  V53  1  0.25235978  0.87628732  0.62329233  1
  V  V54  1  0.62595452  0.00030945  0.13070430  1
  V  V55  1  0.13053684  0.75968705  0.36838092  1
  V  V56  1  0.87325406  0.87901100  0.00089637  1
  V  V57  1  0.87151899  0.24694458  0.62388200  1
  V  V58  1  0.25517210  0.24932463  0.49389826  1
  V  V59  1  0.74894872  0.75672684  0.50831392  1
  V  V60  1  0.49973885  0.87667504  0.87708590  1
  V  V61  1  -0.00068513  0.37926498  0.87588806  1
  V  V62  1  0.13359039  0.50118323  0.63047601  1
  V  V63  1  0.38135858  0.73180967  0.12523462  1
  V  V64  1  0.49882951  0.73618948  0.25592171  1
  V  V65  1  0.12796254  -0.00066112  0.62274343  1
  V  V66  1  0.16810912  0.57273257  0.04605821  1
  V  V67  1  0.00055494  0.75012224  0.74874782  1
  V  V68  1  0.37622031  0.75259136  0.62474223  1
  V  V69  1  0.74814736  0.87825491  0.13460844  1
  V  V70  1  0.49770379  0.00333724  0.00232938  1
  V  V71  1  0.75053833  0.12463324  0.87458889  1
  V  V72  1  0.75076108  0.63455195  0.37560256  1
  V  V73  1  0.62443181  0.25099741  0.87486557  1
  V  V74  1  0.87452605  0.37212416  0.00458612  1
  V  V75  1  0.00135342  0.87719774  0.87480880  1
  V  V76  1  0.00052977  0.37197943  0.36942497  1
  V  V77  1  0.00230550  0.62434776  0.62230482  1
  V  V78  1  0.62819087  0.87376826  0.74541953  1
  V  V79  1  0.00172520  0.00771492  0.00524222  1
  V  V80  1  0.62618666  0.63216963  0.49659445  1
  V  V81  1  0.13337852  0.37691911  0.75153237  1
  V  V82  1  0.87945394  0.23574501  0.12989568  1
  V  V83  1  0.62511376  0.49964267  0.62354268  1
  V  V84  1  0.12469990  0.74623222  0.87733164  1
  Zn  Zn85  1  0.00375711  0.24134140  0.24279868  1
  Zn  Zn86  1  0.63362474  0.24110945  0.37730187  1
  Zn  Zn87  1  0.00215327  0.75291900  0.24674295  1
  Zn  Zn88  1  0.74929536  0.24909525  0.00331713  1
  Zn  Zn89  1  0.25356875  0.00076788  0.75107566  1
  Zn  Zn90  1  0.74256452  0.62183146  0.87458799  1
  Zn  Zn91  1  0.31356405  0.56916647  0.32680040  1
  Zn  Zn92  1  0.37330943  -0.00049150  0.87444236  1
  Zn  Zn93  1  0.49991336  0.37676802  0.87280450  1
  Zn  Zn94  1  0.61560316  0.50505925  0.12658035  1
  Zn  Zn95  1  0.62411609  0.37315945  0.74690119  1
  Zn  Zn96  1  0.37482047  0.12153429  0.74888262  1
  Zn  Zn97  1  0.25042455  0.75097944  0.49235254  1
  Zn  Zn98  1  0.25009070  0.87342805  0.13522607  1
  Zn  Zn99  1  0.37210146  0.49555985  0.86977351  1
  Zn  Zn100  1  0.62185027  0.36384077  0.24358115  1
  Zn  Zn101  1  0.00101896  0.25035460  0.74873199  1
  Zn  Zn102  1  0.25325320  0.37899793  0.62754673  1
  Zn  Zn103  1  0.87346270  0.75531428  0.62819470  1
  Zn  Zn104  1  0.50801158  0.12610280  0.62221713  1
  Zn  Zn105  1  0.87856417  0.12452707  0.75024512  1
  Zn  Zn106  1  0.74906697  0.36917807  0.12901321  1
  Zn  Zn107  1  0.19453973  0.18865790  0.19184445  1
  Zn  Zn108  1  0.18996233  0.19065604  0.68680257  1
  Zn  Zn109  1  0.18563089  0.68957252  0.19547376  1
  Zn  Zn110  1  0.18868700  0.68790390  0.68175651  1
  Zn  Zn111  1  0.69249959  0.18986133  0.19777265  1
  Zn  Zn112  1  0.68988332  0.18492290  0.68751329  1
  Zn  Zn113  1  0.68083784  0.68431222  0.18663384  1
  Zn  Zn114  1  0.68769527  0.68768511  0.68714104  1
  Zn  Zn115  1  0.31462967  0.32735045  0.31379419  1
  Zn  Zn116  1  0.31295366  0.30910993  0.81532338  1
  Zn  Zn117  1  0.31186439  0.81155829  0.30237438  1
  Zn  Zn118  1  0.31198314  0.81220095  0.81371684  1
  Zn  Zn119  1  0.80650849  0.30004960  0.31503309  1
  Zn  Zn120  1  0.81260056  0.31191741  0.80870561  1
  Zn  Zn121  1  0.81299699  0.81750570  0.31563980  1
  Zn  Zn122  1  0.81221346  0.81232072  0.81314122  1
  Zn  Zn123  1  0.18580367  0.43019147  0.43593783  1
  Zn  Zn124  1  0.19044312  0.43378856  0.93971750  1
  Zn  Zn125  1  0.19242235  0.93822657  0.43319876  1
  Zn  Zn126  1  0.18687779  0.93731069  0.94005538  1
  Zn  Zn127  1  0.68489183  0.43838831  0.43489163  1
  Zn  Zn128  1  0.68794423  0.43471014  0.93870139  1
  Zn  Zn129  1  0.69323396  0.94166922  0.43224394  1
  Zn  Zn130  1  0.68538017  0.93545518  0.93876904  1
  Zn  Zn131  1  0.31226041  0.06670744  0.06838957  1
  Zn  Zn132  1  0.31677514  0.06220363  0.55769471  1
  Zn  Zn133  1  0.30403772  0.55183412  0.16797602  1
  Zn  Zn134  1  0.31569869  0.56923724  0.50907324  1
  Zn  Zn135  1  0.80917496  0.06331902  0.06491692  1
  Zn  Zn136  1  0.81556842  0.05699929  0.56291629  1
  Zn  Zn137  1  0.77975044  0.57641370  0.07765164  1
  Zn  Zn138  1  0.81267639  0.56275499  0.56375977  1
  Zn  Zn139  1  0.43529369  0.44510295  0.18558512  1
  Zn  Zn140  1  0.43987985  0.43429262  0.68169498  1
  Zn  Zn141  1  0.43622987  0.93890951  0.19284778  1
  Zn  Zn142  1  0.43888421  0.93929455  0.68789891  1
  Zn  Zn143  1  0.93313451  0.43436494  0.18957207  1
  Zn  Zn144  1  0.93947196  0.43638124  0.69068976  1
  Zn  Zn145  1  0.93967845  0.94145455  0.18419949  1
  Zn  Zn146  1  0.93901036  0.93861634  0.68338981  1
  Zn  Zn147  1  0.06062538  0.06547596  0.30848942  1
  Zn  Zn148  1  0.06738894  0.06322221  0.81254901  1
  Zn  Zn149  1  0.05843683  0.56211595  0.30145605  1
  Zn  Zn150  1  0.06071903  0.56006334  0.81435487  1
  Zn  Zn151  1  0.56787086  0.05790618  0.31518871  1
  Zn  Zn152  1  0.56140543  0.06340055  0.81094297  1
  Zn  Zn153  1  0.56612649  0.56328652  0.31278471  1
  Zn  Zn154  1  0.55802673  0.55973420  0.81320862  1
  Zn  Zn155  1  0.46941284  0.19661312  0.44693506  1
  Zn  Zn156  1  0.43712286  0.18898531  0.93965377  1
  Zn  Zn157  1  0.43891093  0.69174113  0.43436774  1
  Zn  Zn158  1  0.42970296  0.68803464  0.93561123  1
  Zn  Zn159  1  0.93831336  0.18611396  0.43482455  1
  Zn  Zn160  1  0.93823721  0.18951755  0.93939194  1
  Zn  Zn161  1  0.94020409  0.69274318  0.43827556  1
  Zn  Zn162  1  0.93220245  0.68945081  0.93713162  1
  Zn  Zn163  1  0.05639905  0.31420415  0.06165582  1
  Zn  Zn164  1  0.06319738  0.31313253  0.56123394  1
  Zn  Zn165  1  0.06011028  0.81560954  0.06173078  1
  Zn  Zn166  1  0.06505190  0.80695337  0.55382476  1
  Zn  Zn167  1  0.56415935  0.31458321  0.06724409  1
  Zn  Zn168  1  0.56533924  0.31028360  0.55473166  1
  Zn  Zn169  1  0.56009453  0.81054398  0.06594127  1
  Zn  Zn170  1  0.56313415  0.81728080  0.56038679  1
  O  O171  1  0.13007388  0.11897168  0.11534793  1
  O  O172  1  0.12051804  0.12264639  0.61628002  1
  O  O173  1  0.11006071  0.62658945  0.11869670  1
  O  O174  1  0.10949534  0.61637253  0.63779768  1
  O  O175  1  0.61643701  0.11870800  0.12415149  1
  O  O176  1  0.62730763  0.10700027  0.63100156  1
  O  O177  1  0.67029588  0.60439483  0.11194507  1
  O  O178  1  0.62193252  0.62064753  0.61638040  1
  O  O179  1  0.38216392  0.38413799  0.38824811  1
  O  O180  1  0.37556546  0.37448347  0.88564852  1
  O  O181  1  0.37223555  0.87079764  0.38395173  1
  O  O182  1  0.38106841  0.87292547  0.88832002  1
  O  O183  1  0.88113119  0.37498279  0.38277604  1
  O  O184  1  0.88056640  0.37955796  0.87792120  1
  O  O185  1  0.88610797  0.87009494  0.38804136  1
  O  O186  1  0.88095198  0.88218176  0.88015887  1
  O  O187  1  0.26305213  0.00395074  0.36864662  1
  O  O188  1  0.24936302  0.00954382  0.87580917  1
  O  O189  1  0.22749752  0.53327410  0.41532829  1
  O  O190  1  0.25122879  0.51536130  0.87923183  1
  O  O191  1  0.75957433  0.01419866  0.37849243  1
  O  O192  1  0.75406054  0.00480409  0.86805206  1
  O  O193  1  0.75649602  0.50869858  0.37129575  1
  O  O194  1  0.75524148  0.50072097  0.86694636  1
  O  O195  1  0.23070662  0.51016751  0.09083844  1
  O  O196  1  0.23338335  0.49870836  0.61794787  1
  O  O197  1  0.24381312  0.99888776  0.13241764  1
  O  O198  1  0.24757426  0.98999725  0.62336833  1
  O  O199  1  0.77484300  0.48679829  0.14830631  1
  O  O200  1  0.74472043  0.49259102  0.62905687  1
  O  O201  1  0.73849617  0.99007330  0.11950283  1
  O  O202  1  0.74665237  1.00018266  0.63900355  1
  O  O203  1  0.00300432  0.37108307  0.26166475  1
  O  O204  1  0.00724124  0.37166063  0.76048000  1
  O  O205  1  -0.00570342  0.87743351  0.26275337  1
  O  O206  1  0.00550032  0.87070271  0.75451121  1
  O  O207  1  0.50347505  0.39203198  0.26302299  1
  O  O208  1  0.50228344  0.36226252  0.75115617  1
  O  O209  1  0.51042441  0.86490059  0.24337611  1
  O  O210  1  0.50669930  0.86923997  0.75715937  1
  O  O211  1  0.50142391  0.12084543  0.24060852  1
  O  O212  1  0.49772587  0.13589555  0.74678493  1
  O  O213  1  0.50880557  0.63650398  0.24643496  1
  O  O214  1  0.49211588  0.63168319  0.74357119  1
  O  O215  1  0.98039955  0.12718317  0.25738280  1
  O  O216  1  1.00197183  0.12366202  0.73566136  1
  O  O217  1  0.99133077  0.62943829  0.23474135  1
  O  O218  1  0.99100495  0.62942898  0.74550155  1
  O  O219  1  0.36896733  0.25656660  0.00521982  1
  O  O220  1  0.37233445  0.25662394  0.50441578  1
  O  O221  1  0.36690261  0.75582319  0.00899704  1
  O  O222  1  0.37438071  0.75944046  0.50926751  1
  O  O223  1  0.87306297  0.25398643  0.00931821  1
  O  O224  1  0.88276697  0.26083621  0.50971649  1
  O  O225  1  0.86971446  0.76256966  0.00523189  1
  O  O226  1  0.86765416  0.75695252  0.50405031  1
  O  O227  1  0.13432360  0.24497960  0.49409233  1
  O  O228  1  0.13194738  0.24511220  0.99832459  1
  O  O229  1  0.12538075  0.73910500  0.48083310  1
  O  O230  1  0.13191170  0.75891466  0.99051820  1
  O  O231  1  0.57721138  0.23313749  0.47776343  1
  O  O232  1  0.62659247  0.24280121  0.99233928  1
  O  O233  1  0.63316286  0.74356912  0.50476864  1
  O  O234  1  0.63314219  0.75784279  0.99162845  1
  O  O235  1  0.49178629  0.23838265  0.12383722  1
  O  O236  1  0.49299597  0.24779214  0.63232637  1
  O  O237  1  0.48626163  0.74758392  0.12680460  1
  O  O238  1  0.49389394  0.74682208  0.62965351  1
  O  O239  1  0.98461507  0.24713689  0.12324310  1
  O  O240  1  0.99460787  0.24110874  0.62364280  1
  O  O241  1  0.98611235  0.75368982  0.12472264  1
  O  O242  1  1.00076899  0.74096604  0.63006459  1
  O  O243  1  0.00950709  0.25820148  0.37644978  1
  O  O244  1  0.00674662  0.25617753  0.87253954  1
  O  O245  1  0.00713743  0.76138677  0.37246330  1
  O  O246  1  0.00636000  0.75535743  0.87069274  1
  O  O247  1  0.48032530  0.27223066  0.35837744  1
  O  O248  1  0.50863742  0.24791145  0.86690851  1
  O  O249  1  0.49660842  0.74844077  0.35567494  1
  O  O250  1  0.50470684  0.75635339  0.87252566  1
  O  O251  1  0.24005986  0.13190572  0.50226343  1
  O  O252  1  0.24341741  0.13332976  0.99564142  1
  O  O253  1  0.22888536  0.64017223  0.52888953  1
  O  O254  1  0.23461191  0.63819092  0.99010597  1
  O  O255  1  0.75072625  0.11999101  0.49668830  1
  O  O256  1  0.74253259  0.12267256  0.98800495  1
  O  O257  1  0.74532998  0.63121494  0.49628748  1
  O  O258  1  0.76710308  0.64642199  0.98741726  1
  O  O259  1  0.26131713  0.36330294  -0.00347399  1
  O  O260  1  0.25918623  0.36767008  0.50220389  1
  O  O261  1  0.25721879  0.86552662  0.00093182  1
  O  O262  1  0.25868161  0.87351027  0.50702033  1
  O  O263  1  0.76373065  0.37067911  -0.00139785  1
  O  O264  1  0.75840359  0.38013395  0.50951109  1
  O  O265  1  0.75465465  0.86891867  0.00754783  1
  O  O266  1  0.75950764  0.86648360  0.49344853  1
  O  O267  1  0.12068835  0.48353084  0.25172495  1
  O  O268  1  0.11941228  0.48922683  0.74306726  1
  O  O269  1  0.13644484  1.00604119  0.24445977  1
  O  O270  1  0.12747668  0.99278376  0.74042131  1
  O  O271  1  0.63772312  0.49855160  0.24979023  1
  O  O272  1  0.63139685  0.49757622  0.74357297  1
  O  O273  1  0.61736763  0.98503284  0.23762639  1
  O  O274  1  0.63242373  0.99209770  0.74704204  1
  O  O275  1  0.37239210  0.00298256  0.26623870  1
  O  O276  1  0.37292834  0.00298179  0.75523232  1
  O  O277  1  0.35890855  0.49562846  0.24752954  1
  O  O278  1  0.37868551  0.51228714  0.74538872  1
  O  O279  1  0.87483969  0.00733971  0.24971961  1
  O  O280  1  0.86885395  -0.00007704  0.75504138  1
  O  O281  1  0.87434916  0.50683167  0.26285097  1
  O  O282  1  0.86801869  0.50540997  0.75522903  1
  O  O283  1  0.11751609  0.36421512  0.37127965  1
  O  O284  1  0.11859607  0.37088408  0.87041222  1
  O  O285  1  0.11678976  0.86552411  0.38107286  1
  O  O286  1  0.12100738  0.86671973  0.86967625  1
  O  O287  1  0.60785369  0.37388021  0.37912553  1
  O  O288  1  0.62685983  0.35970314  0.87143524  1
  O  O289  1  0.62909124  0.87706157  0.35664485  1
  O  O290  1  0.61834862  0.86774809  0.86680668  1
  O  O291  1  0.38990162  0.13651915  0.12188645  1
  O  O292  1  0.37327193  0.13745346  0.62504271  1
  O  O293  1  0.37259351  0.63523380  0.11393846  1
  O  O294  1  0.37825991  0.64011198  0.62880456  1
  O  O295  1  0.87361903  0.13240802  0.12955587  1
  O  O296  1  0.88430290  0.13147275  0.62433275  1
  O  O297  1  0.87837476  0.63442501  0.12897917  1
  O  O298  1  0.88441772  0.62371743  0.63567601  1
  O  O299  1  0.26633919  0.24157843  0.11652744  1
  O  O300  1  0.25639564  0.25321856  0.61255141  1
  O  O301  1  0.25767282  0.75309349  0.11856393  1
  O  O302  1  0.25791359  0.76426207  0.62656063  1
  O  O303  1  0.76370117  0.24966469  0.12254575  1
  O  O304  1  0.75884979  0.25655260  0.62663939  1
  O  O305  1  0.75953589  0.75788236  0.11772768  1
  O  O306  1  0.75399616  0.74589417  0.61294756  1
  O  O307  1  0.24495664  0.25690709  0.38618182  1
  O  O308  1  0.24297942  0.24310364  0.88446035  1
  O  O309  1  0.23597615  0.75621958  0.37284071  1
  O  O310  1  0.24309009  0.74413541  0.88248059  1
  O  O311  1  0.75286577  0.22853443  0.38166156  1
  O  O312  1  0.74429232  0.24009198  0.87304458  1
  O  O313  1  0.75570192  0.73860813  0.38491312  1
  O  O314  1  0.73919045  0.75323196  0.88151973  1
  O  O315  1  0.01080735  0.11528338  -0.00703578  1
  O  O316  1  0.00903906  0.11867991  0.50671476  1
  O  O317  1  -0.00916345  0.62960109  0.01428725  1
  O  O318  1  -0.00214933  0.61864258  0.51011756  1
  O  O319  1  0.50634889  0.11844357  0.00280475  1
  O  O320  1  0.49041442  0.10040119  0.50844049  1
  O  O321  1  0.49714170  0.61481511  -0.00835368  1
  O  O322  1  0.51010434  0.62228090  0.50608134  1
  O  O323  1  0.49335074  0.38530472  0.49263430  1
  O  O324  1  0.48926790  0.36897444  0.99395417  1
  O  O325  1  0.48778646  0.88435759  0.50545238  1
  O  O326  1  0.49347841  0.88232839  0.99764534  1
  O  O327  1  0.99400820  0.38022141  0.49124637  1
  O  O328  1  0.98778457  0.37083219  0.98619314  1
  O  O329  1  0.99706150  0.88218174  0.49257260  1
  O  O330  1  0.99457621  0.88717133  0.99326679  1
  O  O331  1  0.50280900  0.49884603  0.38660981  1
  O  O332  1  0.49244439  0.49653431  0.88234612  1
  O  O333  1  0.48917177  0.99977514  0.38042437  1
  O  O334  1  0.50018110  0.99402784  0.88327855  1
  O  O335  1  0.99432843  0.49257116  0.38116505  1
  O  O336  1  0.98730411  0.49016023  0.86911179  1
  O  O337  1  1.01061748  0.99280486  0.38612541  1
  O  O338  1  0.99698442  0.99684008  0.88111393  1
  O  O339  1  0.01034623  -0.00118572  0.11459765  1
  O  O340  1  0.00925421  0.00677946  0.61519815  1
  O  O341  1  -0.01082742  0.51072321  0.12124669  1
  O  O342  1  0.00332803  0.50533166  0.62056015  1
  O  O343  1  0.50278662  0.01148202  0.12160974  1
  O  O344  1  0.51130841  -0.00153157  0.61994400  1
  O  O345  1  0.49954057  0.49960597  0.10455404  1
  O  O346  1  0.50951107  0.50704175  0.62037739  1
  O  O347  1  0.23346156  0.37322466  0.25011245  1
  O  O348  1  0.23784884  0.37031825  0.74945928  1
  O  O349  1  0.25823935  0.89645263  0.24808934  1
  O  O350  1  0.24426066  0.87650305  0.74244131  1
  O  O351  1  0.74923617  0.38245457  0.25880979  1
  O  O352  1  0.74946530  0.37967769  0.73557798  1
  O  O353  1  0.73833799  0.86521104  0.23882860  1
  O  O354  1  0.74127502  0.88314548  0.75665389  1
  O  O355  1  0.25593613  0.10791074  0.24461198  1
  O  O356  1  0.24918177  0.12430789  0.76082101  1
  O  O357  1  0.25279048  0.61923893  0.24435480  1
  O  O358  1  0.25844756  0.63279962  0.75585885  1
  O  O359  1  0.76978745  0.12463556  0.25284744  1
  O  O360  1  0.75253890  0.11557006  0.76101592  1
  O  O361  1  0.75698874  0.62073814  0.26160316  1
  O  O362  1  0.75892272  0.61973891  0.75068760  1
  O  O363  1  0.38544118  0.12100130  0.38211999  1
  O  O364  1  0.36077114  0.12621872  0.87704814  1
  O  O365  1  0.36658148  0.61241143  0.41399103  1
  O  O366  1  0.36331619  0.62625840  0.86246629  1
  O  O367  1  0.86924407  0.12221120  0.37124974  1
  O  O368  1  0.86799167  0.11951951  0.87370304  1
  O  O369  1  0.87030812  0.62126809  0.37338183  1
  O  O370  1  0.87621370  0.61692437  0.86415388  1
  O  O371  1  0.11825156  0.37054663  0.13699232  1
  O  O372  1  0.12317102  0.38210849  0.63423017  1
  O  O373  1  0.12800954  0.88859939  0.12086195  1
  O  O374  1  0.13346936  0.87699433  0.62467097  1
  O  O375  1  0.63171626  0.38370361  0.12612178  1
  O  O376  1  0.63290132  0.37726877  0.62072059  1
  O  O377  1  0.63072867  0.88172481  0.12854954  1
  O  O378  1  0.62264994  0.88142735  0.63996714  1
  O  O379  1  0.12318517  0.25346123  0.25643552  1
  O  O380  1  0.12286503  0.25756813  0.75642675  1
  O  O381  1  0.11943891  0.75410522  0.26257756  1
  O  O382  1  0.11950985  0.75688199  0.75530774  1
  O  O383  1  0.62712955  0.25205492  0.26156083  1
  O  O384  1  0.61841422  0.24862061  0.75596301  1
  O  O385  1  0.61159013  0.75914923  0.23901895  1
  O  O386  1  0.62034494  0.75702202  0.75501057  1
  O  O387  1  0.36796403  0.25912762  0.23508926  1
  O  O388  1  0.38127744  0.24785017  0.74235447  1
  O  O389  1  0.38627518  0.75129549  0.23532370  1
  O  O390  1  0.38086204  0.74668394  0.74297791  1
  O  O391  1  0.87871521  0.24856676  0.23728731  1
  O  O392  1  0.87898569  0.24700712  0.73671893  1
  O  O393  1  0.87414495  0.74561593  0.24209767  1
  O  O394  1  0.88078449  0.74196747  0.74989725  1
  O  O395  1  0.38983054  0.48591253  0.52220095  1
  O  O396  1  0.38510758  0.48240803  0.99790442  1
  O  O397  1  0.37760155  0.99248050  0.48624826  1
  O  O398  1  0.37896115  0.99356153  0.99998032  1
  O  O399  1  0.87869842  0.48867152  0.49811258  1
  O  O400  1  0.86587044  0.49263765  0.98840634  1
  O  O401  1  0.88982522  0.99171938  0.50513740  1
  O  O402  1  0.88295655  0.99893942  0.99676936  1
  O  O403  1  0.12007689  0.00774846  0.00717200  1
  O  O404  1  0.12361382  0.00851792  0.50266592  1
  O  O405  1  0.11725254  0.51286851  -0.01537998  1
  O  O406  1  0.11279876  0.50577698  0.50792808  1
  O  O407  1  0.61792159  0.00358413  0.01067520  1
  O  O408  1  0.61782294  -0.01626483  0.51021865  1
  O  O409  1  0.60768158  0.49665637  -0.00856161  1
  O  O410  1  0.61801254  0.50848175  0.50551393  1
  O  O411  1  0.38319216  0.36084141  0.11308794  1
  O  O412  1  0.37390732  0.36221978  0.61865348  1
  O  O413  1  0.37556883  0.87269082  0.11417919  1
  O  O414  1  0.36941808  0.86810298  0.62169904  1
  O  O415  1  0.87762093  0.36333051  0.11648146  1
  O  O416  1  0.87039305  0.36749649  0.61870013  1
  O  O417  1  0.86657201  0.87198315  0.12231121  1
  O  O418  1  0.88289115  0.87225256  0.60957123  1
  O  O419  1  0.12073720  0.13866982  0.38207898  1
  O  O420  1  0.13411992  0.12931167  0.88436131  1
  O  O421  1  0.11118204  0.63816481  0.37253182  1
  O  O422  1  0.12923070  0.63942915  0.86361150  1
  O  O423  1  0.64218346  0.11655604  0.37422262  1
  O  O424  1  0.63185394  0.13222501  0.87818675  1
  O  O425  1  0.63564591  0.62165625  0.38875930  1
  O  O426  1  0.62414998  0.64057065  0.86618168  1
