# generated using pymatgen
data_V85Zn86O256
_symmetry_space_group_name_H-M   'P 1'
_cell_length_a   16.94308321
_cell_length_b   16.95606634
_cell_length_c   16.96146019
_cell_angle_alpha   89.92259268
_cell_angle_beta   89.83714561
_cell_angle_gamma   89.96622558
_symmetry_Int_Tables_number   1
_chemical_formula_structural   V85Zn86O256
_chemical_formula_sum   'V85 Zn86 O256'
_cell_volume   4872.79973422
_cell_formula_units_Z   1
loop_
 _symmetry_equiv_pos_site_id
 _symmetry_equiv_pos_as_xyz
  1  'x, y, z'
loop_
 _atom_site_type_symbol
 _atom_site_label
 _atom_site_symmetry_multiplicity
 _atom_site_fract_x
 _atom_site_fract_y
 _atom_site_fract_z
 _atom_site_occupancy
  V  V0  1  0.88808771  -0.00256699  0.87551902  1
  V  V1  1  0.12913003  0.87999955  0.24015755  1
  V  V2  1  0.12500993  0.62237045  0.49395074  1
  V  V3  1  0.75212132  0.01076726  0.25623729  1
  V  V4  1  0.11381961  0.37516121  0.24353200  1
  V  V5  1  0.75107939  0.50209845  0.74821922  1
  V  V6  1  0.62078229  0.00989554  0.62605122  1
  V  V7  1  0.62662553  0.49404857  0.12533251  1
  V  V8  1  0.50098354  0.87886033  0.37638623  1
  V  V9  1  0.00020312  0.87319190  0.37487435  1
  V  V10  1  0.25293769  0.62282112  0.37148963  1
  V  V11  1  0.74952000  -0.00208085  0.75118008  1
  V  V12  1  0.01596682  0.75342845  0.75255169  1
  V  V13  1  0.37498909  -0.00976239  0.87331784  1
  V  V14  1  0.87431821  0.63503352  0.74789190  1
  V  V15  1  0.12444595  0.49764953  0.62117964  1
  V  V16  1  0.88848564  0.87884072  0.00102213  1
  V  V17  1  0.24593052  0.87139556  0.62851931  1
  V  V18  1  0.25815289  0.26292908  -0.00573413  1
  V  V19  1  0.24356896  0.13036368  0.38108771  1
  V  V20  1  0.87793850  0.12444145  0.74956411  1
  V  V21  1  0.74945757  0.26083011  -0.00214794  1
  V  V22  1  0.87119878  0.00992013  0.37480049  1
  V  V23  1  0.23626220  0.62473736  0.88203732  1
  V  V24  1  -0.01133388  0.23823142  0.25718732  1
  V  V25  1  0.00683729  0.00283506  0.49983135  1
  V  V26  1  0.49770376  0.12433070  0.12170409  1
  V  V27  1  0.89772028  0.73181909  0.10461933  1
  V  V28  1  0.24523407  0.25120129  0.50334276  1
  V  V29  1  0.62506969  0.75170109  0.37650587  1
  V  V30  1  0.12285578  0.37707273  0.75398274  1
  V  V31  1  0.87070236  0.37555326  0.50482021  1
  V  V32  1  -0.00477910  0.63012535  0.62093080  1
  V  V33  1  0.24952768  0.49450889  0.24174897  1
  V  V34  1  0.01094318  0.12525912  0.62412045  1
  V  V35  1  0.62163951  0.87121192  0.75640306  1
  V  V36  1  0.62328337  0.37629895  0.74988245  1
  V  V37  1  0.75256874  0.87014860  0.62843777  1
  V  V38  1  0.00079824  0.25530360  0.75309040  1
  V  V39  1  0.38128452  0.24616491  0.62169604  1
  V  V40  1  0.25263924  0.50093800  0.74999126  1
  V  V41  1  0.62826779  -0.00141740  0.12463667  1
  V  V42  1  0.50138318  0.24345873  0.74664683  1
  V  V43  1  0.24380132  -0.00237434  0.74811770  1
  V  V44  1  0.75174102  0.75030492  0.50340415  1
  V  V45  1  0.63107215  0.12359057  -0.00055150  1
  V  V46  1  0.87324993  0.49553693  0.37617308  1
  V  V47  1  0.37964656  0.87348120  0.50660707  1
  V  V48  1  0.74347240  0.62242331  0.38037969  1
  V  V49  1  0.37457234  0.26066306  0.11902276  1
  V  V50  1  0.87639778  0.86814491  0.50265409  1
  V  V51  1  0.37280092  0.12929448  0.24629608  1
  V  V52  1  0.75216314  0.12282870  0.87675184  1
  V  V53  1  0.50654964  0.62865908  0.11813619  1
  V  V54  1  0.74997031  0.62294940  0.88633672  1
  V  V55  1  0.49737414  0.49884856  0.50619926  1
  V  V56  1  0.12785854  0.75319353  0.37559647  1
  V  V57  1  0.37613387  0.62544248  0.24541561  1
  V  V58  1  0.01120418  0.73471261  0.24286545  1
  V  V59  1  0.86755273  0.62966318  0.25345109  1
  V  V60  1  0.62686440  0.87523255  0.25116741  1
  V  V61  1  0.25871649  0.74905997  0.50200833  1
  V  V62  1  0.74589688  0.22807099  0.50218267  1
  V  V63  1  0.49827725  0.75206418  0.24831593  1
  V  V64  1  0.37905273  0.62639288  0.73783325  1
  V  V65  1  0.50320251  0.01594596  0.50527273  1
  V  V66  1  0.50392273  0.50583529  -0.00266537  1
  V  V67  1  0.49256176  0.74581542  0.73933616  1
  V  V68  1  0.50991855  0.25779975  0.24786521  1
  V  V69  1  0.49354076  -0.00673216  -0.00058198  1
  V  V70  1  0.74088628  0.48815165  0.25251619  1
  V  V71  1  0.61747776  0.62645138  0.51287916  1
  V  V72  1  0.12053713  0.25181910  0.88268685  1
  V  V73  1  0.24573145  0.00245728  0.25397958  1
  V  V74  1  0.24196849  0.74605024  0.00606577  1
  V  V75  1  0.75477558  0.87007855  0.12704259  1
  V  V76  1  0.87798767  0.25047021  0.11202037  1
  V  V77  1  0.49653719  0.37481039  0.87978221  1
  V  V78  1  0.25587320  0.13035210  0.87177095  1
  V  V79  1  0.74290705  0.75073216  -0.00016967  1
  V  V80  1  0.88532084  0.48606608  0.87428828  1
  V  V81  1  0.00094862  0.49532104  0.48887642  1
  V  V82  1  0.37210925  0.50086279  0.87926846  1
  V  V83  1  0.11962475  0.25631888  0.37892892  1
  V  V84  1  0.37738260  0.00446031  0.37869288  1
  Zn  Zn85  1  0.50764569  0.37785262  0.37111454  1
  Zn  Zn86  1  0.37725819  0.37264185  0.49584877  1
  Zn  Zn87  1  0.24885865  0.90966091  0.09490226  1
  Zn  Zn88  1  0.12709732  -0.00128674  0.62250881  1
  Zn  Zn89  1  0.74894054  0.37361743  0.62571380  1
  Zn  Zn90  1  0.38165110  0.12031378  0.74461129  1
  Zn  Zn91  1  0.61715144  0.73929129  0.87779827  1
  Zn  Zn92  1  0.62327412  0.24874563  0.87455239  1
  Zn  Zn93  1  0.25207868  0.37543366  0.62206824  1
  Zn  Zn94  1  0.12869339  0.10002191  0.01240966  1
  Zn  Zn95  1  0.49114835  0.86469746  0.87983845  1
  Zn  Zn96  1  0.37879488  0.49470783  0.37234882  1
  Zn  Zn97  1  0.87640480  0.25227896  0.62665293  1
  Zn  Zn98  1  0.00659232  0.10553652  0.11986341  1
  Zn  Zn99  1  0.61905533  0.50381983  0.63001328  1
  Zn  Zn100  1  0.01467892  0.87211963  0.87457571  1
  Zn  Zn101  1  0.24763813  0.38038647  0.11928140  1
  Zn  Zn102  1  0.37507048  0.76946239  0.11222208  1
  Zn  Zn103  1  0.05252753  0.58998045  0.08431032  1
  Zn  Zn104  1  -0.00761198  0.45666359  0.01261874  1
  Zn  Zn105  1  0.75018475  0.37556254  0.12607573  1
  Zn  Zn106  1  0.63377849  0.24375839  0.37812752  1
  Zn  Zn107  1  0.18695569  0.19049405  0.18849722  1
  Zn  Zn108  1  0.18961504  0.18779056  0.68920158  1
  Zn  Zn109  1  0.18699098  0.68676354  0.18439409  1
  Zn  Zn110  1  0.19209606  0.67924054  0.67965158  1
  Zn  Zn111  1  0.69165796  0.18513530  0.18494307  1
  Zn  Zn112  1  0.69086278  0.19070582  0.68689315  1
  Zn  Zn113  1  0.68806471  0.68380830  0.18617402  1
  Zn  Zn114  1  0.68777030  0.69066734  0.69234748  1
  Zn  Zn115  1  0.31551999  0.31540071  0.31329086  1
  Zn  Zn116  1  0.31550703  0.31720839  0.80797626  1
  Zn  Zn117  1  0.31592354  0.81484422  0.31071383  1
  Zn  Zn118  1  0.19438289  0.80842172  0.81473535  1
  Zn  Zn119  1  0.81136243  0.31259715  0.32185737  1
  Zn  Zn120  1  0.80947112  0.30990141  0.81100808  1
  Zn  Zn121  1  0.81666480  0.81204614  0.31186431  1
  Zn  Zn122  1  0.81568012  0.81103200  0.81577265  1
  Zn  Zn123  1  0.19014581  0.43407597  0.42973374  1
  Zn  Zn124  1  0.13891908  0.42460972  0.96671681  1
  Zn  Zn125  1  0.18988233  0.93681185  0.43699588  1
  Zn  Zn126  1  0.18865845  0.94040296  0.93265774  1
  Zn  Zn127  1  0.67925340  0.42964490  0.43722699  1
  Zn  Zn128  1  0.68366670  0.44341403  0.93454310  1
  Zn  Zn129  1  0.68678912  0.94407283  0.44099831  1
  Zn  Zn130  1  0.69088772  0.93716575  0.93809416  1
  Zn  Zn131  1  0.30108989  0.06430432  0.05420476  1
  Zn  Zn132  1  0.31408093  0.06527383  0.56361396  1
  Zn  Zn133  1  0.31753357  0.56555533  0.06072077  1
  Zn  Zn134  1  0.31369303  0.56093934  0.56113572  1
  Zn  Zn135  1  0.84749069  0.04538926  0.08519831  1
  Zn  Zn136  1  0.82026670  0.05396392  0.56818098  1
  Zn  Zn137  1  0.86892830  0.56086598  0.06545318  1
  Zn  Zn138  1  0.81223177  0.56261271  0.56474635  1
  Zn  Zn139  1  0.43701821  0.44003524  0.18392719  1
  Zn  Zn140  1  0.43619489  0.43227848  0.68477350  1
  Zn  Zn141  1  0.43131947  0.93921814  0.18548348  1
  Zn  Zn142  1  0.43608746  0.93315447  0.68845127  1
  Zn  Zn143  1  0.93225792  0.43243161  0.19174256  1
  Zn  Zn144  1  0.93810881  0.44173467  0.68690897  1
  Zn  Zn145  1  0.93968143  0.92693242  0.19326741  1
  Zn  Zn146  1  0.93861285  0.93572911  0.68616959  1
  Zn  Zn147  1  0.06217281  0.06552320  0.31680224  1
  Zn  Zn148  1  0.06745479  0.06664285  0.81446430  1
  Zn  Zn149  1  0.06934809  0.57088057  0.28773748  1
  Zn  Zn150  1  0.06096263  0.56229980  0.80947378  1
  Zn  Zn151  1  0.56367789  0.07112762  0.31565794  1
  Zn  Zn152  1  0.56341800  0.06021411  0.81500382  1
  Zn  Zn153  1  0.56089217  0.56205396  0.31491607  1
  Zn  Zn154  1  0.56277630  0.56594263  0.81234636  1
  Zn  Zn155  1  0.43581841  0.19163798  0.43300109  1
  Zn  Zn156  1  0.43758886  0.18450518  0.93554355  1
  Zn  Zn157  1  0.43926787  0.68532566  0.43563044  1
  Zn  Zn158  1  0.42886514  0.68798692  0.93131306  1
  Zn  Zn159  1  0.93539382  0.18928225  0.44152230  1
  Zn  Zn160  1  0.94477293  0.18232958  0.94323856  1
  Zn  Zn161  1  0.93741209  0.68621381  0.43350683  1
  Zn  Zn162  1  0.93611357  0.68754299  0.93116852  1
  Zn  Zn163  1  0.06926685  0.28459808  0.06990123  1
  Zn  Zn164  1  0.06076261  0.31464241  0.56430153  1
  Zn  Zn165  1  0.07413928  0.81086558  0.05618675  1
  Zn  Zn166  1  0.06461014  0.81070020  0.56290487  1
  Zn  Zn167  1  0.56237385  0.31366083  0.06055234  1
  Zn  Zn168  1  0.56673186  0.31345182  0.56256567  1
  Zn  Zn169  1  0.56431601  0.81305287  0.06256271  1
  Zn  Zn170  1  0.56544171  0.81863605  0.56583888  1
  O  O171  1  0.11529549  0.14286587  0.12055544  1
  O  O172  1  0.11427549  0.12270914  0.62776731  1
  O  O173  1  0.08483351  0.64004748  0.18404421  1
  O  O174  1  0.11947090  0.61703173  0.61188165  1
  O  O175  1  0.62059733  0.11659378  0.11788172  1
  O  O176  1  0.63040548  0.10834919  0.63597181  1
  O  O177  1  0.61210743  0.61745154  0.12900616  1
  O  O178  1  0.62902836  0.62653203  0.61522007  1
  O  O179  1  0.38582472  0.37630733  0.37750634  1
  O  O180  1  0.38352674  0.39088997  0.86681196  1
  O  O181  1  0.38121629  0.88338597  0.38434665  1
  O  O182  1  0.37385305  0.89130862  0.87632414  1
  O  O183  1  0.87296728  0.39062515  0.38411325  1
  O  O184  1  0.87461162  0.38849617  0.85951282  1
  O  O185  1  0.88292024  0.87698824  0.38376263  1
  O  O186  1  0.88049862  0.88122411  0.88149937  1
  O  O187  1  0.25597605  0.01243099  0.37516346  1
  O  O188  1  0.25936616  0.01088864  0.86423488  1
  O  O189  1  0.25286346  0.50675529  0.36268793  1
  O  O190  1  0.25833508  0.50756524  0.86462365  1
  O  O191  1  0.76221117  -0.00655541  0.37087036  1
  O  O192  1  0.75728285  0.00524335  0.86719590  1
  O  O193  1  0.75108460  0.50639994  0.37315305  1
  O  O194  1  0.75722480  0.50853129  0.86713675  1
  O  O195  1  0.25488255  0.50117730  0.13709291  1
  O  O196  1  0.24189233  0.50028317  0.63058302  1
  O  O197  1  0.26155093  1.01403781  0.15415131  1
  O  O198  1  0.25089928  0.99254747  0.62979978  1
  O  O199  1  0.74162215  0.49755482  0.13737639  1
  O  O200  1  0.74761384  0.50240488  0.64024108  1
  O  O201  1  0.75272877  0.98551607  0.13366123  1
  O  O202  1  0.74464040  0.98837550  0.63178408  1
  O  O203  1  0.01010509  0.36817800  0.25095568  1
  O  O204  1  0.00871076  0.36581653  0.74298272  1
  O  O205  1  0.01238753  0.86534426  0.25723497  1
  O  O206  1  -0.00358195  0.85438778  0.74362823  1
  O  O207  1  0.49609917  0.35992362  0.24449435  1
  O  O208  1  0.50623211  0.36981484  0.75848171  1
  O  O209  1  0.50556318  0.87249101  0.25569378  1
  O  O210  1  0.50542289  0.86449388  0.75386162  1
  O  O211  1  0.48971574  0.13098158  0.23944796  1
  O  O212  1  0.50346119  0.14040354  0.75651886  1
  O  O213  1  0.49428731  0.63235727  0.24516224  1
  O  O214  1  0.49456170  0.63458706  0.75011988  1
  O  O215  1  1.00072302  0.13695872  0.24998064  1
  O  O216  1  0.99568093  0.13084237  0.74421057  1
  O  O217  1  0.97084220  0.62797738  0.27698714  1
  O  O218  1  0.99540433  0.63368304  0.74050301  1
  O  O219  1  0.37197652  0.25064587  0.00644225  1
  O  O220  1  0.36834742  0.25101873  0.50577863  1
  O  O221  1  0.35559151  0.73269274  0.00347303  1
  O  O222  1  0.36844615  0.75836093  0.49233675  1
  O  O223  1  0.86867305  0.24985004  0.00499710  1
  O  O224  1  0.86929442  0.25981988  0.50518953  1
  O  O225  1  0.86233628  0.76300382  -0.00181908  1
  O  O226  1  0.87027529  0.76034738  0.49518701  1
  O  O227  1  0.13088902  0.25622232  0.49239309  1
  O  O228  1  0.14145575  0.24193973  0.98583234  1
  O  O229  1  0.13255670  0.74440526  0.48924914  1
  O  O230  1  0.13882939  0.72899460  1.01272178  1
  O  O231  1  0.64289798  0.24587056  0.50870675  1
  O  O232  1  0.63137372  0.24168797  0.99827857  1
  O  O233  1  0.62858879  0.74484954  0.49596151  1
  O  O234  1  0.63833342  0.75333220  0.99629762  1
  O  O235  1  0.49242204  0.24493227  0.12776278  1
  O  O236  1  0.49430764  0.25582774  0.63400668  1
  O  O237  1  0.49736747  0.74516703  0.12834865  1
  O  O238  1  0.50468626  0.75535846  0.64019108  1
  O  O239  1  0.98553307  0.24966261  0.14013855  1
  O  O240  1  0.99884427  0.24185419  0.63481485  1
  O  O241  1  0.99376001  0.76749624  0.13231679  1
  O  O242  1  1.00719757  0.73678447  0.63132680  1
  O  O243  1  0.00582231  0.24456756  0.36787915  1
  O  O244  1  0.00896515  0.24264234  0.86125890  1
  O  O245  1  0.01157413  0.75212715  0.36956565  1
  O  O246  1  0.00136008  0.74731311  0.85674374  1
  O  O247  1  0.49908617  0.24600795  0.35375915  1
  O  O248  1  0.50005721  0.25980364  0.86876661  1
  O  O249  1  0.50671459  0.75754780  0.36930615  1
  O  O250  1  0.50129246  0.74932133  0.86673464  1
  O  O251  1  0.25397193  0.13767745  0.49178749  1
  O  O252  1  0.25839535  0.14367781  0.98031876  1
  O  O253  1  0.24717587  0.63088016  0.49212150  1
  O  O254  1  0.24921397  0.61848782  0.98529276  1
  O  O255  1  0.75875455  0.13008237  0.50898846  1
  O  O256  1  0.73876998  0.13049022  0.99672784  1
  O  O257  1  0.74214909  0.63000589  0.49750623  1
  O  O258  1  0.76214500  0.63147612  0.98789607  1
  O  O259  1  0.23933970  0.36659871  -0.00068719  1
  O  O260  1  0.25185867  0.36369726  0.49931077  1
  O  O261  1  0.24249169  0.84872690  -0.00480949  1
  O  O262  1  0.25991261  0.86734116  0.50175369  1
  O  O263  1  0.74191005  0.36296120  -0.00479104  1
  O  O264  1  0.76309957  0.38476480  0.50610543  1
  O  O265  1  0.75534351  0.86844039  0.00810146  1
  O  O266  1  0.75620518  0.87073217  0.50792699  1
  O  O267  1  0.13184553  0.48223490  0.25455720  1
  O  O268  1  0.13100476  0.49415030  0.74376010  1
  O  O269  1  0.13235398  0.99227443  0.26153556  1
  O  O270  1  0.14035992  1.00546448  0.74616511  1
  O  O271  1  0.63131767  0.50654889  0.24201784  1
  O  O272  1  0.63201354  0.49523117  0.75074410  1
  O  O273  1  0.63297240  0.99216817  0.24331540  1
  O  O274  1  0.62982440  0.99111562  0.74700785  1
  O  O275  1  0.37342972  0.01458610  0.26203667  1
  O  O276  1  0.36834509  0.00064520  0.75486584  1
  O  O277  1  0.36961140  0.50736368  0.25104265  1
  O  O278  1  0.36896642  0.50431081  0.75184963  1
  O  O279  1  0.86666498  -0.01239367  0.26970126  1
  O  O280  1  0.87008658  0.00408874  0.75621279  1
  O  O281  1  0.86237209  0.50749099  0.26129860  1
  O  O282  1  0.86845499  0.51044674  0.75422351  1
  O  O283  1  0.12754424  0.36209879  0.36378006  1
  O  O284  1  0.13337960  0.36609958  0.85860920  1
  O  O285  1  0.11859489  0.86771154  0.37594067  1
  O  O286  1  0.12651992  0.87939557  0.86835251  1
  O  O287  1  0.62022780  0.35772932  0.37773796  1
  O  O288  1  0.61705903  0.37551287  0.86440741  1
  O  O289  1  0.62098111  0.87180853  0.37172285  1
  O  O290  1  0.62640142  0.87474374  0.86299543  1
  O  O291  1  0.37745598  0.13258136  0.13027439  1
  O  O292  1  0.37291446  0.13995446  0.62760996  1
  O  O293  1  0.38856628  0.62209138  0.13681103  1
  O  O294  1  0.36792012  0.62400891  0.63855336  1
  O  O295  1  0.86889450  0.14976775  0.12901597  1
  O  O296  1  0.88442636  0.12094499  0.64011070  1
  O  O297  1  0.84703181  0.63914804  0.14459615  1
  O  O298  1  0.88459820  0.62134091  0.63282094  1
  O  O299  1  0.26025368  0.25081462  0.11257720  1
  O  O300  1  0.25459390  0.25086310  0.61682581  1
  O  O301  1  0.25658061  0.73569304  0.11306142  1
  O  O302  1  0.24646465  0.75486606  0.60956562  1
  O  O303  1  0.75525073  0.25398532  0.11414704  1
  O  O304  1  0.75690966  0.25255261  0.61611060  1
  O  O305  1  0.74975109  0.75786678  0.11770904  1
  O  O306  1  0.74520692  0.76251114  0.62021922  1
  O  O307  1  0.24314551  0.24655532  0.38167867  1
  O  O308  1  0.24857283  0.24940495  0.87504683  1
  O  O309  1  0.24632106  0.74567832  0.38311126  1
  O  O310  1  0.24929833  0.73106401  0.88260292  1
  O  O311  1  0.75706512  0.25076973  0.39971955  1
  O  O312  1  0.74987264  0.24048698  0.88187284  1
  O  O313  1  0.74456311  0.74315876  0.38204993  1
  O  O314  1  0.75002035  0.73833922  0.88121497  1
  O  O315  1  0.01558329  0.12086310  0.00040548  1
  O  O316  1  -0.01020709  0.11462852  0.51258341  1
  O  O317  1  -0.04653221  0.65249898  0.03805457  1
  O  O318  1  0.00432527  0.61979832  0.50380042  1
  O  O319  1  0.51285182  0.11832769  0.00255444  1
  O  O320  1  0.49446128  0.11457722  0.49622116  1
  O  O321  1  0.49649128  0.61938389  0.00748226  1
  O  O322  1  0.50746252  0.61577782  0.49721546  1
  O  O323  1  0.50147164  0.38864447  0.50138507  1
  O  O324  1  0.50496196  0.38241954  0.98507530  1
  O  O325  1  0.49405130  0.87983489  0.49519397  1
  O  O326  1  0.50686747  0.88888783  0.99803513  1
  O  O327  1  0.98775301  0.38611427  0.50615898  1
  O  O328  1  1.03991264  0.35834315  0.98893973  1
  O  O329  1  0.99296258  0.87877180  0.49743132  1
  O  O330  1  0.99240457  0.86842109  0.99620679  1
  O  O331  1  0.50037005  0.49942462  0.38841324  1
  O  O332  1  0.49567048  0.49718154  0.88021373  1
  O  O333  1  0.49652453  0.99723572  0.38156076  1
  O  O334  1  0.49234265  0.99868708  0.88232635  1
  O  O335  1  0.99072688  0.50863715  0.38569405  1
  O  O336  1  0.98552167  0.50104676  0.86557179  1
  O  O337  1  0.99058102  0.99510108  0.38113399  1
  O  O338  1  0.99095705  0.99601169  0.86505386  1
  O  O339  1  -0.04826523  0.00652808  0.11988328  1
  O  O340  1  0.00273441  0.00526621  0.61786963  1
  O  O341  1  -0.03523648  0.50720696  0.11556289  1
  O  O342  1  0.00608594  0.51123555  0.61646981  1
  O  O343  1  0.50464725  0.00563488  0.11784246  1
  O  O344  1  0.50821623  -0.00534483  0.61782700  1
  O  O345  1  0.50533401  0.50660152  0.11688222  1
  O  O346  1  0.49974647  0.49998203  0.61209315  1
  O  O347  1  0.24282121  0.38091882  0.24802926  1
  O  O348  1  0.24521595  0.38842244  0.74600421  1
  O  O349  1  0.24017601  0.88950277  0.26668487  1
  O  O350  1  0.25208766  0.88073187  0.73814381  1
  O  O351  1  0.75020411  0.38584053  0.25528121  1
  O  O352  1  0.74133091  0.38395538  0.75091605  1
  O  O353  1  0.74542351  0.87531164  0.24336928  1
  O  O354  1  0.74555434  0.87585004  0.74534016  1
  O  O355  1  0.25575050  0.12681225  0.26154345  1
  O  O356  1  0.25511024  0.11940947  0.75604839  1
  O  O357  1  0.25821988  0.61864390  0.25266998  1
  O  O358  1  0.25566245  0.61615790  0.75426517  1
  O  O359  1  0.75426619  0.10841031  0.24088036  1
  O  O360  1  0.76054288  0.12146502  0.75571443  1
  O  O361  1  0.75054051  0.62066030  0.26477445  1
  O  O362  1  0.75760221  0.62141175  0.75672355  1
  O  O363  1  0.36506424  0.12559243  0.36649742  1
  O  O364  1  0.37030358  0.11979438  0.86702801  1
  O  O365  1  0.37063872  0.62439189  0.36165601  1
  O  O366  1  0.36853368  0.61224420  0.86183150  1
  O  O367  1  0.87768143  0.10805014  0.37981100  1
  O  O368  1  0.87377157  0.11687364  0.86671733  1
  O  O369  1  0.85741493  0.61746314  0.37890167  1
  O  O370  1  0.86649256  0.61768978  0.86542682  1
  O  O371  1  0.12949632  0.36292609  0.14199365  1
  O  O372  1  0.12748750  0.38085199  0.63467964  1
  O  O373  1  0.13554217  0.87375341  0.13762109  1
  O  O374  1  0.14132922  0.87883122  0.61377331  1
  O  O375  1  0.62534226  0.38989353  0.12083300  1
  O  O376  1  0.62676040  0.38012594  0.63894792  1
  O  O377  1  0.63430965  0.88007040  0.12989694  1
  O  O378  1  0.63290223  0.88157395  0.63885193  1
  O  O379  1  0.11463328  0.25864339  0.25902608  1
  O  O380  1  0.11957333  0.25736324  0.75530012  1
  O  O381  1  0.13172227  0.76331547  0.26383000  1
  O  O382  1  0.11962070  0.74537290  0.74446114  1
  O  O383  1  0.60966014  0.24944992  0.23422779  1
  O  O384  1  0.62026341  0.25884013  0.75178493  1
  O  O385  1  0.61906015  0.75524544  0.25535699  1
  O  O386  1  0.61620609  0.75529754  0.75507476  1
  O  O387  1  0.37906148  0.24174662  0.24061686  1
  O  O388  1  0.38558469  0.25101700  0.74151322  1
  O  O389  1  0.38290498  0.74341332  0.24852695  1
  O  O390  1  0.38976195  0.74010661  0.75040469  1
  O  O391  1  0.88791099  0.25452335  0.25761266  1
  O  O392  1  0.88311740  0.24121986  0.75032674  1
  O  O393  1  0.88333857  0.74290039  0.24333789  1
  O  O394  1  0.88093696  0.73813379  0.75155954  1
  O  O395  1  0.38628799  0.50034020  0.49708510  1
  O  O396  1  0.38834866  0.50338292  0.99046749  1
  O  O397  1  0.38250643  0.99389695  0.49703804  1
  O  O398  1  0.38611637  1.01075737  0.99089935  1
  O  O399  1  0.88102879  0.49735729  0.49519903  1
  O  O400  1  0.87703811  0.48832065  0.97901427  1
  O  O401  1  0.88112906  0.98762710  0.49107131  1
  O  O402  1  0.86283062  0.98706452  0.98441448  1
  O  O403  1  0.19579767  0.00419916  0.02196178  1
  O  O404  1  0.11009507  -0.00204269  0.49619136  1
  O  O405  1  0.09461434  0.52053314  0.00550224  1
  O  O406  1  0.11807709  0.50166698  0.49783569  1
  O  O407  1  0.62199253  0.00590807  0.00565608  1
  O  O408  1  0.61488352  -0.00576256  0.51321075  1
  O  O409  1  0.61327247  0.50185565  0.00625185  1
  O  O410  1  0.61569280  0.50946013  0.50422843  1
  O  O411  1  0.37151403  0.36370909  0.12658241  1
  O  O412  1  0.37104542  0.36233676  0.62027034  1
  O  O413  1  0.35530403  0.87942767  0.13253182  1
  O  O414  1  0.36586380  0.87720329  0.61142261  1
  O  O415  1  0.86683645  0.35507139  0.13388384  1
  O  O416  1  0.87259136  0.37578315  0.61953093  1
  O  O417  1  0.86903104  0.85864202  0.11639605  1
  O  O418  1  0.86519616  0.88058731  0.61505459  1
  O  O419  1  0.13594438  0.13817010  0.37186414  1
  O  O420  1  0.13897837  0.13606004  0.87155219  1
  O  O421  1  0.13247420  0.63308053  0.37450692  1
  O  O422  1  0.13890001  0.62065288  0.86612854  1
  O  O423  1  0.63925203  0.13460251  0.35871482  1
  O  O424  1  0.63332265  0.12502832  0.88204697  1
  O  O425  1  0.63142545  0.63055078  0.38455714  1
  O  O426  1  0.64531479  0.62218164  0.87238593  1
