# generated using pymatgen
data_V85Zn86O256
_symmetry_space_group_name_H-M   'P 1'
_cell_length_a   16.97502022
_cell_length_b   16.95654801
_cell_length_c   16.95657176
_cell_angle_alpha   90.03062372
_cell_angle_beta   89.96455164
_cell_angle_gamma   90.03130848
_symmetry_Int_Tables_number   1
_chemical_formula_structural   V85Zn86O256
_chemical_formula_sum   'V85 Zn86 O256'
_cell_volume   4880.73902486
_cell_formula_units_Z   1
loop_
 _symmetry_equiv_pos_site_id
 _symmetry_equiv_pos_as_xyz
  1  'x, y, z'
loop_
 _atom_site_type_symbol
 _atom_site_label
 _atom_site_symmetry_multiplicity
 _atom_site_fract_x
 _atom_site_fract_y
 _atom_site_fract_z
 _atom_site_occupancy
  V  V0  1  0.63009290  0.49870295  0.62464123  1
  V  V1  1  0.51817031  0.37367426  0.37085327  1
  V  V2  1  0.25121574  0.37369967  0.11786639  1
  V  V3  1  0.12412020  0.74771505  0.37974995  1
  V  V4  1  0.38554326  0.62914591  0.74443011  1
  V  V5  1  0.62383743  0.00592551  0.12536896  1
  V  V6  1  0.61957812  0.75597877  0.88364105  1
  V  V7  1  0.25282133  0.12334512  0.37577746  1
  V  V8  1  0.36711339  0.75224680  0.13175425  1
  V  V9  1  0.12195890  0.24615988  0.36442544  1
  V  V10  1  0.37155603  0.12955807  0.75315891  1
  V  V11  1  0.75833037  0.86200206  0.11218843  1
  V  V12  1  -0.00103403  0.37237029  0.86999196  1
  V  V13  1  0.62678965  0.13462074  0.49699973  1
  V  V14  1  0.49821055  0.87717852  0.87838623  1
  V  V15  1  0.62575039  0.87279610  0.24687113  1
  V  V16  1  -0.00097121  0.50105980  0.01004264  1
  V  V17  1  0.87879548  0.24132972  0.13160217  1
  V  V18  1  0.37636762  0.50223064  0.37163261  1
  V  V19  1  0.62490761  0.37617715  0.75715241  1
  V  V20  1  0.12742462  0.87534972  0.24356374  1
  V  V21  1  0.87715912  0.37177253  0.50463870  1
  V  V22  1  0.87389324  -0.00319780  0.37990159  1
  V  V23  1  0.62743521  0.74861860  0.37240614  1
  V  V24  1  0.50128202  0.37822071  0.88335148  1
  V  V25  1  0.49654341  0.74071451  0.24860143  1
  V  V26  1  0.25281933  -0.00484982  0.24315701  1
  V  V27  1  0.50223332  0.00427204  0.49880206  1
  V  V28  1  0.50367107  0.25191821  0.75855932  1
  V  V29  1  0.87563849  0.62606936  0.23739555  1
  V  V30  1  0.74953125  0.61694133  0.36856046  1
  V  V31  1  0.37339543  0.87407887  0.50134656  1
  V  V32  1  -0.00313047  -0.00590220  0.50283818  1
  V  V33  1  0.75702328  0.25380213  0.50751065  1
  V  V34  1  0.12479052  0.62454378  0.01322239  1
  V  V35  1  0.76354289  0.87509759  0.62133712  1
  V  V36  1  -0.00885147  0.87819783  0.88427642  1
  V  V37  1  -0.00190352  0.74483016  0.23849749  1
  V  V38  1  0.24783826  0.62662856  0.87536298  1
  V  V39  1  0.56614489  0.82090903  0.70407786  1
  V  V40  1  -0.00528098  0.87156788  0.37696963  1
  V  V41  1  0.37563126  0.50190007  0.88394293  1
  V  V42  1  0.51376680  0.24864216  0.24897877  1
  V  V43  1  0.12649355  0.24965330  0.88832713  1
  V  V44  1  0.75398486  -0.00019146  0.75029007  1
  V  V45  1  0.87379110  0.36974683  0.00421357  1
  V  V46  1  0.50019958  0.87556944  0.37146814  1
  V  V47  1  0.00725403  0.49928538  0.50654918  1
  V  V48  1  0.74674619  0.24495728  -0.00435349  1
  V  V49  1  0.25304541  0.62509988  0.37274606  1
  V  V50  1  0.87556740  0.49889909  0.36945706  1
  V  V51  1  0.37510258  0.25276771  0.62568968  1
  V  V52  1  -0.00206888  0.74979907  0.74688575  1
  V  V53  1  0.37517473  0.00017356  0.37550275  1
  V  V54  1  0.76081284  0.75183075  0.49667195  1
  V  V55  1  0.62563359  0.00272382  0.63002325  1
  V  V56  1  0.86679616  0.49780602  0.87676267  1
  V  V57  1  0.37591319  0.24494217  0.12561486  1
  V  V58  1  0.00015050  0.37067559  0.36592837  1
  V  V59  1  0.24618191  0.38172009  0.62368312  1
  V  V60  1  0.24349232  0.50478324  0.74771056  1
  V  V61  1  0.79242376  0.68247332  0.92601956  1
  V  V62  1  0.25138835  0.49894896  0.24818568  1
  V  V63  1  0.12288336  0.00188961  0.62548273  1
  V  V64  1  0.50019489  0.13026618  0.62550467  1
  V  V65  1  0.60587402  0.61910685  -0.00513970  1
  V  V66  1  0.74993286  0.13193001  0.37264040  1
  V  V67  1  0.75230782  -0.00265982  0.24838948  1
  V  V68  1  -0.00664515  0.13831591  0.63018930  1
  V  V69  1  0.62328960  0.12587788  -0.00904655  1
  V  V70  1  0.12452850  0.12456448  0.50053338  1
  V  V71  1  0.25155707  0.25034074  0.49841332  1
  V  V72  1  0.62563264  0.62381826  0.50613181  1
  V  V73  1  0.37698346  0.37611114  0.49848754  1
  V  V74  1  0.12302259  0.87589692  0.75149807  1
  V  V75  1  0.12384615  0.36964551  0.74752169  1
  V  V76  1  0.49731683  0.00413600  0.00628211  1
  V  V77  1  -0.00300889  0.01501528  0.00958080  1
  V  V78  1  0.24993717  0.87319081  0.62742351  1
  V  V79  1  0.50003227  0.50319470  0.50896607  1
  V  V80  1  0.12549582  0.74914791  0.87531969  1
  V  V81  1  0.86988697  0.62182232  0.74698165  1
  V  V82  1  0.24713991  0.00548240  0.75253532  1
  V  V83  1  0.24745584  0.76226070  0.00380620  1
  V  V84  1  0.24569246  0.13072408  0.88877769  1
  Zn  Zn85  1  0.37764784  0.37490386  0.00358455  1
  Zn  Zn86  1  0.87184203  0.00227064  0.87942000  1
  Zn  Zn87  1  0.61600401  0.48936831  0.14027338  1
  Zn  Zn88  1  0.88521967  0.12268402  0.25081911  1
  Zn  Zn89  1  0.13342102  0.00318216  0.11622774  1
  Zn  Zn90  1  0.12357384  0.37137220  0.24597698  1
  Zn  Zn91  1  0.87338522  0.14186560  0.75153659  1
  Zn  Zn92  1  0.38187036  0.12449510  0.25008026  1
  Zn  Zn93  1  0.12132542  0.49871497  0.13114520  1
  Zn  Zn94  1  0.74835724  0.50210283  0.75565034  1
  Zn  Zn95  1  0.87957350  0.74561304  0.61921190  1
  Zn  Zn96  1  0.37115313  0.00194672  0.87922494  1
  Zn  Zn97  1  0.49016583  0.61769580  0.12234556  1
  Zn  Zn98  1  0.75156528  0.12539904  0.87112789  1
  Zn  Zn99  1  0.25247516  0.74607014  0.50352212  1
  Zn  Zn100  1  0.02468501  0.14018696  0.13749280  1
  Zn  Zn101  1  0.73981368  0.37339228  0.13960098  1
  Zn  Zn102  1  0.38623989  0.75039964  0.63017400  1
  Zn  Zn103  1  0.00687261  0.61277849  0.63234654  1
  Zn  Zn104  1  0.13101127  0.61581883  0.50741287  1
  Zn  Zn105  1  0.36951293  0.87999876  0.00372060  1
  Zn  Zn106  1  0.75701208  0.37257492  0.63405586  1
  Zn  Zn107  1  0.19714818  0.18274200  0.18521264  1
  Zn  Zn108  1  0.18470543  0.19153000  0.68845099  1
  Zn  Zn109  1  0.19046171  0.68825459  0.19266482  1
  Zn  Zn110  1  0.18516687  0.68654758  0.68517633  1
  Zn  Zn111  1  0.69200366  0.18713913  0.18140934  1
  Zn  Zn112  1  0.68754786  0.18955830  0.68989049  1
  Zn  Zn113  1  0.68356818  0.67619832  0.18367142  1
  Zn  Zn114  1  0.69367064  0.68534320  0.68552483  1
  Zn  Zn115  1  0.31595581  0.31459158  0.30742792  1
  Zn  Zn116  1  0.31112468  0.31472632  0.81558784  1
  Zn  Zn117  1  0.31137640  0.81206017  0.31355571  1
  Zn  Zn118  1  0.31514074  0.81297875  0.81416718  1
  Zn  Zn119  1  0.81513967  0.30855307  0.31525737  1
  Zn  Zn120  1  0.80622861  0.31264521  0.81793630  1
  Zn  Zn121  1  0.81425250  0.81040420  0.30722130  1
  Zn  Zn122  1  0.81197513  0.81906732  0.80227617  1
  Zn  Zn123  1  0.18718831  0.43441904  0.43270691  1
  Zn  Zn124  1  0.18696272  0.43909886  0.93814192  1
  Zn  Zn125  1  0.18509915  0.93556258  0.43513556  1
  Zn  Zn126  1  0.17960472  0.94202332  0.93449626  1
  Zn  Zn127  1  0.69187939  0.44484873  0.29985447  1
  Zn  Zn128  1  0.69699778  0.45089689  0.97146335  1
  Zn  Zn129  1  0.68771534  0.93884405  0.43831874  1
  Zn  Zn130  1  0.68497533  0.93494155  0.93657915  1
  Zn  Zn131  1  0.31348331  0.06557554  0.06566414  1
  Zn  Zn132  1  0.31275495  0.06223351  0.56397248  1
  Zn  Zn133  1  0.31139483  0.56828025  0.06492470  1
  Zn  Zn134  1  0.31315870  0.56402274  0.56326127  1
  Zn  Zn135  1  0.81320917  0.05744309  0.05982629  1
  Zn  Zn136  1  0.81392085  0.06367459  0.56225473  1
  Zn  Zn137  1  0.80412027  0.55654166  0.06607207  1
  Zn  Zn138  1  0.81538607  0.55886183  0.56122121  1
  Zn  Zn139  1  0.43981883  0.43645730  0.18815635  1
  Zn  Zn140  1  0.43426785  0.44043297  0.69286652  1
  Zn  Zn141  1  0.43713922  0.93331884  0.18559023  1
  Zn  Zn142  1  0.43052485  0.94784799  0.68583177  1
  Zn  Zn143  1  0.92718464  0.43277983  0.18934538  1
  Zn  Zn144  1  0.94011775  0.31721779  0.68826927  1
  Zn  Zn145  1  0.93558443  0.93500572  0.18707093  1
  Zn  Zn146  1  0.93702148  0.93924663  0.68972272  1
  Zn  Zn147  1  0.06406068  0.06081864  0.30954400  1
  Zn  Zn148  1  0.05975657  0.06559007  0.81487303  1
  Zn  Zn149  1  0.06280313  0.56205327  0.31440780  1
  Zn  Zn150  1  0.06024346  0.55892126  0.81614800  1
  Zn  Zn151  1  0.56558437  0.06571573  0.31144102  1
  Zn  Zn152  1  0.56116751  0.06010104  0.81328382  1
  Zn  Zn153  1  0.55857320  0.56316854  0.31562000  1
  Zn  Zn154  1  0.56334534  0.56272137  0.81732740  1
  Zn  Zn155  1  0.44061175  0.19209315  0.43247376  1
  Zn  Zn156  1  0.43634430  0.18744291  0.94079705  1
  Zn  Zn157  1  0.43842234  0.68633980  0.43882430  1
  Zn  Zn158  1  0.43114546  0.69548803  0.93336014  1
  Zn  Zn159  1  0.93861386  0.18356258  0.43648592  1
  Zn  Zn160  1  0.93623083  0.18729080  0.93327062  1
  Zn  Zn161  1  0.93883190  0.68137367  0.43340749  1
  Zn  Zn162  1  0.95366681  0.68657687  0.93785211  1
  Zn  Zn163  1  0.06039337  0.31632862  0.06368393  1
  Zn  Zn164  1  0.06857342  0.31638297  0.55388321  1
  Zn  Zn165  1  0.06358577  0.81677346  0.06283669  1
  Zn  Zn166  1  0.06366391  0.81086489  0.56306361  1
  Zn  Zn167  1  0.56447812  0.31175577  0.06811470  1
  Zn  Zn168  1  0.56632386  0.31637678  0.56276950  1
  Zn  Zn169  1  0.56208003  0.81435940  0.06514324  1
  Zn  Zn170  1  0.56861706  0.81570918  0.54265898  1
  O  O171  1  0.13382355  0.11699011  0.12455575  1
  O  O172  1  0.11691208  0.12160765  0.61971283  1
  O  O173  1  0.13149171  0.62249834  0.11617344  1
  O  O174  1  0.11825100  0.62912201  0.61899646  1
  O  O175  1  0.63055741  0.11016853  0.11795172  1
  O  O176  1  0.61992222  0.11988410  0.61665125  1
  O  O177  1  0.61986390  0.62724787  0.10141027  1
  O  O178  1  0.63136739  0.61956815  0.61358143  1
  O  O179  1  0.37614533  0.38616339  0.38324530  1
  O  O180  1  0.37972169  0.38363679  0.87902027  1
  O  O181  1  0.37879798  0.88011663  0.38419888  1
  O  O182  1  0.38219994  0.88009786  0.87913059  1
  O  O183  1  0.88340617  0.37893316  0.38341707  1
  O  O184  1  0.88344074  0.38083493  0.88101677  1
  O  O185  1  0.88738501  0.87948447  0.37173294  1
  O  O186  1  0.88929848  0.87895494  0.86565357  1
  O  O187  1  0.25710602  0.00418521  0.37236599  1
  O  O188  1  0.24557021  0.01085256  0.86831058  1
  O  O189  1  0.25698590  0.50497123  0.37084975  1
  O  O190  1  0.25600534  0.50566363  0.86790295  1
  O  O191  1  0.75780479  0.00412847  0.37171686  1
  O  O192  1  0.74942242  -0.00302623  0.86223331  1
  O  O193  1  0.76008005  0.51141363  0.37844787  1
  O  O194  1  0.76393610  0.49544047  0.88128456  1
  O  O195  1  0.25124719  0.49509419  0.13412288  1
  O  O196  1  0.25390567  0.49160889  0.63293854  1
  O  O197  1  0.25560774  0.99766946  0.13979355  1
  O  O198  1  0.24442322  0.99200939  0.63078980  1
  O  O199  1  0.72523165  0.48182300  0.08606081  1
  O  O200  1  0.74192563  0.49470855  0.62530981  1
  O  O201  1  0.74443969  0.99337166  0.13442265  1
  O  O202  1  0.74296504  0.99311170  0.62466868  1
  O  O203  1  0.00067255  0.37621668  0.26220731  1
  O  O204  1  0.01112029  0.37936785  0.75747456  1
  O  O205  1  0.00552568  0.86522837  0.25776123  1
  O  O206  1  0.00457864  0.86969134  0.75615709  1
  O  O207  1  0.49592020  0.36549947  0.26597399  1
  O  O208  1  0.50241122  0.36805795  0.75560410  1
  O  O209  1  0.50668163  0.86737996  0.25558367  1
  O  O210  1  0.50027993  0.88255277  0.75533591  1
  O  O211  1  0.49733076  0.14368109  0.26467739  1
  O  O212  1  0.49484200  0.13376622  0.74708286  1
  O  O213  1  0.49474722  0.63943980  0.25602542  1
  O  O214  1  0.48325819  0.62010526  0.75128590  1
  O  O215  1  0.99751609  0.11999797  0.24632831  1
  O  O216  1  1.00058247  0.12310131  0.73225129  1
  O  O217  1  0.99479225  0.63783161  0.25526703  1
  O  O218  1  0.99125107  0.63267877  0.75445354  1
  O  O219  1  0.38514676  0.25245817  0.02073488  1
  O  O220  1  0.37125194  0.25663715  0.50461011  1
  O  O221  1  0.36188780  0.75513082  0.00706234  1
  O  O222  1  0.37801389  0.76238046  0.50652817  1
  O  O223  1  0.86968795  0.25366998  0.00544191  1
  O  O224  1  0.86489110  0.25344079  0.49523692  1
  O  O225  1  0.85653969  0.73374026  -0.01911545  1
  O  O226  1  0.86449392  0.74416491  0.49834972  1
  O  O227  1  0.13463523  0.24366193  0.49074050  1
  O  O228  1  0.12568267  0.25769707  0.98665375  1
  O  O229  1  0.12842012  0.75296474  0.48751304  1
  O  O230  1  0.12860108  0.74382181  0.99767463  1
  O  O231  1  0.63554008  0.24106968  0.50236877  1
  O  O232  1  0.63246623  0.23562106  1.01001985  1
  O  O233  1  0.63511382  0.74089144  0.49223281  1
  O  O234  1  0.62007459  0.74723827  0.98799344  1
  O  O235  1  0.48996454  0.25566478  0.14250151  1
  O  O236  1  0.49433630  0.24773468  0.63136917  1
  O  O237  1  0.49167496  0.74785247  0.13437767  1
  O  O238  1  0.50951301  0.76920506  0.63638264  1
  O  O239  1  0.98360839  0.24928353  0.11724219  1
  O  O240  1  1.00488104  0.24198333  0.61891112  1
  O  O241  1  1.00534135  0.75219574  0.14029881  1
  O  O242  1  0.99824225  0.75330653  0.63789406  1
  O  O243  1  0.01090218  0.25641677  0.38280933  1
  O  O244  1  0.01120130  0.26305957  0.87917901  1
  O  O245  1  0.00685889  0.75576083  0.37287157  1
  O  O246  1  0.00413920  0.76001602  0.86459486  1
  O  O247  1  0.50186756  0.26607366  0.36954739  1
  O  O248  1  0.49236683  0.25786408  0.86331415  1
  O  O249  1  0.50482492  0.75668628  0.37091276  1
  O  O250  1  0.50338519  0.76769625  0.87563651  1
  O  O251  1  0.24570267  0.12805754  0.49488574  1
  O  O252  1  0.25156603  0.12118812  0.98731051  1
  O  O253  1  0.25002416  0.62621821  0.48903363  1
  O  O254  1  0.24142221  0.63431346  0.99375355  1
  O  O255  1  0.74611725  0.13328402  0.49603806  1
  O  O256  1  0.74155136  0.12733036  0.99873838  1
  O  O257  1  0.74584379  0.63124173  0.49186258  1
  O  O258  1  0.73736233  0.62690096  0.99104138  1
  O  O259  1  0.25303799  0.38207080  0.01427603  1
  O  O260  1  0.25491230  0.37229297  0.50681497  1
  O  O261  1  0.24405813  0.86510333  -0.00452612  1
  O  O262  1  0.25819106  0.87607479  0.50788671  1
  O  O263  1  0.76546089  0.36139379  -0.00757776  1
  O  O264  1  0.75844842  0.35775720  0.49808588  1
  O  O265  1  0.74716931  0.87746890  0.01286231  1
  O  O266  1  0.73960529  0.86389402  0.50951307  1
  O  O267  1  0.13732558  0.49860487  0.25155707  1
  O  O268  1  0.13741772  0.49029758  0.75853516  1
  O  O269  1  0.13673534  0.98916415  0.25460716  1
  O  O270  1  0.12794947  0.99637406  0.74505840  1
  O  O271  1  0.63921735  0.52889686  0.24841842  1
  O  O272  1  0.62404720  0.49821039  0.73961805  1
  O  O273  1  0.63116336  0.99583009  0.24413300  1
  O  O274  1  0.63047684  1.00717008  0.73526275  1
  O  O275  1  0.37140029  -0.00122568  0.25810796  1
  O  O276  1  0.36534565  0.01216828  0.75375921  1
  O  O277  1  0.36322341  0.49517317  0.26139955  1
  O  O278  1  0.36224406  0.51058485  0.75555254  1
  O  O279  1  0.86711705  -0.00182347  0.26155572  1
  O  O280  1  0.86247861  0.00413364  0.74718055  1
  O  O281  1  0.88496474  0.51104903  0.26223416  1
  O  O282  1  0.87482921  0.51066160  0.76534055  1
  O  O283  1  0.11800864  0.36324811  0.37246894  1
  O  O284  1  0.12079781  0.36840154  0.86953919  1
  O  O285  1  0.11372185  0.86843766  0.36868517  1
  O  O286  1  0.11414134  0.86880544  0.86810660  1
  O  O287  1  0.61541888  0.38504574  0.37185223  1
  O  O288  1  0.61437752  0.38510921  0.86109836  1
  O  O289  1  0.62019972  0.86950591  0.36918666  1
  O  O290  1  0.61469769  0.86875406  0.87117238  1
  O  O291  1  0.37136743  0.14009519  0.13139704  1
  O  O292  1  0.38095491  0.13122385  0.63109547  1
  O  O293  1  0.37470726  0.64561242  0.12086031  1
  O  O294  1  0.37130479  0.62986716  0.63864458  1
  O  O295  1  0.87110460  0.13634624  0.12522571  1
  O  O296  1  0.89154733  0.12383999  0.62336289  1
  O  O297  1  0.86583906  0.61729009  0.13812174  1
  O  O298  1  0.88354402  0.62339773  0.63346204  1
  O  O299  1  0.26655035  0.26043409  0.13479086  1
  O  O300  1  0.25633887  0.25739270  0.61866151  1
  O  O301  1  0.25760113  0.75050059  0.12069824  1
  O  O302  1  0.25110588  0.76509021  0.62470842  1
  O  O303  1  0.76143372  0.25119096  0.11435668  1
  O  O304  1  0.74774332  0.25137788  0.61085764  1
  O  O305  1  0.73943559  0.76495269  0.13075729  1
  O  O306  1  0.75303033  0.75791338  0.61586354  1
  O  O307  1  0.24757459  0.24276072  0.37986316  1
  O  O308  1  0.23734493  0.24533908  0.87285990  1
  O  O309  1  0.24405912  0.74192299  0.37692587  1
  O  O310  1  0.24391940  0.74711481  0.88326237  1
  O  O311  1  0.75385318  0.23599661  0.38357574  1
  O  O312  1  0.74870447  0.24451261  0.89074812  1
  O  O313  1  0.74597868  0.74583808  0.38035028  1
  O  O314  1  0.74013623  0.75292523  0.86884483  1
  O  O315  1  0.00042081  0.11587514  0.00395744  1
  O  O316  1  0.00464351  0.11487405  0.50841512  1
  O  O317  1  0.01203533  0.61406882  -0.00212181  1
  O  O318  1  -0.00001034  0.60753017  0.49697461  1
  O  O319  1  0.50664055  0.11261380  -0.00435073  1
  O  O320  1  0.50898786  0.12456467  0.50273292  1
  O  O321  1  0.50361600  0.63382923  -0.00218815  1
  O  O322  1  0.51123501  0.61498055  0.49528346  1
  O  O323  1  0.49860943  0.38080247  0.48896723  1
  O  O324  1  0.50154903  0.36761608  0.98547046  1
  O  O325  1  0.49336027  0.88447337  0.49259368  1
  O  O326  1  0.50019886  0.88726258  0.99379060  1
  O  O327  1  0.99541151  0.38099340  0.48969744  1
  O  O328  1  0.99030520  0.38037474  0.99273802  1
  O  O329  1  1.00510866  0.88641852  0.49403397  1
  O  O330  1  0.99646147  0.86815856  0.98505223  1
  O  O331  1  0.49328562  0.49148597  0.38202962  1
  O  O332  1  0.48531364  0.48915550  0.86304635  1
  O  O333  1  0.49534051  0.99601776  0.37972613  1
  O  O334  1  0.49788773  0.99181909  0.88191870  1
  O  O335  1  0.99383344  0.49038917  0.37981398  1
  O  O336  1  0.99356301  0.48922715  0.88509976  1
  O  O337  1  0.99386939  0.99191247  0.38259027  1
  O  O338  1  1.00083955  0.99005261  0.88208177  1
  O  O339  1  -0.00157454  -0.00165638  0.11427317  1
  O  O340  1  0.00464610  0.00445194  0.61777574  1
  O  O341  1  0.00003877  0.49046463  0.11338401  1
  O  O342  1  -0.00156260  0.49328318  0.60424718  1
  O  O343  1  0.50895521  -0.00453410  0.11787430  1
  O  O344  1  0.50634161  0.00914925  0.61943246  1
  O  O345  1  0.50235858  0.50652521  0.13180328  1
  O  O346  1  0.50369635  0.49197443  0.61336846  1
  O  O347  1  0.24758465  0.38385579  0.24234767  1
  O  O348  1  0.24640624  0.38334775  0.74223882  1
  O  O349  1  0.23963619  0.88338123  0.26076931  1
  O  O350  1  0.24559259  0.88268014  0.74491585  1
  O  O351  1  0.76936098  0.38437475  0.24995922  1
  O  O352  1  0.73862510  0.38068203  0.75127475  1
  O  O353  1  0.74294467  0.88526190  0.25216246  1
  O  O354  1  0.74828987  0.88584116  0.73417513  1
  O  O355  1  0.25666947  0.11333503  0.26294568  1
  O  O356  1  0.25305785  0.12223992  0.75337665  1
  O  O357  1  0.24828916  0.61829154  0.26462718  1
  O  O358  1  0.25091876  0.61933282  0.75683224  1
  O  O359  1  0.75016106  0.11274668  0.25797689  1
  O  O360  1  0.74987653  0.11477245  0.74752821  1
  O  O361  1  0.76256193  0.64012379  0.26178034  1
  O  O362  1  0.76370732  0.62281663  0.74971890  1
  O  O363  1  0.36969975  0.11593666  0.38025294  1
  O  O364  1  0.36383067  0.12836891  0.86919005  1
  O  O365  1  0.36928990  0.61151511  0.38205091  1
  O  O366  1  0.36738411  0.62076610  0.86672100  1
  O  O367  1  0.86703177  0.11500359  0.37400849  1
  O  O368  1  0.87286102  0.12020512  0.86815718  1
  O  O369  1  0.86884194  0.61580283  0.36850013  1
  O  O370  1  0.86800433  0.62212873  0.87381804  1
  O  O371  1  0.13387318  0.37593373  0.12823371  1
  O  O372  1  0.13801974  0.37022018  0.63080815  1
  O  O373  1  0.12213597  0.87894050  0.14024026  1
  O  O374  1  0.13178082  0.88151968  0.63062811  1
  O  O375  1  0.62500695  0.37327446  0.13581708  1
  O  O376  1  0.62648477  0.38398349  0.63482390  1
  O  O377  1  0.63128246  0.88505570  0.13150733  1
  O  O378  1  0.62275956  0.87866704  0.63285422  1
  O  O379  1  0.13374278  0.24775576  0.26265945  1
  O  O380  1  0.12987835  0.26576504  0.75820900  1
  O  O381  1  0.11739239  0.75413485  0.26041160  1
  O  O382  1  0.11801742  0.75609856  0.75593053  1
  O  O383  1  0.61302209  0.24238982  0.24620026  1
  O  O384  1  0.61363740  0.26046864  0.74462778  1
  O  O385  1  0.61605022  0.75106971  0.25483823  1
  O  O386  1  0.62301700  0.75188270  0.75425737  1
  O  O387  1  0.38489036  0.24830840  0.24444026  1
  O  O388  1  0.38065354  0.24770868  0.74462883  1
  O  O389  1  0.38011149  0.75686269  0.24032614  1
  O  O390  1  0.37097765  0.73491670  0.74958918  1
  O  O391  1  0.87075769  0.24440775  0.23460511  1
  O  O392  1  0.86944947  0.25544969  0.74650909  1
  O  O393  1  0.89136341  0.74250466  0.25517452  1
  O  O394  1  0.88239727  0.74228372  0.74814390  1
  O  O395  1  0.38330453  0.49545996  0.49641567  1
  O  O396  1  0.36932743  0.50305231  0.98686430  1
  O  O397  1  0.38107253  0.99080863  0.49816119  1
  O  O398  1  0.38268989  0.99955686  1.00084488  1
  O  O399  1  0.88216885  0.49152963  0.48829023  1
  O  O400  1  0.88177249  0.49285020  0.99612741  1
  O  O401  1  0.88168687  1.00164240  0.48899199  1
  O  O402  1  0.89088925  0.99909836  0.99719368  1
  O  O403  1  0.10222282  -0.01188302  0.00269465  1
  O  O404  1  0.11779552  0.00478083  0.50501994  1
  O  O405  1  0.11744038  0.50790143  0.00206035  1
  O  O406  1  0.11145574  0.49623936  0.49242719  1
  O  O407  1  0.61847522  0.00551446  0.00706652  1
  O  O408  1  0.62112625  0.00688943  0.51097383  1
  O  O409  1  0.60727128  0.52064233  -0.02476121  1
  O  O410  1  0.61715816  0.50739871  0.51334235  1
  O  O411  1  0.36903984  0.36739888  0.12501411  1
  O  O412  1  0.36615522  0.37194573  0.62039173  1
  O  O413  1  0.37898102  0.85862742  0.11989143  1
  O  O414  1  0.36775268  0.87571453  0.61978246  1
  O  O415  1  0.87310675  0.36281178  0.11619739  1
  O  O416  1  0.87632408  0.37577273  0.60843752  1
  O  O417  1  0.85697326  0.87379254  0.13250159  1
  O  O418  1  0.86603266  0.87261508  0.62333172  1
  O  O419  1  0.13208918  0.12816466  0.38227239  1
  O  O420  1  0.12866819  0.14253143  0.86916574  1
  O  O421  1  0.13273409  0.63264296  0.37979826  1
  O  O422  1  0.12886685  0.63179146  0.88216615  1
  O  O423  1  0.63728169  0.11393695  0.38873551  1
  O  O424  1  0.62716227  0.11917422  0.88735106  1
  O  O425  1  0.63356902  0.62939297  0.38678104  1
  O  O426  1  0.61740325  0.64187345  0.88053174  1
