# generated using pymatgen
data_V85Zn86O256
_symmetry_space_group_name_H-M   'P 1'
_cell_length_a   16.94485407
_cell_length_b   16.94728165
_cell_length_c   16.96091666
_cell_angle_alpha   90.02027088
_cell_angle_beta   90.01462672
_cell_angle_gamma   90.05828751
_symmetry_Int_Tables_number   1
_chemical_formula_structural   V85Zn86O256
_chemical_formula_sum   'V85 Zn86 O256'
_cell_volume   4870.65012714
_cell_formula_units_Z   1
loop_
 _symmetry_equiv_pos_site_id
 _symmetry_equiv_pos_as_xyz
  1  'x, y, z'
loop_
 _atom_site_type_symbol
 _atom_site_label
 _atom_site_symmetry_multiplicity
 _atom_site_fract_x
 _atom_site_fract_y
 _atom_site_fract_z
 _atom_site_occupancy
  V  V0  1  0.61773490  0.74682084  0.86325137  1
  V  V1  1  0.25087805  0.12507318  0.86394775  1
  V  V2  1  0.87602458  0.87565411  -0.00605345  1
  V  V3  1  0.74925553  0.74848017  0.00170974  1
  V  V4  1  0.74839643  0.87464039  0.12380166  1
  V  V5  1  0.87957039  0.87485197  0.50021088  1
  V  V6  1  0.62203341  0.49289558  0.12817472  1
  V  V7  1  0.87719865  0.75193053  0.62715022  1
  V  V8  1  0.61910945  0.62373917  0.49806152  1
  V  V9  1  0.48819665  0.13255354  0.12211305  1
  V  V10  1  0.75121402  0.62411440  0.87684076  1
  V  V11  1  0.49667509  0.75190518  0.25079135  1
  V  V12  1  0.87812630  0.00182068  0.37241739  1
  V  V13  1  0.26166551  0.50208661  0.75209726  1
  V  V14  1  0.62438192  0.62177398  0.00196804  1
  V  V15  1  0.12743486  -0.00204130  0.63948753  1
  V  V16  1  0.61549357  0.25263552  0.36517699  1
  V  V17  1  0.86339238  0.01831982  0.86709509  1
  V  V18  1  0.75000915  0.75061906  0.50295996  1
  V  V19  1  0.25273468  0.50141522  0.24917241  1
  V  V20  1  0.25990326  0.36695915  0.11562961  1
  V  V21  1  0.00144530  0.25124196  0.74362023  1
  V  V22  1  0.75065741  0.24315013  0.49243894  1
  V  V23  1  0.25863049  0.37601915  0.61406498  1
  V  V24  1  0.25008024  0.75744650  0.50099616  1
  V  V25  1  0.51473139  0.12196444  0.62695786  1
  V  V26  1  0.62521845  0.49889858  0.62440156  1
  V  V27  1  0.25353170  0.62776037  0.37552404  1
  V  V28  1  0.00226140  0.62974813  0.13040906  1
  V  V29  1  0.62235509  0.87653903  0.25058133  1
  V  V30  1  0.48785535  0.37337728  0.87571350  1
  V  V31  1  0.49830069  0.48077258  0.49859237  1
  V  V32  1  0.87873461  0.75102925  0.13372379  1
  V  V33  1  0.12832586  0.12883403  -0.00043365  1
  V  V34  1  0.82092548  0.19696291  0.67833714  1
  V  V35  1  0.62395937  0.75024717  0.37625227  1
  V  V36  1  0.37077581  0.12988877  0.25750418  1
  V  V37  1  0.75165167  0.49907634  0.25401789  1
  V  V38  1  0.25144169  0.62284722  0.88209895  1
  V  V39  1  0.13712453  0.12317320  0.50007297  1
  V  V40  1  0.12341770  0.75403504  0.36193776  1
  V  V41  1  0.12799146  0.50111613  0.62303229  1
  V  V42  1  0.12842263  0.37869039  0.74897879  1
  V  V43  1  0.48596132  0.49654047  -0.00440179  1
  V  V44  1  0.37122814  0.76275857  0.11353256  1
  V  V45  1  0.36772765  -0.00917253  0.86518286  1
  V  V46  1  0.00722930  0.76055389  0.75092125  1
  V  V47  1  0.00288657  0.00197121  -0.00092853  1
  V  V48  1  0.38036798  0.48650135  0.37799350  1
  V  V49  1  0.75888874  0.37627026  0.62482171  1
  V  V50  1  0.00290361  0.12664916  0.62589625  1
  V  V51  1  0.00629484  0.12191168  0.12542828  1
  V  V52  1  0.12557888  0.50005047  0.12181094  1
  V  V53  1  0.00345324  0.87171962  0.35844507  1
  V  V54  1  0.87612349  0.50119081  0.87639293  1
  V  V55  1  0.13018767  0.24559133  0.37600361  1
  V  V56  1  0.24196891  -0.00659925  0.25531892  1
  V  V57  1  0.75179411  0.50024343  0.75041395  1
  V  V58  1  0.87883763  0.62721308  0.75242453  1
  V  V59  1  0.00118865  0.37654502  0.87378742  1
  V  V60  1  0.48665689  -0.00908905  0.00115416  1
  V  V61  1  0.62508718  0.89007439  0.74742958  1
  V  V62  1  0.75648819  0.62070034  0.37679673  1
  V  V63  1  0.87468124  0.37477065  0.00173295  1
  V  V64  1  0.74813103  0.00077553  0.24879952  1
  V  V65  1  -0.00004569  0.25058697  0.25077173  1
  V  V66  1  0.23584895  0.88017951  0.11614463  1
  V  V67  1  -0.00361316  0.50244283  0.49138756  1
  V  V68  1  0.87448010  0.12497885  0.24945312  1
  V  V69  1  0.74463660  0.37497489  0.13057635  1
  V  V70  1  0.51262570  0.00628468  0.50294834  1
  V  V71  1  0.00279843  0.62619055  0.62596618  1
  V  V72  1  0.62847315  0.24717816  0.86736335  1
  V  V73  1  0.12954741  0.75918854  0.87983259  1
  V  V74  1  0.73972959  0.24438372  0.00067871  1
  V  V75  1  0.38108679  0.74982437  0.63271645  1
  V  V76  1  0.49605204  0.87924717  0.37893694  1
  V  V77  1  0.62059642  0.00182090  0.12106242  1
  V  V78  1  0.87333205  0.24922389  0.12459323  1
  V  V79  1  0.37762468  0.24769850  0.61846543  1
  V  V80  1  0.37994380  0.63075360  0.25163867  1
  V  V81  1  0.87608329  0.37554567  0.49074170  1
  V  V82  1  0.12651989  0.37353115  0.24831228  1
  V  V83  1  0.24624033  0.87895403  0.64065136  1
  V  V84  1  0.12659301  0.62796720  0.49922700  1
  Zn  Zn85  1  0.36990824  0.00711467  0.38060222  1
  Zn  Zn86  1  0.38458207  0.62797984  0.75937697  1
  Zn  Zn87  1  0.00050247  0.50139190  0.00118750  1
  Zn  Zn88  1  0.62552147  0.37677767  0.75307264  1
  Zn  Zn89  1  0.26861969  0.24813672  -0.00425686  1
  Zn  Zn90  1  0.49577623  0.26526914  0.24516783  1
  Zn  Zn91  1  0.00521370  -0.00001236  0.49980504  1
  Zn  Zn92  1  0.74988597  0.88614975  0.63151610  1
  Zn  Zn93  1  0.49893027  0.25017794  0.74879039  1
  Zn  Zn94  1  0.73949556  0.12049349  0.37629523  1
  Zn  Zn95  1  0.88002734  0.62337055  0.25588511  1
  Zn  Zn96  1  0.37560564  0.88014136  0.50523444  1
  Zn  Zn97  1  0.00306201  0.88295798  0.86849097  1
  Zn  Zn98  1  0.25919193  0.25176238  0.49054873  1
  Zn  Zn99  1  0.12937605  0.25311597  0.87589598  1
  Zn  Zn100  1  0.37334450  0.12141523  0.74420282  1
  Zn  Zn101  1  0.49624618  0.62704365  0.12241781  1
  Zn  Zn102  1  0.12473864  0.63006897  0.00185533  1
  Zn  Zn103  1  0.49393180  0.86797368  0.87283124  1
  Zn  Zn104  1  -0.00205667  0.38065605  0.37039180  1
  Zn  Zn105  1  0.50175341  0.62610389  0.63167959  1
  Zn  Zn106  1  0.62648823  0.12038596  -0.00547868  1
  Zn  Zn107  1  0.18993565  0.18474775  0.18795698  1
  Zn  Zn108  1  0.18802723  0.19206466  0.68411747  1
  Zn  Zn109  1  0.19408880  0.69071952  0.18352059  1
  Zn  Zn110  1  0.19054030  0.68974520  0.69171987  1
  Zn  Zn111  1  0.68268830  0.18583319  0.18820062  1
  Zn  Zn112  1  0.69048820  0.05992416  0.68747176  1
  Zn  Zn113  1  0.68544327  0.68412215  0.18936496  1
  Zn  Zn114  1  0.68944914  0.68621659  0.68533833  1
  Zn  Zn115  1  0.31217772  0.30982786  0.30511557  1
  Zn  Zn116  1  0.31362614  0.30689942  0.80600963  1
  Zn  Zn117  1  0.30999751  0.81765751  0.31139406  1
  Zn  Zn118  1  0.30945578  0.81091099  0.81507459  1
  Zn  Zn119  1  0.81160461  0.31384339  0.31400427  1
  Zn  Zn120  1  0.80909964  0.31416313  0.81804124  1
  Zn  Zn121  1  0.81153840  0.81380407  0.31418995  1
  Zn  Zn122  1  0.80895614  0.81374367  0.81343184  1
  Zn  Zn123  1  0.18721966  0.43989737  0.43354273  1
  Zn  Zn124  1  0.19028742  0.44000107  0.93728984  1
  Zn  Zn125  1  0.18535732  0.93856481  0.43810469  1
  Zn  Zn126  1  0.18666847  0.94068247  0.93859341  1
  Zn  Zn127  1  0.68949360  0.43566748  0.43955734  1
  Zn  Zn128  1  0.68321043  0.43248724  0.94072788  1
  Zn  Zn129  1  0.68964836  0.93691074  0.43927291  1
  Zn  Zn130  1  0.68538574  0.93577373  0.93435180  1
  Zn  Zn131  1  0.30767784  0.05922283  0.06294674  1
  Zn  Zn132  1  0.31783867  0.05949904  0.56304922  1
  Zn  Zn133  1  0.31053480  0.56750552  0.06581694  1
  Zn  Zn134  1  0.31627290  0.56441662  0.56074917  1
  Zn  Zn135  1  0.81478405  0.06125190  0.05946958  1
  Zn  Zn136  1  0.81650027  0.05875834  0.55536069  1
  Zn  Zn137  1  0.81384615  0.56237090  0.06689607  1
  Zn  Zn138  1  0.81574016  0.56294282  0.56198951  1
  Zn  Zn139  1  0.43502765  0.44723538  0.18617042  1
  Zn  Zn140  1  0.44073429  0.43621015  0.68692536  1
  Zn  Zn141  1  0.43136301  0.94192926  0.19225350  1
  Zn  Zn142  1  0.44286193  0.93382319  0.68793441  1
  Zn  Zn143  1  0.93643962  0.44080461  0.18819985  1
  Zn  Zn144  1  0.93886427  0.43899201  0.68314185  1
  Zn  Zn145  1  0.93852321  0.93847431  0.18267753  1
  Zn  Zn146  1  0.93273793  0.94449965  0.68753704  1
  Zn  Zn147  1  0.06394360  0.06236277  0.31440989  1
  Zn  Zn148  1  0.05810179  0.06609840  0.81538724  1
  Zn  Zn149  1  0.06631406  0.56630495  0.30984801  1
  Zn  Zn150  1  0.06652642  0.56562787  0.81372006  1
  Zn  Zn151  1  0.56005009  0.06865654  0.31276550  1
  Zn  Zn152  1  0.55395175  0.06429455  0.81778449  1
  Zn  Zn153  1  0.56563140  0.43330781  0.31187571  1
  Zn  Zn154  1  0.56038656  0.55995672  0.81167797  1
  Zn  Zn155  1  0.44252232  0.18844664  0.44064996  1
  Zn  Zn156  1  0.44031672  0.17942534  0.93310974  1
  Zn  Zn157  1  0.43651060  0.68758449  0.44177662  1
  Zn  Zn158  1  0.43753955  0.68503308  0.93885282  1
  Zn  Zn159  1  0.94117477  0.19012292  0.43948011  1
  Zn  Zn160  1  0.93868447  0.19107454  0.93547931  1
  Zn  Zn161  1  0.94025029  0.69070159  0.43598750  1
  Zn  Zn162  1  0.94329315  0.68981447  0.94204272  1
  Zn  Zn163  1  0.06334356  0.31093182  0.06269171  1
  Zn  Zn164  1  0.06491196  0.31376443  0.56069110  1
  Zn  Zn165  1  0.06144160  0.81408573  0.06179184  1
  Zn  Zn166  1  0.06503185  0.81485623  0.56030407  1
  Zn  Zn167  1  0.44039515  0.31240601  0.06206975  1
  Zn  Zn168  1  0.57274574  0.30540397  0.56535036  1
  Zn  Zn169  1  0.55932921  0.81071388  0.06154297  1
  Zn  Zn170  1  0.56371499  0.81776089  0.56540369  1
  O  O171  1  0.11342015  0.13121814  0.11785070  1
  O  O172  1  0.12085754  0.11954439  0.61969585  1
  O  O173  1  0.12199483  0.61920419  0.12484740  1
  O  O174  1  0.12271172  0.62195767  0.61954254  1
  O  O175  1  0.61302484  0.11167661  0.12728561  1
  O  O176  1  0.61326359  0.12663834  0.62822061  1
  O  O177  1  0.62293794  0.61589063  0.11750963  1
  O  O178  1  0.62862314  0.61800000  0.61337769  1
  O  O179  1  0.36432211  0.38828771  0.37071047  1
  O  O180  1  0.38840595  0.36921250  0.87167870  1
  O  O181  1  0.38958843  0.87370555  0.37725196  1
  O  O182  1  0.37426222  0.88537953  0.87326303  1
  O  O183  1  0.87757598  0.37830008  0.38535265  1
  O  O184  1  0.87964421  0.38093056  0.88302504  1
  O  O185  1  0.88098395  0.88223076  0.37947288  1
  O  O186  1  0.87653455  0.87273547  0.88757220  1
  O  O187  1  0.25290948  -0.00725574  0.36225612  1
  O  O188  1  0.26271816  0.00616761  0.88010035  1
  O  O189  1  0.25544768  0.50878604  0.36894357  1
  O  O190  1  0.24440522  0.51301695  0.86637515  1
  O  O191  1  0.75923666  0.00078448  0.36961546  1
  O  O192  1  0.76501904  0.00092336  0.88585111  1
  O  O193  1  0.74446482  0.50912948  0.36778906  1
  O  O194  1  0.75597545  0.50401830  0.87200307  1
  O  O195  1  0.24469880  0.49196759  0.12923024  1
  O  O196  1  0.24711816  0.49533025  0.63013251  1
  O  O197  1  0.25529461  0.98685893  0.13583821  1
  O  O198  1  0.24477004  0.98590874  0.62236619  1
  O  O199  1  0.74356136  0.49399380  0.13020862  1
  O  O200  1  0.74589049  0.49447297  0.62797446  1
  O  O201  1  0.74115862  0.99470667  0.12692146  1
  O  O202  1  0.75523988  0.99855881  0.62283000  1
  O  O203  1  0.00865389  0.37101843  0.24845729  1
  O  O204  1  0.00772029  0.37260661  0.75088385  1
  O  O205  1  -0.00496246  0.87669395  0.25916185  1
  O  O206  1  -0.00607674  0.86328419  0.74935442  1
  O  O207  1  0.49796147  0.37779775  0.24304705  1
  O  O208  1  0.50451127  0.37649714  0.76358764  1
  O  O209  1  0.50465645  0.87416910  0.25899729  1
  O  O210  1  0.51785696  0.87694819  0.75533509  1
  O  O211  1  0.48743208  0.12139643  0.23648008  1
  O  O212  1  0.49790642  0.12436231  0.73634898  1
  O  O213  1  0.48543592  0.63239697  0.24688189  1
  O  O214  1  0.49636576  0.61994841  0.74546279  1
  O  O215  1  0.99535611  0.12815571  0.24213583  1
  O  O216  1  1.00600475  0.13704342  0.73723129  1
  O  O217  1  0.99745901  0.62062158  0.23679063  1
  O  O218  1  0.99605478  0.63189352  0.74447973  1
  O  O219  1  0.38017303  0.23992722  0.00412032  1
  O  O220  1  0.37444320  0.24732259  0.51098942  1
  O  O221  1  0.37956874  0.74920255  0.01576301  1
  O  O222  1  0.36529219  0.75422839  0.50972274  1
  O  O223  1  0.86830944  0.26009151  0.00311675  1
  O  O224  1  0.86476534  0.26139555  0.49234905  1
  O  O225  1  0.86984700  0.75764514  0.00731339  1
  O  O226  1  0.86958962  0.75622492  0.50489199  1
  O  O227  1  0.12754224  0.24437193  0.49151113  1
  O  O228  1  0.12223427  0.23792872  0.99575004  1
  O  O229  1  0.13298662  0.74480077  0.49465789  1
  O  O230  1  0.11822513  0.74845525  0.98347220  1
  O  O231  1  0.64519232  0.25500000  0.49093815  1
  O  O232  1  0.63558692  0.24776916  0.99251007  1
  O  O233  1  0.63247279  0.74560421  0.49974203  1
  O  O234  1  0.62900778  0.73780075  0.99831954  1
  O  O235  1  0.50414642  0.23434174  0.12584373  1
  O  O236  1  0.49826517  0.23762862  0.62312869  1
  O  O237  1  0.48966488  0.75021176  0.13217469  1
  O  O238  1  0.48326446  0.75203028  0.61820687  1
  O  O239  1  0.99310453  0.24368101  0.13104835  1
  O  O240  1  1.00456210  0.24705755  0.63532007  1
  O  O241  1  0.99066826  0.74349978  0.12102270  1
  O  O242  1  0.99869043  0.74608282  0.63208092  1
  O  O243  1  0.01062911  0.25483683  0.36743929  1
  O  O244  1  0.00051133  0.25791773  0.86015356  1
  O  O245  1  0.01013107  0.75850449  0.37602427  1
  O  O246  1  0.01033311  0.75174767  0.86711402  1
  O  O247  1  0.51259164  0.25158968  0.37396515  1
  O  O248  1  0.50889077  0.26027516  0.87587195  1
  O  O249  1  0.50557211  0.75738910  0.37277527  1
  O  O250  1  0.51431677  0.75033621  0.88351853  1
  O  O251  1  0.23983347  0.12783001  0.50562324  1
  O  O252  1  0.24119627  0.12532444  0.99444005  1
  O  O253  1  0.24652544  0.63624565  0.49557324  1
  O  O254  1  0.24494382  0.61943127  0.98647813  1
  O  O255  1  0.76073412  0.14035445  0.49487371  1
  O  O256  1  0.74778983  0.13963579  1.01020295  1
  O  O257  1  0.74664225  0.63166234  0.49622001  1
  O  O258  1  0.74408147  0.62759099  0.99662622  1
  O  O259  1  0.24533420  0.37259241  0.01271004  1
  O  O260  1  0.24340476  0.37617874  0.51185368  1
  O  O261  1  0.24695677  0.88300047  0.01638973  1
  O  O262  1  0.25103460  0.86563922  0.50452009  1
  O  O263  1  0.75669655  0.36832601  0.01033608  1
  O  O264  1  0.75920774  0.36942601  0.50575783  1
  O  O265  1  0.75536790  0.86955854  0.00605343  1
  O  O266  1  0.76215465  0.86672789  0.49891294  1
  O  O267  1  0.13197368  0.49348022  0.24127037  1
  O  O268  1  0.13050992  0.49230984  0.74346219  1
  O  O269  1  0.14377389  1.01235235  0.25059568  1
  O  O270  1  0.11896410  1.00371039  0.73843904  1
  O  O271  1  0.63749602  0.49844011  0.23995847  1
  O  O272  1  0.63573375  0.49856912  0.74313240  1
  O  O273  1  0.62815379  0.99571198  0.24330369  1
  O  O274  1  0.62814447  0.99443779  0.76052419  1
  O  O275  1  0.36699458  0.01075104  0.25703031  1
  O  O276  1  0.37877966  -0.00126899  0.76271902  1
  O  O277  1  0.36964711  0.51218329  0.25710433  1
  O  O278  1  0.36354244  0.50203833  0.74554286  1
  O  O279  1  0.86899517  0.00334265  0.25448409  1
  O  O280  1  0.87497727  -0.00235672  0.76858078  1
  O  O281  1  0.85842502  0.50465139  0.24334569  1
  O  O282  1  0.87215702  0.50698002  0.75497538  1
  O  O283  1  0.12462775  0.37230825  0.36000920  1
  O  O284  1  0.11990413  0.37676260  0.86621213  1
  O  O285  1  0.11361229  0.86679556  0.38027819  1
  O  O286  1  0.12401838  0.86374886  0.87630027  1
  O  O287  1  0.63193920  0.36085650  0.37526893  1
  O  O288  1  0.61726992  0.36402218  0.87694841  1
  O  O289  1  0.61621915  0.87005537  0.37176706  1
  O  O290  1  0.62447844  0.86227463  0.86645590  1
  O  O291  1  0.38555712  0.11707517  0.13134633  1
  O  O292  1  0.38200899  0.13167999  0.62629125  1
  O  O293  1  0.37139937  0.63873632  0.13410808  1
  O  O294  1  0.37201542  0.64185939  0.62575442  1
  O  O295  1  0.88330743  0.13156160  0.12874046  1
  O  O296  1  0.88244356  0.13210751  0.62407544  1
  O  O297  1  0.88257600  0.63493189  0.12613255  1
  O  O298  1  0.88248848  0.63280934  0.63049542  1
  O  O299  1  0.24515281  0.26536189  0.12276626  1
  O  O300  1  0.25852306  0.26020320  0.62209674  1
  O  O301  1  0.26185028  0.76554695  0.12907273  1
  O  O302  1  0.25304708  0.76103856  0.61986323  1
  O  O303  1  0.75110421  0.25771227  0.12079942  1
  O  O304  1  0.76018428  0.25677258  0.61432724  1
  O  O305  1  0.75418600  0.75488935  0.11991092  1
  O  O306  1  0.75680887  0.75064364  0.61373358  1
  O  O307  1  0.23543375  0.25570957  0.37338984  1
  O  O308  1  0.24926280  0.24146091  0.87720465  1
  O  O309  1  0.24558823  0.74904537  0.38341449  1
  O  O310  1  0.23587392  0.74098247  0.86976930  1
  O  O311  1  0.74584514  0.24736659  0.38152311  1
  O  O312  1  0.73695593  0.25518296  0.88384027  1
  O  O313  1  0.74512248  0.74740356  0.38612721  1
  O  O314  1  0.74100181  0.74232996  0.88324980  1
  O  O315  1  0.00375969  0.12172888  0.00635957  1
  O  O316  1  0.00749838  0.12840646  0.51366614  1
  O  O317  1  0.00243934  0.62080343  0.01409152  1
  O  O318  1  0.00469371  0.62064405  0.50549556  1
  O  O319  1  0.50274664  0.11104411  0.01127159  1
  O  O320  1  0.50098314  0.11398606  0.50999637  1
  O  O321  1  0.50787956  0.61382370  -0.00097596  1
  O  O322  1  0.51046635  0.62177267  0.50408648  1
  O  O323  1  0.50665518  0.38235792  0.50702354  1
  O  O324  1  0.49732599  0.38813859  0.99273220  1
  O  O325  1  0.50041927  0.88577667  0.49568888  1
  O  O326  1  0.50456074  0.88853198  0.99621324  1
  O  O327  1  0.99388015  0.38397411  0.49901024  1
  O  O328  1  0.99140491  0.37484039  0.99456111  1
  O  O329  1  0.98834876  0.87335606  0.49371505  1
  O  O330  1  0.99253288  0.88553934  0.99882287  1
  O  O331  1  0.49315315  0.49435156  0.38551115  1
  O  O332  1  0.50646133  0.48784199  0.88799605  1
  O  O333  1  0.50099008  0.99544618  0.38535261  1
  O  O334  1  0.48640076  0.99864465  0.88644886  1
  O  O335  1  1.00827027  0.50180986  0.38743109  1
  O  O336  1  0.99385888  0.49527150  0.87665770  1
  O  O337  1  0.99432683  0.99115517  0.37556976  1
  O  O338  1  0.98895546  1.00074905  0.88283856  1
  O  O339  1  -0.00659154  0.01194768  0.11442508  1
  O  O340  1  0.00582501  0.00949219  0.62331796  1
  O  O341  1  0.00999592  0.50587143  0.12476355  1
  O  O342  1  0.00841717  0.50704964  0.61581268  1
  O  O343  1  0.50226983  0.00138536  0.11629764  1
  O  O344  1  0.49768811  0.01008479  0.61478108  1
  O  O345  1  0.50642146  0.50379307  0.11141580  1
  O  O346  1  0.50975178  0.49998370  0.61719754  1
  O  O347  1  0.24398933  0.37970776  0.23732239  1
  O  O348  1  0.24352760  0.38265100  0.74452712  1
  O  O349  1  0.25205811  0.88801230  0.24248841  1
  O  O350  1  0.24568485  0.87263016  0.73847699  1
  O  O351  1  0.75574004  0.38053529  0.23730183  1
  O  O352  1  0.75340766  0.38215455  0.74135612  1
  O  O353  1  0.74290257  0.88063465  0.24407755  1
  O  O354  1  0.73129785  0.86671551  0.75013114  1
  O  O355  1  0.26548875  0.11636042  0.24048229  1
  O  O356  1  0.24760943  0.12840568  0.76081156  1
  O  O357  1  0.25969812  0.62186134  0.25465122  1
  O  O358  1  0.25080002  0.61635921  0.75926745  1
  O  O359  1  0.75721719  0.11792192  0.25025809  1
  O  O360  1  0.75943862  0.14422513  0.73388421  1
  O  O361  1  0.74942984  0.61828295  0.26081468  1
  O  O362  1  0.75865327  0.62038817  0.75632061  1
  O  O363  1  0.38149234  0.12680248  0.36105428  1
  O  O364  1  0.36827165  0.11285067  0.86840745  1
  O  O365  1  0.37007435  0.62306976  0.36925389  1
  O  O366  1  0.35621365  0.63660156  0.87453447  1
  O  O367  1  0.88061320  0.11243269  0.36999171  1
  O  O368  1  0.87473255  0.11805725  0.87675597  1
  O  O369  1  0.86153171  0.63325049  0.37481716  1
  O  O370  1  0.87217012  0.62074900  0.87383467  1
  O  O371  1  0.12975060  0.38077779  0.13283137  1
  O  O372  1  0.13306270  0.38144378  0.63154873  1
  O  O373  1  0.13657774  0.87037246  0.12625420  1
  O  O374  1  0.13696849  0.88276524  0.62094994  1
  O  O375  1  0.63534739  0.38993520  0.11643589  1
  O  O376  1  0.64098743  0.38027738  0.62623048  1
  O  O377  1  0.62662430  0.88451716  0.12916254  1
  O  O378  1  0.62718369  0.87233329  0.64329751  1
  O  O379  1  0.12096588  0.25545495  0.25386121  1
  O  O380  1  0.11893318  0.26431275  0.74962096  1
  O  O381  1  0.13211787  0.74521972  0.26353170  1
  O  O382  1  0.11586726  0.74510356  0.76217002  1
  O  O383  1  0.62142416  0.25079109  0.26076881  1
  O  O384  1  0.62286361  0.25522435  0.76516800  1
  O  O385  1  0.61726234  0.75576101  0.25460827  1
  O  O386  1  0.62689526  0.74435323  0.76248878  1
  O  O387  1  0.37730501  0.23544298  0.24808141  1
  O  O388  1  0.38033666  0.24568419  0.73513652  1
  O  O389  1  0.37900031  0.74742286  0.24666855  1
  O  O390  1  0.36899986  0.74988170  0.73599032  1
  O  O391  1  0.87969869  0.24478813  0.24582278  1
  O  O392  1  0.87902816  0.25474153  0.74382515  1
  O  O393  1  0.86735114  0.74973149  0.23637180  1
  O  O394  1  0.88158118  0.74522836  0.74663705  1
  O  O395  1  0.38704440  0.50551908  0.49038623  1
  O  O396  1  0.38818564  0.50792120  1.00204935  1
  O  O397  1  0.38690712  0.99731452  0.49597798  1
  O  O398  1  0.38413089  1.00199171  0.99319212  1
  O  O399  1  0.88677721  0.49394073  0.50354491  1
  O  O400  1  0.87446961  0.48782114  0.99796207  1
  O  O401  1  0.88197586  0.99167123  0.48825422  1
  O  O402  1  0.88337940  0.99393077  0.99363552  1
  O  O403  1  0.11089177  0.01271208  -0.00680802  1
  O  O404  1  0.12331197  0.00885287  0.50781643  1
  O  O405  1  0.12376857  0.49914856  0.01348305  1
  O  O406  1  0.12054764  0.50791459  0.50437759  1
  O  O407  1  0.61628949  0.00055431  0.00615214  1
  O  O408  1  0.61232063  -0.00288028  0.49833500  1
  O  O409  1  0.62276621  0.51009096  0.00564079  1
  O  O410  1  0.61880774  0.50658258  0.50344977  1
  O  O411  1  0.36313293  0.37902901  0.12342009  1
  O  O412  1  0.36705129  0.36745791  0.62881004  1
  O  O413  1  0.37246756  0.86522139  0.12856886  1
  O  O414  1  0.36432998  0.86766083  0.62670179  1
  O  O415  1  0.86929270  0.36932039  0.11833855  1
  O  O416  1  0.86508978  0.38223940  0.61413914  1
  O  O417  1  0.87031634  0.86978082  0.11448493  1
  O  O418  1  0.87503628  0.86944612  0.61634085  1
  O  O419  1  0.11802250  0.13421234  0.38719959  1
  O  O420  1  0.13281563  0.12695425  0.88157601  1
  O  O421  1  0.13284873  0.63251366  0.38059905  1
  O  O422  1  0.13400430  0.63351459  0.87783750  1
  O  O423  1  0.62586826  0.14219520  0.37255065  1
  O  O424  1  0.61529479  0.14221407  0.87821603  1
  O  O425  1  0.63855337  0.63488986  0.38965848  1
  O  O426  1  0.63050741  0.63078584  0.88238753  1
