# generated using pymatgen
data_V85Zn86O256
_symmetry_space_group_name_H-M   'P 1'
_cell_length_a   16.93145170
_cell_length_b   16.92478633
_cell_length_c   16.93157938
_cell_angle_alpha   90.01345366
_cell_angle_beta   89.97440634
_cell_angle_gamma   89.98340690
_symmetry_Int_Tables_number   1
_chemical_formula_structural   V85Zn86O256
_chemical_formula_sum   'V85 Zn86 O256'
_cell_volume   4851.93292147
_cell_formula_units_Z   1
loop_
 _symmetry_equiv_pos_site_id
 _symmetry_equiv_pos_as_xyz
  1  'x, y, z'
loop_
 _atom_site_type_symbol
 _atom_site_label
 _atom_site_symmetry_multiplicity
 _atom_site_fract_x
 _atom_site_fract_y
 _atom_site_fract_z
 _atom_site_occupancy
  V  V0  1  0.87724107  0.50357354  0.87157857  1
  V  V1  1  0.13221696  0.49740245  0.62448188  1
  V  V2  1  0.50535430  0.75167546  0.25034097  1
  V  V3  1  0.87707953  0.24067378  0.12290735  1
  V  V4  1  -0.00243424  0.62324172  0.63077737  1
  V  V5  1  0.37599629  0.62691868  0.74952228  1
  V  V6  1  0.74802599  0.24370298  -0.00175151  1
  V  V7  1  0.75361463  0.36201544  0.62451208  1
  V  V8  1  0.74416407  0.37587266  0.12281878  1
  V  V9  1  0.13034615  0.49129015  0.12208197  1
  V  V10  1  -0.00429941  0.74785062  0.75268404  1
  V  V11  1  0.50577735  0.37258598  0.37701458  1
  V  V12  1  0.36802043  0.75355374  0.62060939  1
  V  V13  1  0.13161003  0.12748580  0.00859061  1
  V  V14  1  0.75432254  0.63027675  0.87506268  1
  V  V15  1  0.12182841  0.62703011  0.00830737  1
  V  V16  1  -0.00133153  0.49986235  0.49897715  1
  V  V17  1  0.25268211  0.11936672  0.37625271  1
  V  V18  1  0.25056181  0.62453601  0.87424487  1
  V  V19  1  0.49995664  0.24822468  0.74971460  1
  V  V20  1  0.62914937  0.49932891  0.62575790  1
  V  V21  1  0.12411510  0.25048590  0.37225180  1
  V  V22  1  0.87169273  0.74740867  0.62405548  1
  V  V23  1  0.00060057  0.23876386  0.24564052  1
  V  V24  1  0.62609022  0.75742452  0.37324137  1
  V  V25  1  0.74558123  0.50113697  0.24538292  1
  V  V26  1  0.11922788  0.12320462  0.50078748  1
  V  V27  1  0.35985060  0.12314607  0.75230229  1
  V  V28  1  0.13765283  0.87862585  0.74539954  1
  V  V29  1  0.25211370  0.74990774  0.00263416  1
  V  V30  1  0.87934020  0.62385161  0.23998545  1
  V  V31  1  0.50535719  0.76146315  0.74542920  1
  V  V32  1  0.86540866  0.86790689  0.50173765  1
  V  V33  1  0.74004142  -0.00515343  0.25284969  1
  V  V34  1  0.00491875  0.74556800  0.24075581  1
  V  V35  1  -0.00147031  0.50318730  0.00796365  1
  V  V36  1  0.74817723  0.86763133  0.12495412  1
  V  V37  1  0.75659593  0.50406420  0.74856146  1
  V  V38  1  0.37910071  0.75124044  0.12513765  1
  V  V39  1  0.00084222  0.86503003  0.37769548  1
  V  V40  1  0.86913952  0.12027358  0.25157521  1
  V  V41  1  0.50213589  0.12076921  0.61557314  1
  V  V42  1  0.49732849  0.89012744  0.37166545  1
  V  V43  1  0.37912601  0.89160437  0.49908572  1
  V  V44  1  0.36154482  0.25478961  0.12356292  1
  V  V45  1  0.36486437  0.37494510  0.00362096  1
  V  V46  1  0.24460377  0.25938866  0.50171929  1
  V  V47  1  0.25006211  0.87690478  0.12882619  1
  V  V48  1  0.62467502  -0.00238129  0.12603831  1
  V  V49  1  -0.00118459  0.37369589  0.37027971  1
  V  V50  1  0.50117990  0.24744058  0.24846721  1
  V  V51  1  0.49891857  0.00405499  -0.00320400  1
  V  V52  1  0.50569601  0.49838040  0.00268184  1
  V  V53  1  0.25149428  0.75084787  0.48952903  1
  V  V54  1  0.00187440  0.87956328  0.87763038  1
  V  V55  1  0.87293828  0.00692616  0.86769797  1
  V  V56  1  -0.00454342  0.24457602  0.74685714  1
  V  V57  1  0.37350361  0.50197699  0.37327447  1
  V  V58  1  0.62871296  0.62897699  -0.00065907  1
  V  V59  1  0.87189528  -0.00250464  0.37683974  1
  V  V60  1  0.75189593  0.62800462  0.37504708  1
  V  V61  1  0.25183231  0.49376078  0.24418276  1
  V  V62  1  0.12368583  0.63148608  0.49286143  1
  V  V63  1  0.62739578  0.75811382  0.87301773  1
  V  V64  1  0.37612717  0.87822759  -0.00128966  1
  V  V65  1  0.63148847  0.62850024  0.49865864  1
  V  V66  1  0.13292934  0.37443542  0.74814423  1
  V  V67  1  0.69035957  0.19346175  0.43672573  1
  V  V68  1  0.62831766  0.37044122  0.25268076  1
  V  V69  1  0.11805153  0.00076187  0.13137143  1
  V  V70  1  0.87440279  0.37389954  0.00072648  1
  V  V71  1  0.50579618  0.62101572  0.12584256  1
  V  V72  1  0.50196653  0.49954423  0.49999099  1
  V  V73  1  0.50122657  0.62538665  0.62508843  1
  V  V74  1  0.00225283  0.37287761  0.87561133  1
  V  V75  1  0.13969026  0.24248785  0.87995578  1
  V  V76  1  0.50073603  0.37472145  0.87617661  1
  V  V77  1  0.36820289  0.25839701  0.62718854  1
  V  V78  1  0.87110825  0.87213977  -0.00028651  1
  V  V79  1  0.37088810  0.37849829  0.50319914  1
  V  V80  1  0.36047630  0.00429480  0.87308515  1
  V  V81  1  0.12552154  0.75020713  0.87570426  1
  V  V82  1  0.87367799  0.36341966  0.50453151  1
  V  V83  1  0.37601956  0.11945562  0.25240205  1
  V  V84  1  0.12844538  0.86993555  0.26350115  1
  Zn  Zn85  1  0.50028091  0.12739596  0.12507233  1
  Zn  Zn86  1  0.25345610  -0.00386375  0.25834216  1
  Zn  Zn87  1  0.37516109  0.62472750  0.24920798  1
  Zn  Zn88  1  0.73009956  -0.00360996  0.74278703  1
  Zn  Zn89  1  0.61710235  -0.01853484  0.62240836  1
  Zn  Zn90  1  0.13069634  0.00680637  0.63897362  1
  Zn  Zn91  1  0.73826545  0.86909039  0.63351648  1
  Zn  Zn92  1  0.87437171  0.74577415  0.11819508  1
  Zn  Zn93  1  -0.00333988  -0.00471367  0.50684243  1
  Zn  Zn94  1  0.62625977  0.37508257  0.75047848  1
  Zn  Zn95  1  -0.00266028  0.01070896  0.00569392  1
  Zn  Zn96  1  0.86203493  0.13174548  0.73414893  1
  Zn  Zn97  1  0.25367789  0.49861757  0.74564020  1
  Zn  Zn98  1  0.74257976  0.12444403  0.86972190  1
  Zn  Zn99  1  0.12703542  0.37073791  0.24203011  1
  Zn  Zn100  1  0.62364540  0.24815428  0.87573687  1
  Zn  Zn101  1  0.62223753  0.12608053  -0.00008376  1
  Zn  Zn102  1  0.24343854  0.62572263  0.36841274  1
  Zn  Zn103  1  0.50472114  0.88428045  0.86756289  1
  Zn  Zn104  1  -0.00742346  0.12148645  0.62028724  1
  Zn  Zn105  1  0.37669905  0.50172695  0.87555550  1
  Zn  Zn106  1  0.87428534  0.50054943  0.37344171  1
  Zn  Zn107  1  0.18884137  0.18430034  0.18848072  1
  Zn  Zn108  1  0.18255509  0.19312544  0.68400849  1
  Zn  Zn109  1  0.18909176  0.68467636  0.18857920  1
  Zn  Zn110  1  0.18519921  0.69053502  0.68444291  1
  Zn  Zn111  1  0.68661930  0.18327841  0.19157804  1
  Zn  Zn112  1  0.68192435  0.18059814  0.68907104  1
  Zn  Zn113  1  0.68638983  0.68772158  0.18749473  1
  Zn  Zn114  1  0.68811978  0.68778673  0.69063468  1
  Zn  Zn115  1  0.31342005  0.31346061  0.31266956  1
  Zn  Zn116  1  0.31531318  0.31521786  0.81471903  1
  Zn  Zn117  1  0.31908970  0.81257687  0.31510208  1
  Zn  Zn118  1  0.31691895  0.81210309  0.81559720  1
  Zn  Zn119  1  0.81613802  0.31205297  0.31347440  1
  Zn  Zn120  1  0.81217990  0.31501405  0.81258844  1
  Zn  Zn121  1  0.81415007  0.81030967  0.30881191  1
  Zn  Zn122  1  0.81336355  0.81464782  0.81117718  1
  Zn  Zn123  1  0.18432386  0.43998355  0.43294568  1
  Zn  Zn124  1  0.18681357  0.43985221  0.93389931  1
  Zn  Zn125  1  0.20692741  0.95562808  0.47895200  1
  Zn  Zn126  1  0.18426810  0.93951099  0.94245383  1
  Zn  Zn127  1  0.69113162  0.43516073  0.43780127  1
  Zn  Zn128  1  0.68595525  0.43849053  0.93666625  1
  Zn  Zn129  1  0.69123203  0.93912361  0.44661412  1
  Zn  Zn130  1  0.69009754  0.93922742  0.93945649  1
  Zn  Zn131  1  0.30915107  0.06444132  0.06637291  1
  Zn  Zn132  1  0.30756108  0.07108999  0.56991274  1
  Zn  Zn133  1  0.31663633  0.56154231  0.06263846  1
  Zn  Zn134  1  0.31130035  0.56719767  0.56025222  1
  Zn  Zn135  1  0.81367805  0.05759918  0.06239673  1
  Zn  Zn136  1  0.80424058  0.06370117  0.56496228  1
  Zn  Zn137  1  0.80931226  0.56131485  0.06070794  1
  Zn  Zn138  1  0.81546855  0.56155265  0.56178609  1
  Zn  Zn139  1  0.44008521  0.43626642  0.18604239  1
  Zn  Zn140  1  0.43831832  0.43883230  0.68884222  1
  Zn  Zn141  1  0.44214489  0.93815566  0.18926604  1
  Zn  Zn142  1  0.43080137  0.94185967  0.68533407  1
  Zn  Zn143  1  0.93428320  0.43418085  0.18628856  1
  Zn  Zn144  1  0.93937935  0.43438266  0.68778517  1
  Zn  Zn145  1  0.93663952  0.93293375  0.18974992  1
  Zn  Zn146  1  0.94097779  0.93788093  0.68564875  1
  Zn  Zn147  1  0.06129653  0.05744718  0.31851215  1
  Zn  Zn148  1  0.06594213  0.06219813  0.81719114  1
  Zn  Zn149  1  0.06202672  0.56087422  0.30881947  1
  Zn  Zn150  1  0.06433076  0.56158658  0.81430718  1
  Zn  Zn151  1  0.56412444  0.06437372  0.44380620  1
  Zn  Zn152  1  0.56101965  0.06586383  0.81031747  1
  Zn  Zn153  1  0.56559060  0.56040040  0.31086999  1
  Zn  Zn154  1  0.56483720  0.56398344  0.81286951  1
  Zn  Zn155  1  0.43337430  0.19461824  0.43587652  1
  Zn  Zn156  1  0.43176611  0.18731794  0.93764670  1
  Zn  Zn157  1  0.44033138  0.68714357  0.43692505  1
  Zn  Zn158  1  0.44236618  0.69036320  0.93556619  1
  Zn  Zn159  1  0.93044348  0.18396495  0.43492588  1
  Zn  Zn160  1  0.94391290  0.18590794  0.93821972  1
  Zn  Zn161  1  0.93714408  0.68769663  0.43405256  1
  Zn  Zn162  1  0.93745595  0.68843413  0.93838245  1
  Zn  Zn163  1  0.06255010  0.30855318  0.06043402  1
  Zn  Zn164  1  0.06150241  0.31405584  0.56393399  1
  Zn  Zn165  1  0.06262568  0.81664078  0.06521532  1
  Zn  Zn166  1  0.06200110  0.81175631  0.56412581  1
  Zn  Zn167  1  0.56155718  0.31249510  0.06528680  1
  Zn  Zn168  1  0.56453199  0.30912414  0.56433288  1
  Zn  Zn169  1  0.56467611  0.81523047  0.05923861  1
  Zn  Zn170  1  0.56103561  0.81468705  0.55439823  1
  O  O171  1  0.12719526  0.11714302  0.11941983  1
  O  O172  1  0.11903746  0.12835222  0.61313247  1
  O  O173  1  0.12894056  0.61595888  0.11208576  1
  O  O174  1  0.11563163  0.61939422  0.61587865  1
  O  O175  1  0.62372838  0.11192204  0.12264227  1
  O  O176  1  0.60241549  0.13120353  0.62276849  1
  O  O177  1  0.61496392  0.63055652  0.11534653  1
  O  O178  1  0.62352216  0.62042648  0.61680454  1
  O  O179  1  0.38143390  0.38624370  0.38090339  1
  O  O180  1  0.38536861  0.37766762  0.88318392  1
  O  O181  1  0.38889300  0.87736574  0.38143221  1
  O  O182  1  0.37749359  0.88355438  0.88249527  1
  O  O183  1  0.88540911  0.37843998  0.38073158  1
  O  O184  1  0.88355619  0.38141846  0.88228187  1
  O  O185  1  0.88184066  0.87291995  0.38232142  1
  O  O186  1  0.88359108  0.88369566  0.88142913  1
  O  O187  1  0.24888103  0.01671951  0.38056608  1
  O  O188  1  0.26149217  -0.00279830  0.88127319  1
  O  O189  1  0.25794814  0.50308686  0.36852847  1
  O  O190  1  0.25270404  0.51438601  0.87212520  1
  O  O191  1  0.76300375  -0.01490967  0.36596368  1
  O  O192  1  0.76535994  0.00153904  0.87739712  1
  O  O193  1  0.75151088  0.51029322  0.36548510  1
  O  O194  1  0.75546578  0.50553471  0.86858384  1
  O  O195  1  0.24297308  0.50329178  0.13060710  1
  O  O196  1  0.23606056  0.50688304  0.62493957  1
  O  O197  1  0.24126871  0.99133124  0.13058855  1
  O  O198  1  0.23049155  0.99443515  0.58758745  1
  O  O199  1  0.75516238  0.48833542  0.13221785  1
  O  O200  1  0.74691568  0.49964902  0.63326254  1
  O  O201  1  0.74421087  0.99168612  0.12984905  1
  O  O202  1  0.74153558  0.98966987  0.62183067  1
  O  O203  1  -0.00123663  0.36608281  0.25667969  1
  O  O204  1  0.00963507  0.36853130  0.75855972  1
  O  O205  1  0.00748305  0.86474745  0.25577109  1
  O  O206  1  0.00680925  0.86724346  0.76342782  1
  O  O207  1  0.50973526  0.37154330  0.25562819  1
  O  O208  1  0.49703319  0.36676716  0.75852328  1
  O  O209  1  0.49651126  0.86658975  0.26288007  1
  O  O210  1  0.48824600  0.86343238  0.74955523  1
  O  O211  1  0.49125518  0.14228371  0.25025750  1
  O  O212  1  0.48620738  0.13799210  0.74159159  1
  O  O213  1  0.50112044  0.62920063  0.24086403  1
  O  O214  1  0.49265939  0.63161480  0.74491255  1
  O  O215  1  0.99236228  0.13394782  0.25392588  1
  O  O216  1  1.00556510  0.14032989  0.75400938  1
  O  O217  1  0.99128710  0.63129306  0.25331353  1
  O  O218  1  1.00875585  0.63293421  0.74238067  1
  O  O219  1  0.37861483  0.25788657  0.01479480  1
  O  O220  1  0.36448670  0.25957729  0.50726950  1
  O  O221  1  0.37334405  0.75725028  0.00453468  1
  O  O222  1  0.36907690  0.74764840  0.50612581  1
  O  O223  1  0.87118810  0.25382980  0.00586657  1
  O  O224  1  0.88002948  0.26444073  0.49681516  1
  O  O225  1  0.88088333  0.76566855  0.00052093  1
  O  O226  1  0.88426379  0.75454975  0.51121620  1
  O  O227  1  0.12785949  0.24630522  0.49401509  1
  O  O228  1  0.12517172  0.24320634  0.98999869  1
  O  O229  1  0.13676143  0.74247204  0.50626187  1
  O  O230  1  0.12932007  0.74342585  0.99737602  1
  O  O231  1  0.63702744  0.25625873  0.49885129  1
  O  O232  1  0.63490310  0.24963980  1.00206661  1
  O  O233  1  0.61877037  0.73432830  0.48882745  1
  O  O234  1  0.61691834  0.73712583  0.98904260  1
  O  O235  1  0.49262594  0.25009731  0.13421734  1
  O  O236  1  0.48865145  0.24765590  0.63125390  1
  O  O237  1  0.49902015  0.74676013  0.13135514  1
  O  O238  1  0.48916635  0.74209961  0.62906275  1
  O  O239  1  0.98919555  0.25672080  0.13376971  1
  O  O240  1  1.00619022  0.25313079  0.64515262  1
  O  O241  1  0.99762858  0.75306074  0.13654017  1
  O  O242  1  0.99700504  0.74100835  0.63413246  1
  O  O243  1  0.00282352  0.25560866  0.36530034  1
  O  O244  1  0.00866225  0.26075645  0.87030580  1
  O  O245  1  -0.00267492  0.75902900  0.36313384  1
  O  O246  1  0.00585285  0.75503454  0.86978523  1
  O  O247  1  0.49095138  0.26712161  0.36572296  1
  O  O248  1  0.49612938  0.25783261  0.86792999  1
  O  O249  1  0.50737820  0.74926128  0.36541418  1
  O  O250  1  0.50871837  0.75321851  0.86366506  1
  O  O251  1  0.24305619  0.14188112  0.49226229  1
  O  O252  1  0.23340920  0.12300345  1.00242293  1
  O  O253  1  0.24084953  0.63221691  0.49629627  1
  O  O254  1  0.24565035  0.62987263  0.99392163  1
  O  O255  1  0.74995642  0.12749665  0.48673955  1
  O  O256  1  0.75224326  0.13669912  1.00067942  1
  O  O257  1  0.74349988  0.61879170  0.48884494  1
  O  O258  1  0.73864591  0.61916346  0.99094354  1
  O  O259  1  0.26603399  0.38508211  -0.00522653  1
  O  O260  1  0.25158794  0.36696157  0.49342570  1
  O  O261  1  0.25505951  0.86840516  0.00764628  1
  O  O262  1  0.27228681  0.86325646  0.48602639  1
  O  O263  1  0.75363148  0.36860867  0.00598702  1
  O  O264  1  0.76293512  0.38541114  0.51152059  1
  O  O265  1  0.76039827  0.87944714  0.00970465  1
  O  O266  1  0.76376935  0.86443486  0.50112383  1
  O  O267  1  0.13123800  0.49907186  0.23827648  1
  O  O268  1  0.12560048  0.49270691  0.74235889  1
  O  O269  1  0.12831735  0.99142723  0.24734999  1
  O  O270  1  0.12657307  0.98417138  0.75657926  1
  O  O271  1  0.63770224  0.48978983  0.25078598  1
  O  O272  1  0.63281244  0.49890884  0.74258060  1
  O  O273  1  0.63926263  1.00003880  0.24169132  1
  O  O274  1  0.61406643  1.00122235  0.73858458  1
  O  O275  1  0.37482355  0.01600437  0.24434700  1
  O  O276  1  0.37321542  0.01430985  0.75622586  1
  O  O277  1  0.36991988  0.49906705  0.25594087  1
  O  O278  1  0.37362873  0.51394244  0.75015747  1
  O  O279  1  0.86953034  0.00477052  0.25326225  1
  O  O280  1  0.88594355  0.00436885  0.76553339  1
  O  O281  1  0.86616709  0.50521063  0.25036814  1
  O  O282  1  0.86982486  0.49618711  0.75890482  1
  O  O283  1  0.11185474  0.37026917  0.37199292  1
  O  O284  1  0.11898230  0.36847694  0.87136520  1
  O  O285  1  0.11830263  0.87768922  0.36482661  1
  O  O286  1  0.11966186  0.86865706  0.87259494  1
  O  O287  1  0.61720754  0.38145428  0.36614752  1
  O  O288  1  0.61198728  0.37312439  0.87397373  1
  O  O289  1  0.61478510  0.86071376  0.38138390  1
  O  O290  1  0.62489552  0.86180788  0.88253584  1
  O  O291  1  0.37412321  0.13818737  0.13348098  1
  O  O292  1  0.37746985  0.13792666  0.63268557  1
  O  O293  1  0.38915386  0.63307861  0.12317464  1
  O  O294  1  0.37951825  0.63106903  0.63141920  1
  O  O295  1  0.87360231  0.13426115  0.13010661  1
  O  O296  1  0.88025589  0.12157905  0.62368643  1
  O  O297  1  0.86891566  0.62607884  0.13523795  1
  O  O298  1  0.89062051  0.62884557  0.62039182  1
  O  O299  1  0.26258367  0.25385160  0.13120413  1
  O  O300  1  0.25531023  0.25189457  0.61478373  1
  O  O301  1  0.25771386  0.75493828  0.12121066  1
  O  O302  1  0.26275471  0.74475146  0.61547589  1
  O  O303  1  0.75756680  0.25503945  0.11962199  1
  O  O304  1  0.74617469  0.26398612  0.63705445  1
  O  O305  1  0.75012508  0.76318071  0.12917160  1
  O  O306  1  0.76872554  0.74424881  0.63305965  1
  O  O307  1  0.24204646  0.24808120  0.38009745  1
  O  O308  1  0.23734033  0.25485243  0.87515364  1
  O  O309  1  0.25784574  0.74223590  0.38449882  1
  O  O310  1  0.24728361  0.74085294  0.88237081  1
  O  O311  1  0.74529762  0.24940344  0.37040595  1
  O  O312  1  0.74889955  0.25137504  0.88516064  1
  O  O313  1  0.74048192  0.73714652  0.36436221  1
  O  O314  1  0.74405104  0.73831559  0.86761792  1
  O  O315  1  0.01971020  0.12519096  -0.00332553  1
  O  O316  1  0.00768351  0.12798765  0.49739986  1
  O  O317  1  0.00991690  0.61549162  -0.00647397  1
  O  O318  1  0.00569646  0.61858382  0.50467507  1
  O  O319  1  0.49519862  0.11444703  0.00440993  1
  O  O320  1  0.48969546  0.13047130  0.51052613  1
  O  O321  1  0.50600727  0.61814361  0.00464964  1
  O  O322  1  0.50784317  0.61742036  0.50546163  1
  O  O323  1  0.49547927  0.38027769  0.49381337  1
  O  O324  1  0.49657167  0.38213910  0.99512741  1
  O  O325  1  0.48643241  0.86645108  0.48340517  1
  O  O326  1  0.49240480  0.88755918  0.99904716  1
  O  O327  1  0.99591480  0.38192901  0.49366614  1
  O  O328  1  0.99594138  0.38078290  0.99271591  1
  O  O329  1  0.99726465  0.87247039  0.49018666  1
  O  O330  1  0.99813159  0.87646537  0.98858140  1
  O  O331  1  0.49473085  0.49156270  0.37801295  1
  O  O332  1  0.49847865  0.49361395  0.88119917  1
  O  O333  1  0.50582603  0.98726649  0.36792295  1
  O  O334  1  0.48857185  1.00140294  0.88314177  1
  O  O335  1  1.00006285  0.49151670  0.38144626  1
  O  O336  1  0.99910892  0.49060594  0.88279598  1
  O  O337  1  0.98616501  0.98351774  0.37000887  1
  O  O338  1  0.99354953  0.99335744  0.87930072  1
  O  O339  1  0.01417851  -0.00810354  0.12647361  1
  O  O340  1  0.01285626  0.00119838  0.62283101  1
  O  O341  1  0.00490705  0.49533228  0.11267838  1
  O  O342  1  0.00762462  0.50537264  0.61918387  1
  O  O343  1  0.50828572  0.00120186  0.11918214  1
  O  O344  1  0.49047330  0.01959711  0.62560678  1
  O  O345  1  0.49916443  0.50946133  0.11737003  1
  O  O346  1  0.50836633  0.50515059  0.62070786  1
  O  O347  1  0.24575553  0.38883777  0.25586534  1
  O  O348  1  0.23774273  0.37936343  0.75619998  1
  O  O349  1  0.24533926  0.87418179  0.24889598  1
  O  O350  1  0.23593357  0.86526701  0.75478917  1
  O  O351  1  0.74632439  0.37997909  0.24411477  1
  O  O352  1  0.74992337  0.38698451  0.74445934  1
  O  O353  1  0.75811731  0.88353682  0.23842927  1
  O  O354  1  0.76407353  0.88598428  0.74496768  1
  O  O355  1  0.25781582  0.12431507  0.25953928  1
  O  O356  1  0.26111575  0.13048224  0.74266201  1
  O  O357  1  0.25422130  0.61269471  0.25100954  1
  O  O358  1  0.25644721  0.62803162  0.75714760  1
  O  O359  1  0.76207320  0.11355816  0.24481063  1
  O  O360  1  0.74961360  0.11715845  0.75342378  1
  O  O361  1  0.75413723  0.61703749  0.25273818  1
  O  O362  1  0.74747786  0.61209640  0.75979448  1
  O  O363  1  0.36482181  0.13769718  0.36373096  1
  O  O364  1  0.37372612  0.12178081  0.86046718  1
  O  O365  1  0.37910270  0.61018364  0.37379652  1
  O  O366  1  0.36907049  0.62752048  0.86705141  1
  O  O367  1  0.87889897  0.11039891  0.36348755  1
  O  O368  1  0.87649429  0.11203955  0.87759703  1
  O  O369  1  0.86697808  0.62395726  0.36443021  1
  O  O370  1  0.86417940  0.61838580  0.88294442  1
  O  O371  1  0.12266193  0.38708035  0.12134719  1
  O  O372  1  0.11992682  0.38494677  0.63537076  1
  O  O373  1  0.13267760  0.88059613  0.13466735  1
  O  O374  1  0.12187654  0.86962091  0.64430995  1
  O  O375  1  0.63776587  0.37288292  0.13221642  1
  O  O376  1  0.63333758  0.38553182  0.62531434  1
  O  O377  1  0.63343260  0.88649176  0.11855881  1
  O  O378  1  0.62319512  0.86177761  0.62898706  1
  O  O379  1  0.11653974  0.25101718  0.25174403  1
  O  O380  1  0.11991668  0.25610952  0.76236208  1
  O  O381  1  0.11897612  0.75647023  0.24591287  1
  O  O382  1  0.11754263  0.75556328  0.75716716  1
  O  O383  1  0.61739963  0.26212487  0.24359919  1
  O  O384  1  0.61132092  0.25432523  0.75126245  1
  O  O385  1  0.61341575  0.74525832  0.25738319  1
  O  O386  1  0.61438269  0.74224551  0.75935627  1
  O  O387  1  0.38077499  0.25076579  0.23966766  1
  O  O388  1  0.37640613  0.24570959  0.74410947  1
  O  O389  1  0.38743351  0.74631382  0.24456469  1
  O  O390  1  0.38010232  0.74248488  0.74276857  1
  O  O391  1  0.87959208  0.24048982  0.24308545  1
  O  O392  1  0.89182704  0.24878657  0.76032432  1
  O  O393  1  0.88394175  0.74031442  0.24530866  1
  O  O394  1  0.89081337  0.75122920  0.74545912  1
  O  O395  1  0.37952144  0.49641268  0.49490979  1
  O  O396  1  0.38811250  0.49427185  0.99909888  1
  O  O397  1  0.37547937  0.98948351  0.50257662  1
  O  O398  1  0.37882765  0.99789230  0.99634075  1
  O  O399  1  0.88941853  0.49651887  0.49771717  1
  O  O400  1  0.88266390  0.49492684  0.99509900  1
  O  O401  1  0.87683982  0.98685757  0.49066598  1
  O  O402  1  0.88044599  0.99090784  0.99295567  1
  O  O403  1  0.12293093  0.00909504  0.01112439  1
  O  O404  1  0.11199048  0.01971579  0.47906254  1
  O  O405  1  0.11924539  0.50646317  0.00387787  1
  O  O406  1  0.11540129  0.50395719  0.50617899  1
  O  O407  1  0.61548152  0.00149794  0.00552950  1
  O  O408  1  0.61272145  -0.01300268  0.50580364  1
  O  O409  1  0.61322520  0.51030360  -0.00555038  1
  O  O410  1  0.62137294  0.50850729  0.50444151  1
  O  O411  1  0.37903668  0.36449410  0.11837971  1
  O  O412  1  0.37709385  0.36666686  0.62098401  1
  O  O413  1  0.37021969  0.87115813  0.12074909  1
  O  O414  1  0.38237064  0.86748402  0.60800820  1
  O  O415  1  0.86503514  0.36474159  0.11974617  1
  O  O416  1  0.86778396  0.37897423  0.61680545  1
  O  O417  1  0.86803275  0.87459871  0.11611629  1
  O  O418  1  0.88393902  0.86304928  0.61498624  1
  O  O419  1  0.13176483  0.13477850  0.37626205  1
  O  O420  1  0.12770895  0.13774379  0.88190149  1
  O  O421  1  0.12302309  0.61859926  0.38918775  1
  O  O422  1  0.13300084  0.62957397  0.88395018  1
  O  O423  1  0.62173777  0.13910709  0.38238819  1
  O  O424  1  0.62410702  0.13017326  0.88202855  1
  O  O425  1  0.63181687  0.62940847  0.38000587  1
  O  O426  1  0.63252299  0.63229078  0.88109289  1
