# generated using pymatgen
data_V85Zn86O256
_symmetry_space_group_name_H-M   'P 1'
_cell_length_a   16.97278266
_cell_length_b   16.96998525
_cell_length_c   16.95937583
_cell_angle_alpha   90.07483531
_cell_angle_beta   90.04575204
_cell_angle_gamma   89.93807620
_symmetry_Int_Tables_number   1
_chemical_formula_structural   V85Zn86O256
_chemical_formula_sum   'V85 Zn86 O256'
_cell_volume   4884.76435195
_cell_formula_units_Z   1
loop_
 _symmetry_equiv_pos_site_id
 _symmetry_equiv_pos_as_xyz
  1  'x, y, z'
loop_
 _atom_site_type_symbol
 _atom_site_label
 _atom_site_symmetry_multiplicity
 _atom_site_fract_x
 _atom_site_fract_y
 _atom_site_fract_z
 _atom_site_occupancy
  V  V0  1  0.87033782  0.25404457  0.12746970  1
  V  V1  1  0.86972770  0.62661507  0.25097515  1
  V  V2  1  0.87137388  0.12129089  0.26019661  1
  V  V3  1  0.88628177  0.23856707  0.62729137  1
  V  V4  1  0.62479437  0.62617570  0.00014844  1
  V  V5  1  -0.00542140  0.88716821  0.37383888  1
  V  V6  1  -0.00093180  0.49823330  -0.00047302  1
  V  V7  1  0.62913791  0.36865696  0.23627133  1
  V  V8  1  0.87767168  0.75577620  0.63026441  1
  V  V9  1  0.87271390  0.88346068  0.49659670  1
  V  V10  1  0.62642398  0.49521017  0.63002509  1
  V  V11  1  0.50159837  0.87687894  0.87487602  1
  V  V12  1  0.25162011  0.24879627  0.50706717  1
  V  V13  1  0.25021823  0.87761732  0.12225945  1
  V  V14  1  0.48349925  0.37967513  0.87667301  1
  V  V15  1  0.36649031  0.61608440  0.74863339  1
  V  V16  1  0.27320873  0.73355915  0.48625290  1
  V  V17  1  0.86443460  0.87636622  -0.00141666  1
  V  V18  1  -0.00108400  0.25177502  0.24937118  1
  V  V19  1  0.24865607  0.12789757  0.87030594  1
  V  V20  1  0.74910396  0.24955634  0.50008043  1
  V  V21  1  0.63134539  0.12487181  -0.00157024  1
  V  V22  1  0.25101999  -0.00450867  0.74677773  1
  V  V23  1  -0.00126139  0.62764084  0.63303283  1
  V  V24  1  0.50853814  0.25484463  0.74951090  1
  V  V25  1  -0.00061479  0.37902373  0.37309965  1
  V  V26  1  0.49242063  0.12083054  0.12374654  1
  V  V27  1  0.49811607  0.74163156  0.26219026  1
  V  V28  1  0.37942582  0.75037366  0.63302520  1
  V  V29  1  0.11816469  -0.00049396  0.62299623  1
  V  V30  1  0.75215407  0.24514928  -0.00434945  1
  V  V31  1  0.74899931  0.37220014  0.63215413  1
  V  V32  1  0.25814140  0.00287802  0.24603440  1
  V  V33  1  0.62844245  0.24672713  0.37133435  1
  V  V34  1  0.75147852  0.63027653  0.87973965  1
  V  V35  1  0.12341772  0.87825312  0.24876450  1
  V  V36  1  0.37557186  0.00101878  0.87733521  1
  V  V37  1  0.87465390  0.49972983  0.87450352  1
  V  V38  1  0.49985329  0.37401443  0.37134737  1
  V  V39  1  0.13406165  0.37423514  0.73939049  1
  V  V40  1  0.85708241  0.75352661  0.11975009  1
  V  V41  1  -0.00823292  0.12508595  0.12403119  1
  V  V42  1  0.13630982  0.49933620  0.13426551  1
  V  V43  1  0.74600057  0.75244330  0.49655491  1
  V  V44  1  0.11240181  0.62913730  0.49649162  1
  V  V45  1  0.62541329  0.49683769  0.11988219  1
  V  V46  1  0.87663990  0.63121986  0.75321708  1
  V  V47  1  0.87260486  0.37652138  0.50078677  1
  V  V48  1  0.75003479  0.01144479  0.76408589  1
  V  V49  1  -0.00171599  0.37152698  0.86195434  1
  V  V50  1  0.15193165  0.14578712  0.02764323  1
  V  V51  1  0.30980947  0.56834248  0.93391221  1
  V  V52  1  0.50099402  0.49542941  0.49797436  1
  V  V53  1  0.87481498  0.37379706  0.00270019  1
  V  V54  1  0.38531593  -0.00611190  0.37646718  1
  V  V55  1  0.63134378  0.75364234  0.88024162  1
  V  V56  1  0.25628512  0.12062149  0.37593553  1
  V  V57  1  0.37618882  0.87586530  -0.00100107  1
  V  V58  1  0.25250205  0.87180514  0.61744081  1
  V  V59  1  0.60961441  0.87341761  0.25177607  1
  V  V60  1  0.12531869  0.25087672  0.37675105  1
  V  V61  1  0.75682229  -0.01466780  0.24803673  1
  V  V62  1  0.12027622  0.12228282  0.50316757  1
  V  V63  1  0.11885327  0.24230769  0.86066393  1
  V  V64  1  -0.00391794  0.75335516  0.24790338  1
  V  V65  1  0.74829942  0.88596593  0.62661778  1
  V  V66  1  0.63254213  0.26060046  0.87370095  1
  V  V67  1  0.62650760  0.88016047  0.74757209  1
  V  V68  1  0.37766782  0.25007294  0.62711285  1
  V  V69  1  0.74743404  0.49602143  0.24819406  1
  V  V70  1  0.37127374  0.37332801  0.49833866  1
  V  V71  1  0.74906897  0.49933433  0.75136995  1
  V  V72  1  0.62582988  0.62716707  0.49627219  1
  V  V73  1  0.12165385  -0.00164217  0.12511413  1
  V  V74  1  0.12285769  0.75491235  0.37695097  1
  V  V75  1  0.00343379  0.86804696  0.87411808  1
  V  V76  1  0.49124646  0.24147095  0.24346766  1
  V  V77  1  -0.00357695  0.00256173  -0.00613907  1
  V  V78  1  -0.00185009  0.62580222  0.12379109  1
  V  V79  1  0.88728164  0.12308394  0.76033538  1
  V  V80  1  0.12405045  0.62322690  -0.00875918  1
  V  V81  1  0.24880561  0.75197558  -0.00846935  1
  V  V82  1  0.62358071  0.11876891  0.50499348  1
  V  V83  1  0.37842438  0.74378224  0.12662572  1
  V  V84  1  0.50114053  0.62250504  0.63103125  1
  Zn  Zn85  1  0.31600805  0.45850920  0.31930704  1
  Zn  Zn86  1  0.50378436  0.74743955  0.75359089  1
  Zn  Zn87  1  0.38840340  0.87607523  0.49745081  1
  Zn  Zn88  1  0.28518880  0.38381273  0.07847997  1
  Zn  Zn89  1  -0.00858356  0.00742900  0.50059805  1
  Zn  Zn90  1  0.11946281  0.86805948  0.74601184  1
  Zn  Zn91  1  0.50586999  0.12010221  0.63110272  1
  Zn  Zn92  1  0.63172232  -0.00688048  0.12181948  1
  Zn  Zn93  1  0.74241329  0.62822071  0.37250170  1
  Zn  Zn94  1  0.12568121  0.73998667  0.86046237  1
  Zn  Zn95  1  -0.00707879  0.50391119  0.50006423  1
  Zn  Zn96  1  0.48757028  0.49810419  -0.00361671  1
  Zn  Zn97  1  0.51385117  -0.01092267  0.50980420  1
  Zn  Zn98  1  0.14357905  0.37931508  0.25251524  1
  Zn  Zn99  1  0.25240299  0.61740285  0.35220750  1
  Zn  Zn100  1  0.49871973  0.62273523  0.12624113  1
  Zn  Zn101  1  0.26194296  0.49154622  0.71704677  1
  Zn  Zn102  1  0.50528830  -0.00051091  0.00042660  1
  Zn  Zn103  1  0.87100352  0.50339599  0.37600135  1
  Zn  Zn104  1  0.75286644  0.11667880  0.37626517  1
  Zn  Zn105  1  0.37952603  0.12374310  0.74668059  1
  Zn  Zn106  1  0.12851037  0.49841568  0.61782219  1
  Zn  Zn107  1  0.18283993  0.18501466  0.19967014  1
  Zn  Zn108  1  0.18707516  0.18473037  0.68600594  1
  Zn  Zn109  1  0.18266683  0.69420522  0.18135879  1
  Zn  Zn110  1  0.18988148  0.68844426  0.68208999  1
  Zn  Zn111  1  0.68949836  0.18215533  0.18212301  1
  Zn  Zn112  1  0.69048526  0.18928697  0.68863509  1
  Zn  Zn113  1  0.68009849  0.68956567  0.18912780  1
  Zn  Zn114  1  0.68995507  0.69087115  0.68767917  1
  Zn  Zn115  1  0.31396092  0.29715457  0.31092724  1
  Zn  Zn116  1  0.31056226  0.30902662  0.81300412  1
  Zn  Zn117  1  0.31420392  0.81407525  0.30851440  1
  Zn  Zn118  1  0.31012698  0.81391572  0.81026152  1
  Zn  Zn119  1  0.81116288  0.31264026  0.31294560  1
  Zn  Zn120  1  0.81564404  0.30659311  0.81052662  1
  Zn  Zn121  1  0.81083050  0.81200170  0.31503962  1
  Zn  Zn122  1  0.81425497  0.81732320  0.81579969  1
  Zn  Zn123  1  0.18122825  0.43862129  0.44408329  1
  Zn  Zn124  1  0.18240811  0.43446125  0.93061272  1
  Zn  Zn125  1  0.19249545  0.93416436  0.43885872  1
  Zn  Zn126  1  0.18345788  0.94516562  0.93946777  1
  Zn  Zn127  1  0.68669710  0.43698101  0.43470004  1
  Zn  Zn128  1  0.69039877  0.43446952  0.94066124  1
  Zn  Zn129  1  0.68830155  0.93556553  0.42745577  1
  Zn  Zn130  1  0.68910660  0.94243873  0.93513362  1
  Zn  Zn131  1  0.32138538  0.17872243  0.05576239  1
  Zn  Zn132  1  0.31607833  0.06255487  0.56160203  1
  Zn  Zn133  1  0.31579665  0.56492420  0.17978094  1
  Zn  Zn134  1  0.29488883  0.54925521  0.51536374  1
  Zn  Zn135  1  0.81186853  0.06024816  0.06450464  1
  Zn  Zn136  1  0.80636075  0.06338416  0.56441314  1
  Zn  Zn137  1  0.80854545  0.56191778  0.06429262  1
  Zn  Zn138  1  0.81199699  0.56458603  0.56414746  1
  Zn  Zn139  1  0.44083725  0.43729601  0.18601708  1
  Zn  Zn140  1  0.43972109  0.43210979  0.68643513  1
  Zn  Zn141  1  0.43775769  0.93867877  0.18580717  1
  Zn  Zn142  1  0.44078481  0.94020523  0.68683112  1
  Zn  Zn143  1  0.93811322  0.43946656  0.18767026  1
  Zn  Zn144  1  0.93646585  0.44143093  0.68459324  1
  Zn  Zn145  1  0.93220177  0.93736843  0.18247819  1
  Zn  Zn146  1  0.93457808  0.94255409  0.69100646  1
  Zn  Zn147  1  0.06471287  0.06501164  0.31278423  1
  Zn  Zn148  1  0.06239838  0.05537434  0.80918249  1
  Zn  Zn149  1  0.05915037  0.56516081  0.31308677  1
  Zn  Zn150  1  0.06429454  0.55565663  0.80646042  1
  Zn  Zn151  1  0.57018610  0.06078411  0.30960879  1
  Zn  Zn152  1  0.56563638  0.06730658  0.81402823  1
  Zn  Zn153  1  0.55828465  0.55949394  0.31146544  1
  Zn  Zn154  1  0.56190852  0.56042628  0.81281474  1
  Zn  Zn155  1  0.44025462  0.18345554  0.43433565  1
  Zn  Zn156  1  0.44671073  0.18291479  0.92822600  1
  Zn  Zn157  1  0.44072302  0.68552167  0.44460167  1
  Zn  Zn158  1  0.44440006  0.69176212  0.93854665  1
  Zn  Zn159  1  0.93848203  0.19120703  0.43948733  1
  Zn  Zn160  1  0.94333632  0.19107789  0.93711738  1
  Zn  Zn161  1  0.93277681  0.69755095  0.43622502  1
  Zn  Zn162  1  0.93639565  0.69235963  0.93948548  1
  Zn  Zn163  1  0.09826696  0.33015610  0.04216735  1
  Zn  Zn164  1  0.05934463  0.31094136  0.55959755  1
  Zn  Zn165  1  0.05959140  0.81095136  0.05788052  1
  Zn  Zn166  1  0.05830007  0.81633379  0.56291811  1
  Zn  Zn167  1  0.45359823  0.30846847  0.05611985  1
  Zn  Zn168  1  0.56429857  0.30970649  0.56249972  1
  Zn  Zn169  1  0.56516633  0.81381022  0.06645117  1
  Zn  Zn170  1  0.56154109  0.81354649  0.56370225  1
  O  O171  1  0.10567830  0.11735496  0.13068289  1
  O  O172  1  0.13161046  0.11268306  0.61524793  1
  O  O173  1  0.11666476  0.61643137  0.11640214  1
  O  O174  1  0.10593243  0.63205944  0.61945159  1
  O  O175  1  0.61952741  0.12422828  0.11135657  1
  O  O176  1  0.62829830  0.13223062  0.60742750  1
  O  O177  1  0.62491012  0.61856491  0.11443855  1
  O  O178  1  0.62150622  0.61665789  0.61926190  1
  O  O179  1  0.38824415  0.36838325  0.38117095  1
  O  O180  1  0.38447896  0.37431788  0.87148313  1
  O  O181  1  0.37103959  0.89087003  0.37485390  1
  O  O182  1  0.38180521  0.87932552  0.87763814  1
  O  O183  1  0.87869245  0.37335635  0.38773047  1
  O  O184  1  0.88255591  0.37757107  0.87852276  1
  O  O185  1  0.88275114  0.87067332  0.38443399  1
  O  O186  1  0.88736771  0.86994235  0.88969925  1
  O  O187  1  0.25550310  0.00423402  0.36787785  1
  O  O188  1  0.25441159  0.00235743  0.86429040  1
  O  O189  1  0.25771631  0.51123605  0.40192573  1
  O  O190  1  0.25248030  0.50680545  0.87814388  1
  O  O191  1  0.74974601  0.00157890  0.35497419  1
  O  O192  1  0.75636849  0.00134279  0.86218228  1
  O  O193  1  0.75004638  0.50396398  0.36295145  1
  O  O194  1  0.75583434  0.50584033  0.87007169  1
  O  O195  1  0.23757721  0.49593370  0.12028065  1
  O  O196  1  0.24298693  0.50191154  0.60520094  1
  O  O197  1  0.24030215  0.99444172  0.13578253  1
  O  O198  1  0.24748496  0.99165277  0.62815902  1
  O  O199  1  0.73906473  0.50457100  0.13757015  1
  O  O200  1  0.74543307  0.49305341  0.62974713  1
  O  O201  1  0.74741952  1.00739978  0.14318932  1
  O  O202  1  0.74946015  0.98859003  0.63251980  1
  O  O203  1  -0.00683054  0.37042481  0.26373887  1
  O  O204  1  0.00460124  0.38287541  0.75828497  1
  O  O205  1  0.00169939  0.87332684  0.25466062  1
  O  O206  1  -0.00269887  0.88633327  0.77085436  1
  O  O207  1  0.50917747  0.35916742  0.25479782  1
  O  O208  1  0.49974977  0.36330845  0.75896068  1
  O  O209  1  0.50506388  0.86843382  0.25186609  1
  O  O210  1  0.51134594  0.87489291  0.75736289  1
  O  O211  1  0.51303187  0.13391680  0.23756113  1
  O  O212  1  0.49927238  0.13934973  0.75174642  1
  O  O213  1  0.50655671  0.63808283  0.24584478  1
  O  O214  1  0.49298916  0.62576496  0.74699093  1
  O  O215  1  0.99214720  0.12914985  0.24542025  1
  O  O216  1  0.98587696  0.11385844  0.74635094  1
  O  O217  1  0.99033384  0.63089006  0.24221539  1
  O  O218  1  0.99020371  0.62168392  0.74403820  1
  O  O219  1  0.38206008  0.24611483  -0.00625143  1
  O  O220  1  0.37086692  0.25310031  0.50271985  1
  O  O221  1  0.36885462  0.75723977  0.00333696  1
  O  O222  1  0.38048662  0.75822429  0.51815896  1
  O  O223  1  0.87243044  0.25500684  0.00640931  1
  O  O224  1  0.86916189  0.25498258  0.50959227  1
  O  O225  1  0.87776811  0.76277405  0.00871141  1
  O  O226  1  0.86654306  0.76322575  0.50852465  1
  O  O227  1  0.13312648  0.24433287  0.49738388  1
  O  O228  1  0.10493949  0.22747584  0.98441721  1
  O  O229  1  0.11661770  0.75100513  0.48480335  1
  O  O230  1  0.13351609  0.73860265  1.00134617  1
  O  O231  1  0.63023582  0.24310823  0.49056642  1
  O  O232  1  0.64425798  0.24613024  0.99392246  1
  O  O233  1  0.63474106  0.73859819  0.51172039  1
  O  O234  1  0.62235980  0.74325769  0.98841672  1
  O  O235  1  0.50541256  0.23759822  0.13663436  1
  O  O236  1  0.49675669  0.24704937  0.63270591  1
  O  O237  1  0.49133768  0.74836823  0.13015336  1
  O  O238  1  0.49553938  0.74337115  0.63286920  1
  O  O239  1  0.98879588  0.23952466  0.13216842  1
  O  O240  1  0.98403010  0.24996751  0.62124597  1
  O  O241  1  0.99687158  0.73872434  0.12882755  1
  O  O242  1  0.98453432  0.74839537  0.62217590  1
  O  O243  1  0.00528302  0.25794442  0.37062346  1
  O  O244  1  0.00797885  0.25828450  0.86929347  1
  O  O245  1  0.00407383  0.76163872  0.36641368  1
  O  O246  1  0.00621707  0.76449841  0.88206372  1
  O  O247  1  0.50871376  0.25098435  0.36387059  1
  O  O248  1  0.50967197  0.26208285  0.86756590  1
  O  O249  1  0.49122544  0.74237007  0.36129030  1
  O  O250  1  0.51057025  0.75989615  0.87270949  1
  O  O251  1  0.24173853  0.12956262  0.49448962  1
  O  O252  1  0.24709315  0.11438537  0.97838868  1
  O  O253  1  0.21780812  0.64498332  0.51898535  1
  O  O254  1  0.24342267  0.63196800  0.99208102  1
  O  O255  1  0.74171821  0.13049749  0.49568672  1
  O  O256  1  0.74657090  0.13261579  1.00243811  1
  O  O257  1  0.74300988  0.63314814  0.50117575  1
  O  O258  1  0.74152338  0.61996097  0.98745312  1
  O  O259  1  0.20631557  0.35945260  0.00812197  1
  O  O260  1  0.26384985  0.36293849  0.49080546  1
  O  O261  1  0.25356468  0.87167228  0.00351107  1
  O  O262  1  0.25811391  0.86097435  0.50432134  1
  O  O263  1  0.76907022  0.36674339  -0.00422134  1
  O  O264  1  0.75648448  0.37081459  0.50667281  1
  O  O265  1  0.76559669  0.87964594  -0.00610069  1
  O  O266  1  0.75149994  0.87179297  0.50712937  1
  O  O267  1  0.12266485  0.50481793  0.23760383  1
  O  O268  1  0.13121521  0.48652125  0.74368138  1
  O  O269  1  0.13065590  0.99494294  0.24477369  1
  O  O270  1  0.13331156  0.99287237  0.73962339  1
  O  O271  1  0.62920022  0.49190534  0.24393203  1
  O  O272  1  0.63262006  0.50467078  0.73720845  1
  O  O273  1  0.63319028  0.98750328  0.24701505  1
  O  O274  1  0.63861797  0.99421775  0.75745314  1
  O  O275  1  0.36439316  -0.00400662  0.25862249  1
  O  O276  1  0.36717991  -0.00120449  0.75977608  1
  O  O277  1  0.38682812  0.51086794  0.25012531  1
  O  O278  1  0.37524588  0.50773701  0.74230396  1
  O  O279  1  0.86601850  0.00694692  0.24627135  1
  O  O280  1  0.86282088  0.01459002  0.74390785  1
  O  O281  1  0.86503016  0.50922516  0.24812833  1
  O  O282  1  0.86819804  0.50871429  0.75571103  1
  O  O283  1  0.11501044  0.37061184  0.37578761  1
  O  O284  1  0.11681786  0.36585711  0.85867302  1
  O  O285  1  0.11727991  0.87179750  0.36964810  1
  O  O286  1  0.11168258  0.87650389  0.87824589  1
  O  O287  1  0.61764827  0.36305577  0.36937700  1
  O  O288  1  0.62679668  0.36281056  0.87685586  1
  O  O289  1  0.63649452  0.86983643  0.34984506  1
  O  O290  1  0.62371795  0.87006529  0.86941393  1
  O  O291  1  0.39310618  0.11846243  0.12425720  1
  O  O292  1  0.37717811  0.13820920  0.62428977  1
  O  O293  1  0.37751755  0.64132584  0.11570041  1
  O  O294  1  0.38589474  0.63472214  0.63423812  1
  O  O295  1  0.88000816  0.12982533  0.13609660  1
  O  O296  1  0.87218009  0.13584665  0.62614011  1
  O  O297  1  0.87915811  0.63119618  0.13140146  1
  O  O298  1  0.88103567  0.63478121  0.63009211  1
  O  O299  1  0.21908481  0.20488537  0.09563822  1
  O  O300  1  0.25763587  0.24589922  0.61296840  1
  O  O301  1  0.25566589  0.75915578  0.11247339  1
  O  O302  1  0.26207781  0.75543934  0.61460465  1
  O  O303  1  0.76505388  0.24620876  0.11709938  1
  O  O304  1  0.75696227  0.25792665  0.61971970  1
  O  O305  1  0.75897755  0.74373319  0.12529620  1
  O  O306  1  0.75979015  0.75915269  0.61832104  1
  O  O307  1  0.24650662  0.23817823  0.38601605  1
  O  O308  1  0.23675822  0.23778401  0.86565333  1
  O  O309  1  0.23890740  0.75752114  0.38053500  1
  O  O310  1  0.24614305  0.75799616  0.88785084  1
  O  O311  1  0.74297895  0.24942368  0.38229907  1
  O  O312  1  0.74647331  0.25175296  0.88258647  1
  O  O313  1  0.75435588  0.74742731  0.39196306  1
  O  O314  1  0.74446659  0.74142788  0.87295044  1
  O  O315  1  -0.01084765  0.11638789  0.01199294  1
  O  O316  1  0.01488838  0.12379817  0.49314892  1
  O  O317  1  0.00444058  0.62159088  0.00655603  1
  O  O318  1  0.00061925  0.63137953  0.50537704  1
  O  O319  1  0.50852170  0.12293591  0.01163832  1
  O  O320  1  0.51741052  0.12536820  0.49818875  1
  O  O321  1  0.51438955  0.61874166  -0.00382460  1
  O  O322  1  0.50671746  0.61407846  0.50905421  1
  O  O323  1  0.49724665  0.37608543  0.49079174  1
  O  O324  1  0.50310571  0.38023976  0.98087258  1
  O  O325  1  0.50274220  0.87781317  0.49740935  1
  O  O326  1  0.49552443  0.87719064  0.99272842  1
  O  O327  1  0.99080216  0.37518413  0.48982258  1
  O  O328  1  0.99611887  0.37942416  0.98718017  1
  O  O329  1  0.98921457  0.87821258  0.49085952  1
  O  O330  1  0.99649332  0.88351192  0.99285518  1
  O  O331  1  0.50936455  0.48490288  0.38395340  1
  O  O332  1  0.50506888  0.48286399  0.87296983  1
  O  O333  1  0.48536601  1.00950838  0.37073952  1
  O  O334  1  0.49278310  0.99464989  0.87400038  1
  O  O335  1  0.99216337  0.49256110  0.37501239  1
  O  O336  1  0.99280337  0.49324813  0.87975085  1
  O  O337  1  1.00365433  0.98998626  0.37659855  1
  O  O338  1  1.00577222  0.99453399  0.89043203  1
  O  O339  1  0.00301094  0.00473251  0.11766800  1
  O  O340  1  0.01490849  -0.01094463  0.62055274  1
  O  O341  1  -0.00051589  0.51357642  0.12010796  1
  O  O342  1  -0.00069972  0.51423226  0.62098491  1
  O  O343  1  0.50636584  0.01064615  0.12549704  1
  O  O344  1  0.49624623  0.00850428  0.62130676  1
  O  O345  1  0.51451091  0.50251207  0.11811449  1
  O  O346  1  0.51080535  0.49998404  0.61973749  1
  O  O347  1  0.25645720  0.37776772  0.26171621  1
  O  O348  1  0.23767747  0.37625890  0.74950418  1
  O  O349  1  0.24275331  0.88168719  0.24319506  1
  O  O350  1  0.24947771  0.88507305  0.74058499  1
  O  O351  1  0.74125273  0.38336881  0.25459491  1
  O  O352  1  0.75922534  0.37975378  0.73757327  1
  O  O353  1  0.75581289  0.88352000  0.24484202  1
  O  O354  1  0.74737406  0.88620543  0.74636719  1
  O  O355  1  0.24522223  0.11364748  0.26238963  1
  O  O356  1  0.25254502  0.11180696  0.75369616  1
  O  O357  1  0.25018527  0.63202377  0.24317455  1
  O  O358  1  0.26375877  0.61960624  0.74176941  1
  O  O359  1  0.75866322  0.12057451  0.25310922  1
  O  O360  1  0.75499194  0.11405753  0.74643451  1
  O  O361  1  0.75345555  0.62086576  0.25224630  1
  O  O362  1  0.75550071  0.62051937  0.76017011  1
  O  O363  1  0.36248036  0.11510520  0.38050107  1
  O  O364  1  0.36797245  0.11605437  0.86890017  1
  O  O365  1  0.33346035  0.64959144  0.43348842  1
  O  O366  1  0.37237190  0.62529048  0.87108027  1
  O  O367  1  0.87609177  0.13073550  0.36361450  1
  O  O368  1  0.88043167  0.13311499  0.85913736  1
  O  O369  1  0.87418672  0.62817255  0.36050187  1
  O  O370  1  0.86876300  0.62267261  0.87419495  1
  O  O371  1  0.10833489  0.39692917  0.13641041  1
  O  O372  1  0.11478058  0.37409795  0.63705614  1
  O  O373  1  0.12753088  0.87924872  0.12778599  1
  O  O374  1  0.13824125  0.88011918  0.61967592  1
  O  O375  1  0.62522031  0.38193488  0.13581022  1
  O  O376  1  0.63704378  0.38250541  0.61893697  1
  O  O377  1  0.62497660  0.87540773  0.14183326  1
  O  O378  1  0.63471221  0.86696612  0.64142131  1
  O  O379  1  0.11719448  0.25666544  0.25882267  1
  O  O380  1  0.12591257  0.25971776  0.75019333  1
  O  O381  1  0.11655739  0.75856583  0.25755830  1
  O  O382  1  0.13202185  0.75573863  0.74943949  1
  O  O383  1  0.62581992  0.25374328  0.25453637  1
  O  O384  1  0.62088535  0.24562169  0.75986603  1
  O  O385  1  0.60735479  0.75840617  0.24601308  1
  O  O386  1  0.62875781  0.75932170  0.76244791  1
  O  O387  1  0.39325116  0.23835100  0.25426617  1
  O  O388  1  0.38237503  0.24993931  0.74086981  1
  O  O389  1  0.38820850  0.75787876  0.24010484  1
  O  O390  1  0.37504190  0.74392868  0.74373451  1
  O  O391  1  0.87756681  0.24438647  0.24403717  1
  O  O392  1  0.87060396  0.23575859  0.73627855  1
  O  O393  1  0.87752552  0.74510194  0.24117641  1
  O  O394  1  0.86762735  0.74446303  0.74212675  1
  O  O395  1  0.39456949  0.48639561  0.50517727  1
  O  O396  1  0.36754075  0.51368785  0.99388669  1
  O  O397  1  0.37409457  0.99813732  0.48490173  1
  O  O398  1  0.37700154  0.99119971  0.98312460  1
  O  O399  1  0.87282521  0.49057502  0.49855279  1
  O  O400  1  0.87856911  0.49263247  0.99620423  1
  O  O401  1  0.87291933  0.98852010  0.50602435  1
  O  O402  1  0.88340973  0.98634628  1.00828523  1
  O  O403  1  0.12041859  0.01956812  0.01068715  1
  O  O404  1  0.12738567  0.00681470  0.50560606  1
  O  O405  1  0.11660244  0.50764345  0.00917707  1
  O  O406  1  0.11111532  0.51460659  0.49843307  1
  O  O407  1  0.62588567  0.00872243  0.00099330  1
  O  O408  1  0.62990317  0.01555726  0.48913042  1
  O  O409  1  0.63076940  0.50674765  0.00740019  1
  O  O410  1  0.61918275  0.50247976  0.50956838  1
  O  O411  1  0.38247022  0.36846720  0.12112475  1
  O  O412  1  0.38368859  0.35991994  0.61135008  1
  O  O413  1  0.37027019  0.87061291  0.11625728  1
  O  O414  1  0.36485991  0.86889450  0.62969055  1
  O  O415  1  0.88541570  0.36558185  0.11509372  1
  O  O416  1  0.87065638  0.36750806  0.61646103  1
  O  O417  1  0.87978305  0.86419722  0.11117614  1
  O  O418  1  0.86810335  0.87167919  0.62185244  1
  O  O419  1  0.13473091  0.13021046  0.38171737  1
  O  O420  1  0.13117103  0.13158989  0.86365775  1
  O  O421  1  0.12333793  0.63635370  0.38083996  1
  O  O422  1  0.11492324  0.62286934  0.88707309  1
  O  O423  1  0.62797125  0.13563024  0.37981971  1
  O  O424  1  0.61548009  0.13880044  0.89195410  1
  O  O425  1  0.62263336  0.61834165  0.39248246  1
  O  O426  1  0.63256717  0.63260058  0.87856044  1
