# generated using pymatgen
data_V85Zn86O256
_symmetry_space_group_name_H-M   'P 1'
_cell_length_a   16.97132955
_cell_length_b   16.95261173
_cell_length_c   16.98288831
_cell_angle_alpha   90.02272831
_cell_angle_beta   89.92582363
_cell_angle_gamma   90.13285266
_symmetry_Int_Tables_number   1
_chemical_formula_structural   V85Zn86O256
_chemical_formula_sum   'V85 Zn86 O256'
_cell_volume   4886.10134321
_cell_formula_units_Z   1
loop_
 _symmetry_equiv_pos_site_id
 _symmetry_equiv_pos_as_xyz
  1  'x, y, z'
loop_
 _atom_site_type_symbol
 _atom_site_label
 _atom_site_symmetry_multiplicity
 _atom_site_fract_x
 _atom_site_fract_y
 _atom_site_fract_z
 _atom_site_occupancy
  V  V0  1  0.38228280  0.00518313  0.88094255  1
  V  V1  1  0.62334522  0.24195657  0.37814317  1
  V  V2  1  -0.00111647  0.48517088  -0.00590399  1
  V  V3  1  0.24451438  0.12146683  0.38130292  1
  V  V4  1  -0.00028075  0.25337867  0.76047358  1
  V  V5  1  0.74828115  -0.00097204  0.75173363  1
  V  V6  1  0.75274532  0.87330811  0.62830783  1
  V  V7  1  0.00938886  0.00160151  0.50293736  1
  V  V8  1  -0.00370692  0.25863952  0.25816756  1
  V  V9  1  0.37484337  0.25242129  0.12817189  1
  V  V10  1  0.00445153  0.86921907  0.87369539  1
  V  V11  1  0.36374866  0.74769320  0.63727169  1
  V  V12  1  0.12493857  0.25531110  0.87412456  1
  V  V13  1  0.37189507  0.37453379  -0.00361028  1
  V  V14  1  0.74913708  0.37808141  0.62562441  1
  V  V15  1  0.62759483  0.37667244  0.75104756  1
  V  V16  1  0.74894376  0.25614708  0.00126831  1
  V  V17  1  0.04242571  0.44079378  0.43216398  1
  V  V18  1  0.00894947  0.12557852  0.62373597  1
  V  V19  1  0.25077940  0.63582691  0.38733563  1
  V  V20  1  0.62387075  0.37435046  0.25056797  1
  V  V21  1  0.62116037  0.00628083  0.61616524  1
  V  V22  1  -0.00495603  0.62230901  0.12560365  1
  V  V23  1  0.50015787  0.63499248  0.63897437  1
  V  V24  1  0.11454668  0.12428834  0.00304969  1
  V  V25  1  0.27414097  0.49775774  0.75971191  1
  V  V26  1  0.50283280  0.12183924  0.12768522  1
  V  V27  1  0.88293857  0.87527686  0.49753793  1
  V  V28  1  0.50017217  0.62441258  0.12455873  1
  V  V29  1  0.12364603  0.50137449  0.11977932  1
  V  V30  1  0.62695050  -0.00137599  0.12042847  1
  V  V31  1  0.87403098  0.38242112  0.49730082  1
  V  V32  1  0.75413234  0.62600537  0.37305881  1
  V  V33  1  0.26679134  0.62180200  0.87935678  1
  V  V34  1  0.37713451  0.37640265  0.50018541  1
  V  V35  1  0.48950891  0.37495408  0.87112433  1
  V  V36  1  0.50074757  0.74817870  0.25123971  1
  V  V37  1  0.35787801  0.86697051  0.50220354  1
  V  V38  1  0.88278043  0.74816293  0.62731775  1
  V  V39  1  0.87768538  0.25161353  0.62079018  1
  V  V40  1  0.11009156  0.75569920  0.38139588  1
  V  V41  1  0.62545332  0.24771730  0.87557220  1
  V  V42  1  0.87995322  0.24863631  0.12170417  1
  V  V43  1  0.62499750  0.50095012  0.12158751  1
  V  V44  1  0.32162589  0.07066535  0.20054219  1
  V  V45  1  0.87258707  0.12508945  0.74907188  1
  V  V46  1  0.63017916  0.87571816  0.25037434  1
  V  V47  1  0.49581085  0.24697262  0.25085934  1
  V  V48  1  0.25096120  0.23837134  0.00156749  1
  V  V49  1  0.11977129  0.24771635  0.38137199  1
  V  V50  1  0.74997573  0.50742593  0.75525565  1
  V  V51  1  0.49184291  0.50143257  -0.00553731  1
  V  V52  1  0.11975899  0.37833942  0.25288258  1
  V  V53  1  0.24636221  0.38200241  0.62740672  1
  V  V54  1  0.87702352  0.49935772  0.36950115  1
  V  V55  1  0.49872106  0.87757601  0.89876087  1
  V  V56  1  0.37521460  0.24782102  0.62176713  1
  V  V57  1  0.62834692  0.74987997  0.37496964  1
  V  V58  1  0.00257914  0.60434210  0.62257995  1
  V  V59  1  0.50397118  0.24406046  0.74527814  1
  V  V60  1  0.37232739  0.76116385  0.11746418  1
  V  V61  1  0.12097282  0.38713701  0.75118710  1
  V  V62  1  0.13802349  -0.00201429  0.63968256  1
  V  V63  1  0.62850086  0.62458970  -0.01240482  1
  V  V64  1  0.87060458  0.74067414  0.13054337  1
  V  V65  1  0.12531121  0.63084539  -0.00466794  1
  V  V66  1  0.50076449  0.87575787  0.38027376  1
  V  V67  1  0.74678228  0.24471429  0.50013783  1
  V  V68  1  0.87587687  0.12758705  0.25205199  1
  V  V69  1  0.75341177  0.74903098  0.49991760  1
  V  V70  1  0.87597127  0.48087395  0.87832256  1
  V  V71  1  0.60709471  0.87102834  0.74641661  1
  V  V72  1  0.75447923  0.37697481  0.12200409  1
  V  V73  1  0.36987464  0.62819949  0.24889020  1
  V  V74  1  0.75283208  0.50655298  0.24716132  1
  V  V75  1  0.24922077  0.37441277  0.12472532  1
  V  V76  1  0.62007162  0.12276942  -0.00175973  1
  V  V77  1  0.75510113  0.74993483  -0.01213104  1
  V  V78  1  0.25059670  0.50165592  0.24767943  1
  V  V79  1  0.87740185  -0.00150441  0.37539510  1
  V  V80  1  0.87717943  0.62742770  0.76190523  1
  V  V81  1  0.75854942  0.87372876  0.12065847  1
  V  V82  1  0.50361658  0.50623647  0.50082913  1
  V  V83  1  0.37090232  0.00412420  0.37706044  1
  V  V84  1  0.37792904  0.50257222  0.37425439  1
  Zn  Zn85  1  0.23659045  0.89674000  0.13031688  1
  Zn  Zn86  1  0.01049081  -0.01173485  0.00543995  1
  Zn  Zn87  1  0.13504669  0.74970779  0.86304728  1
  Zn  Zn88  1  0.87845254  -0.01625793  0.88215358  1
  Zn  Zn89  1  0.50101261  0.37551754  0.37636455  1
  Zn  Zn90  1  0.74769546  0.12161135  0.37937433  1
  Zn  Zn91  1  0.50331576  0.00462876  0.49542148  1
  Zn  Zn92  1  0.01259585  0.75291891  0.74569773  1
  Zn  Zn93  1  0.11222293  0.89528698  0.25153095  1
  Zn  Zn94  1  0.50582655  0.12985619  0.61031944  1
  Zn  Zn95  1  0.24418900  0.11626552  0.86162298  1
  Zn  Zn96  1  0.75359787  0.00192001  0.25010922  1
  Zn  Zn97  1  0.25424235  0.77785411  -0.00234253  1
  Zn  Zn98  1  0.24385752  0.24941655  0.50143104  1
  Zn  Zn99  1  0.62714154  0.62583599  0.50271142  1
  Zn  Zn100  1  -0.00470461  0.75335193  0.25099290  1
  Zn  Zn101  1  0.12124987  0.61762143  0.50449539  1
  Zn  Zn102  1  0.62057371  0.74743477  0.86530818  1
  Zn  Zn103  1  0.62623925  0.50461376  0.62548648  1
  Zn  Zn104  1  0.18304808  0.83743522  0.70549533  1
  Zn  Zn105  1  0.36952238  0.11591062  0.74211560  1
  Zn  Zn106  1  0.76215748  0.10844824  0.89548959  1
  Zn  Zn107  1  0.15178337  0.07691310  0.17689116  1
  Zn  Zn108  1  0.18660815  0.18931594  0.68588722  1
  Zn  Zn109  1  0.18653333  0.75904921  0.19442086  1
  Zn  Zn110  1  0.18904166  0.66414301  0.68914058  1
  Zn  Zn111  1  0.69131444  0.18578211  0.18882489  1
  Zn  Zn112  1  0.68977789  0.18620416  0.68633249  1
  Zn  Zn113  1  0.68751893  0.68646950  0.18394386  1
  Zn  Zn114  1  0.68880509  0.68842255  0.68717009  1
  Zn  Zn115  1  0.30833608  0.31071815  0.31380683  1
  Zn  Zn116  1  0.30618434  0.29250973  0.80350671  1
  Zn  Zn117  1  0.31133472  0.81803085  0.31089410  1
  Zn  Zn118  1  0.32424078  0.80897093  0.82389714  1
  Zn  Zn119  1  0.80943407  0.31605201  0.31366847  1
  Zn  Zn120  1  0.81129750  0.30615488  0.81066387  1
  Zn  Zn121  1  0.81955123  0.81508923  0.30937703  1
  Zn  Zn122  1  0.81838142  0.81510629  0.81259554  1
  Zn  Zn123  1  0.20410224  0.44081682  0.43637287  1
  Zn  Zn124  1  0.18711330  0.43615985  0.93485082  1
  Zn  Zn125  1  0.18436468  0.93769325  0.43450224  1
  Zn  Zn126  1  0.18314351  0.93381440  0.92639094  1
  Zn  Zn127  1  0.68722839  0.43561018  0.43615326  1
  Zn  Zn128  1  0.68543224  0.43757114  0.93389380  1
  Zn  Zn129  1  0.69516433  0.93383501  0.43849608  1
  Zn  Zn130  1  0.68290836  0.93256723  0.93628698  1
  Zn  Zn131  1  0.28576527  0.01360698  0.01730030  1
  Zn  Zn132  1  0.31606739  0.06345750  0.55653084  1
  Zn  Zn133  1  0.31217225  0.56653914  0.06276385  1
  Zn  Zn134  1  0.31700570  0.56272780  0.56887911  1
  Zn  Zn135  1  0.84547984  0.04391910  0.07397006  1
  Zn  Zn136  1  0.81439467  0.06093850  0.56564523  1
  Zn  Zn137  1  0.81231540  0.56325598  0.05231623  1
  Zn  Zn138  1  0.81590891  0.56362944  0.56415538  1
  Zn  Zn139  1  0.43834539  0.43769076  0.18550043  1
  Zn  Zn140  1  0.44322934  0.43573017  0.68257669  1
  Zn  Zn141  1  0.44817326  0.93241813  0.18512425  1
  Zn  Zn142  1  0.35311253  0.92870885  0.69909450  1
  Zn  Zn143  1  0.93628824  0.43791949  0.18465781  1
  Zn  Zn144  1  0.93216690  0.43316054  0.69375702  1
  Zn  Zn145  1  0.95066727  0.93586207  0.18382831  1
  Zn  Zn146  1  0.94182070  0.93812370  0.69184669  1
  Zn  Zn147  1  0.05201942  0.07046856  0.32004390  1
  Zn  Zn148  1  0.05880039  0.06224888  0.81674895  1
  Zn  Zn149  1  0.07268706  0.58138321  0.30170174  1
  Zn  Zn150  1  0.05971638  0.56630490  0.81569892  1
  Zn  Zn151  1  0.56249414  0.06106144  0.31028696  1
  Zn  Zn152  1  0.56000903  0.05723914  0.80900079  1
  Zn  Zn153  1  0.56498108  0.56330762  0.31367512  1
  Zn  Zn154  1  0.55753621  0.55935366  0.81202307  1
  Zn  Zn155  1  0.43725708  0.18405466  0.43650188  1
  Zn  Zn156  1  0.43733893  0.18280467  0.93872401  1
  Zn  Zn157  1  0.43742077  0.68998188  0.44112172  1
  Zn  Zn158  1  0.44309169  0.69256034  0.93623025  1
  Zn  Zn159  1  0.93614713  0.18631853  0.43929898  1
  Zn  Zn160  1  0.91910252  0.16464029  0.94718467  1
  Zn  Zn161  1  0.93649192  0.67959467  0.44278344  1
  Zn  Zn162  1  0.94179531  0.69094487  0.93907834  1
  Zn  Zn163  1  0.06401292  0.30696388  0.06587751  1
  Zn  Zn164  1  0.06398263  0.31360740  0.56913576  1
  Zn  Zn165  1  0.05920288  0.81053342  0.06036336  1
  Zn  Zn166  1  0.06564909  0.81299355  0.55914079  1
  Zn  Zn167  1  0.56042265  0.31476209  0.06227189  1
  Zn  Zn168  1  0.56479722  0.31645150  0.56122682  1
  Zn  Zn169  1  0.56975628  0.80677397  0.06476600  1
  Zn  Zn170  1  0.56303384  0.81371321  0.56302829  1
  O  O171  1  0.12629647  0.15069492  0.10152120  1
  O  O172  1  0.11585376  0.11864513  0.62631435  1
  O  O173  1  0.11445572  0.61258795  0.11178130  1
  O  O174  1  0.10802787  0.61743720  0.62262768  1
  O  O175  1  0.62410148  0.11698442  0.12047165  1
  O  O176  1  0.62844665  0.10984191  0.62667461  1
  O  O177  1  0.61805483  0.61875266  0.11640079  1
  O  O178  1  0.61375851  0.62565872  0.62285705  1
  O  O179  1  0.37427428  0.38037836  0.38703847  1
  O  O180  1  0.38649448  0.36066857  0.87657627  1
  O  O181  1  0.38052568  0.88075646  0.38194159  1
  O  O182  1  0.39299087  0.88595448  0.88150027  1
  O  O183  1  0.87100675  0.38927346  0.38117080  1
  O  O184  1  0.87575820  0.38260986  0.87006638  1
  O  O185  1  0.87045957  0.88356715  0.38693726  1
  O  O186  1  0.89102865  0.87107595  0.87807596  1
  O  O187  1  0.25603470  0.00766799  0.37681635  1
  O  O188  1  0.26998437  0.00518697  0.88877392  1
  O  O189  1  0.26030461  0.51056520  0.36571565  1
  O  O190  1  0.25406889  0.50015227  0.86505007  1
  O  O191  1  0.76258268  0.00218222  0.37607780  1
  O  O192  1  0.74524885  -0.00409376  0.86095432  1
  O  O193  1  0.75422359  0.50582869  0.36598547  1
  O  O194  1  0.76288067  0.49539318  0.86841627  1
  O  O195  1  0.24515198  0.49533116  0.12983847  1
  O  O196  1  0.25935336  0.49264065  0.64241258  1
  O  O197  1  0.25686731  1.01914887  0.13343235  1
  O  O198  1  0.23772827  1.00886182  0.62260042  1
  O  O199  1  0.74656737  0.49606244  0.12860359  1
  O  O200  1  0.75078721  0.49498778  0.63452520  1
  O  O201  1  0.74831126  0.98918875  0.12408319  1
  O  O202  1  0.74536425  0.99283639  0.63242964  1
  O  O203  1  0.00218964  0.36775991  0.24856766  1
  O  O204  1  0.00976165  0.36532230  0.74153623  1
  O  O205  1  -0.00174984  0.86731545  0.25209358  1
  O  O206  1  -0.00345393  0.87051943  0.76366078  1
  O  O207  1  0.51198468  0.37101044  0.24891423  1
  O  O208  1  0.50822503  0.36806641  0.75445877  1
  O  O209  1  0.50909023  0.86799418  0.26116245  1
  O  O210  1  0.51144487  0.87351021  0.74322657  1
  O  O211  1  0.50641277  0.13746486  0.24254891  1
  O  O212  1  0.50610391  0.13932451  0.74418421  1
  O  O213  1  0.49168799  0.62786693  0.24689689  1
  O  O214  1  0.50106400  0.62467781  0.73741632  1
  O  O215  1  0.98434701  0.14310658  0.25333650  1
  O  O216  1  0.99256772  0.13159015  0.74320870  1
  O  O217  1  0.99715771  0.62402303  0.22859206  1
  O  O218  1  0.99249147  0.62648647  0.73949422  1
  O  O219  1  0.36894385  0.25283487  0.00569908  1
  O  O220  1  0.37727859  0.25999099  0.50756083  1
  O  O221  1  0.38030636  0.75096058  0.01571188  1
  O  O222  1  0.37695463  0.76388608  0.50288354  1
  O  O223  1  0.86160642  0.24641192  0.00998742  1
  O  O224  1  0.86849123  0.26274536  0.50154733  1
  O  O225  1  0.85823915  0.74110151  0.00550567  1
  O  O226  1  0.87259280  0.75602991  0.50630253  1
  O  O227  1  0.12480223  0.26272586  0.48600726  1
  O  O228  1  0.13118540  0.24927462  0.99058309  1
  O  O229  1  0.12020721  0.74120657  0.48684075  1
  O  O230  1  0.13214358  0.73492334  1.00042148  1
  O  O231  1  0.63381409  0.25903291  0.48950792  1
  O  O232  1  0.62506027  0.24987647  0.99103268  1
  O  O233  1  0.63555497  0.75129563  0.49215846  1
  O  O234  1  0.63484950  0.73910618  0.99804617  1
  O  O235  1  0.49458375  0.24674712  0.13260703  1
  O  O236  1  0.49721824  0.25158164  0.62941940  1
  O  O237  1  0.49294730  0.74460648  0.13149227  1
  O  O238  1  0.49673135  0.73724975  0.61794637  1
  O  O239  1  0.98478684  0.25900584  0.13431784  1
  O  O240  1  0.99789217  0.24172870  0.63084014  1
  O  O241  1  0.98484980  0.73794905  0.11774921  1
  O  O242  1  0.98983524  0.74787918  0.62489205  1
  O  O243  1  0.00429738  0.24898189  0.36998252  1
  O  O244  1  0.00504678  0.24522719  0.86229086  1
  O  O245  1  0.00661775  0.74057717  0.37613196  1
  O  O246  1  0.00714441  0.75507126  0.87009152  1
  O  O247  1  0.50534095  0.25403061  0.36724479  1
  O  O248  1  0.50932826  0.25436654  0.86650391  1
  O  O249  1  0.50657597  0.75539449  0.37018004  1
  O  O250  1  0.50386246  0.76984590  0.88003974  1
  O  O251  1  0.25459767  0.13104651  0.48521287  1
  O  O252  1  0.24412705  0.13465525  0.99508847  1
  O  O253  1  0.25116430  0.61526233  0.48880242  1
  O  O254  1  0.23852884  0.61177641  0.99003805  1
  O  O255  1  0.75777162  0.14140727  0.50205637  1
  O  O256  1  0.72945635  0.14649478  1.00295814  1
  O  O257  1  0.75027570  0.63073273  0.49229230  1
  O  O258  1  0.73900422  0.63559120  1.00101975  1
  O  O259  1  0.25615029  0.36957145  0.00443787  1
  O  O260  1  0.26046179  0.37660466  0.51048183  1
  O  O261  1  0.24849802  0.89466571  0.01401482  1
  O  O262  1  0.26006313  0.87384775  0.49611808  1
  O  O263  1  0.74009128  0.36673454  0.00920214  1
  O  O264  1  0.75668084  0.36912725  0.50495439  1
  O  O265  1  0.74092606  0.85899391  0.00690061  1
  O  O266  1  0.76197452  0.86772249  0.50891579  1
  O  O267  1  0.13064119  0.49819539  0.24121355  1
  O  O268  1  0.12686600  0.48805263  0.75837059  1
  O  O269  1  0.11085035  1.00905218  0.24897992  1
  O  O270  1  0.12706697  1.00794703  0.73827325  1
  O  O271  1  0.63141562  0.49348398  0.24426434  1
  O  O272  1  0.63464323  0.49592664  0.75167558  1
  O  O273  1  0.63205009  0.99366016  0.24258238  1
  O  O274  1  0.63114281  0.98971369  0.73950589  1
  O  O275  1  0.37565030  -0.00035396  0.25322378  1
  O  O276  1  0.39250753  0.00691186  0.76694948  1
  O  O277  1  0.37372979  0.50740779  0.25442255  1
  O  O278  1  0.37212091  0.49008336  0.75581797  1
  O  O279  1  0.87607436  0.01077084  0.26117807  1
  O  O280  1  0.86853500  0.01071032  0.75526639  1
  O  O281  1  0.86240682  0.49389153  0.25596210  1
  O  O282  1  0.86951300  0.50439827  0.76180503  1
  O  O283  1  0.11700727  0.38174538  0.37371127  1
  O  O284  1  0.12586316  0.36340731  0.86639961  1
  O  O285  1  0.12561989  0.85740050  0.37472636  1
  O  O286  1  0.11517699  0.86801603  0.86860878  1
  O  O287  1  0.62407959  0.36666842  0.36476172  1
  O  O288  1  0.61469711  0.36750578  0.86939921  1
  O  O289  1  0.62114272  0.87027785  0.37032097  1
  O  O290  1  0.61308432  0.87684296  0.86136069  1
  O  O291  1  0.37997617  0.12984473  0.13795162  1
  O  O292  1  0.37985318  0.13480646  0.62371209  1
  O  O293  1  0.38249985  0.62966195  0.13356530  1
  O  O294  1  0.38852813  0.63838305  0.61817365  1
  O  O295  1  0.86150195  0.14301057  0.13886365  1
  O  O296  1  0.88159330  0.13139485  0.63386845  1
  O  O297  1  0.88157809  0.62817714  0.11591586  1
  O  O298  1  0.88354793  0.63012141  0.63316544  1
  O  O299  1  0.26097994  0.25991379  0.11540055  1
  O  O300  1  0.26022899  0.26134741  0.62086552  1
  O  O301  1  0.26885985  0.73900427  0.11645176  1
  O  O302  1  0.26279162  0.73812784  0.63138025  1
  O  O303  1  0.75146134  0.26061019  0.11958485  1
  O  O304  1  0.75462411  0.25810889  0.61886825  1
  O  O305  1  0.75293950  0.75260928  0.11581346  1
  O  O306  1  0.76238278  0.75236779  0.61957663  1
  O  O307  1  0.24015319  0.24296239  0.37589714  1
  O  O308  1  0.24060918  0.25465896  0.88863935  1
  O  O309  1  0.24830729  0.73661134  0.37478075  1
  O  O310  1  0.25461836  0.73943474  0.88548724  1
  O  O311  1  0.74123541  0.25185834  0.38376227  1
  O  O312  1  0.73528832  0.25698260  0.88292331  1
  O  O313  1  0.75087832  0.74239402  0.37737979  1
  O  O314  1  0.74562567  0.75566671  0.88583621  1
  O  O315  1  0.01401321  0.12888909  -0.00393003  1
  O  O316  1  -0.00957882  0.11639771  0.51525329  1
  O  O317  1  0.00877843  0.61591570  0.00233374  1
  O  O318  1  -0.00430728  0.61905950  0.51852697  1
  O  O319  1  0.51397181  0.13728257  0.01216572  1
  O  O320  1  0.50147234  0.11830947  0.49739095  1
  O  O321  1  0.50628828  0.61740035  0.00386724  1
  O  O322  1  0.50291399  0.61489371  0.50002192  1
  O  O323  1  0.49379325  0.38827125  0.50077648  1
  O  O324  1  0.49343340  0.38096047  0.99143823  1
  O  O325  1  0.50013577  0.87748488  0.48667548  1
  O  O326  1  0.51169616  0.87861473  0.99661140  1
  O  O327  1  0.99088224  0.37646260  0.50036281  1
  O  O328  1  1.00462701  0.38627498  1.00445054  1
  O  O329  1  0.98860757  0.88421909  0.50719018  1
  O  O330  1  1.00606925  0.87251268  0.98375935  1
  O  O331  1  0.49529737  0.49826332  0.38138481  1
  O  O332  1  0.50259298  0.48782160  0.88318930  1
  O  O333  1  0.49157297  0.99111964  0.37106143  1
  O  O334  1  0.50095692  0.98628793  0.87528822  1
  O  O335  1  0.99285618  0.50861127  0.36630669  1
  O  O336  1  0.98503182  0.50073917  0.87972437  1
  O  O337  1  0.98538133  1.00858176  0.39059481  1
  O  O338  1  0.99998965  0.98868210  0.88150480  1
  O  O339  1  -0.04965520  0.00337084  0.09889745  1
  O  O340  1  0.00725234  0.00831981  0.62245743  1
  O  O341  1  0.00114234  0.50361067  0.11420023  1
  O  O342  1  -0.00824513  0.50648985  0.62875692  1
  O  O343  1  0.51807019  0.00541681  0.13122856  1
  O  O344  1  0.51969126  0.00035766  0.62080837  1
  O  O345  1  0.50644640  0.50420862  0.11620609  1
  O  O346  1  0.50058829  0.51334490  0.61771028  1
  O  O347  1  0.24290497  0.38212007  0.24617354  1
  O  O348  1  0.24620031  0.38241935  0.74600258  1
  O  O349  1  0.23558544  0.86031693  0.24210167  1
  O  O350  1  0.26908197  0.87942295  0.75592359  1
  O  O351  1  0.73899401  0.38288002  0.24307147  1
  O  O352  1  0.74662488  0.38361352  0.74583996  1
  O  O353  1  0.74465436  0.87468022  0.24091903  1
  O  O354  1  0.75169887  0.88288982  0.74258515  1
  O  O355  1  0.25597901  0.12356400  0.25558969  1
  O  O356  1  0.26445733  0.15982390  0.75903426  1
  O  O357  1  0.26405385  0.62113010  0.25940002  1
  O  O358  1  0.25437949  0.60436390  0.76222535  1
  O  O359  1  0.76117524  0.12573132  0.25677095  1
  O  O360  1  0.75579592  0.11297533  0.74543057  1
  O  O361  1  0.74440448  0.61381274  0.25577276  1
  O  O362  1  0.75859971  0.61323291  0.74500408  1
  O  O363  1  0.36783408  0.11076465  0.37394168  1
  O  O364  1  0.38152331  0.11687901  0.86722594  1
  O  O365  1  0.36842318  0.62404608  0.37034917  1
  O  O366  1  0.36648726  0.62384636  0.88684470  1
  O  O367  1  0.87076102  0.11940341  0.37049430  1
  O  O368  1  0.86157892  0.15988222  0.84743077  1
  O  O369  1  0.86291138  0.61338094  0.37865521  1
  O  O370  1  0.87988944  0.62240954  0.86329487  1
  O  O371  1  0.13069456  0.38059575  0.13142007  1
  O  O372  1  0.13956367  0.37213380  0.63434566  1
  O  O373  1  0.12875960  0.84821703  0.13887335  1
  O  O374  1  0.12311983  0.89146354  0.62474274  1
  O  O375  1  0.63183877  0.38107014  0.13114166  1
  O  O376  1  0.63141720  0.37990449  0.63376178  1
  O  O377  1  0.63328270  0.88085470  0.13055211  1
  O  O378  1  0.63193920  0.88026617  0.63261901  1
  O  O379  1  0.11213479  0.26474187  0.26690235  1
  O  O380  1  0.11790209  0.25860453  0.75596617  1
  O  O381  1  0.11494852  0.72573997  0.27462508  1
  O  O382  1  0.12981804  0.74494099  0.74454069  1
  O  O383  1  0.61841893  0.25786829  0.25439072  1
  O  O384  1  0.62305970  0.25527541  0.75549506  1
  O  O385  1  0.62090198  0.75417704  0.25484474  1
  O  O386  1  0.63242415  0.76697428  0.74894388  1
  O  O387  1  0.38902921  0.26190574  0.24656375  1
  O  O388  1  0.39025699  0.25909881  0.73235883  1
  O  O389  1  0.38154187  0.74298381  0.24393026  1
  O  O390  1  0.38020301  0.75230658  0.73440912  1
  O  O391  1  0.87793182  0.25017654  0.24761397  1
  O  O392  1  0.88299681  0.25326603  0.73516067  1
  O  O393  1  0.87122602  0.74478586  0.23467224  1
  O  O394  1  0.87396685  0.74072311  0.74161275  1
  O  O395  1  0.38279055  0.49503965  0.49539182  1
  O  O396  1  0.38726536  0.49464943  1.00598398  1
  O  O397  1  0.37751620  0.98575298  0.49223389  1
  O  O398  1  0.39442971  1.01577529  0.98238410  1
  O  O399  1  0.86960224  0.48948155  0.49057261  1
  O  O400  1  0.87947810  0.49883610  0.98451624  1
  O  O401  1  0.88012621  0.99192368  0.49819188  1
  O  O402  1  0.85676221  1.06102936  0.96277407  1
  O  O403  1  0.12776512  0.01955978  -0.00044469  1
  O  O404  1  0.11189567  -0.00389864  0.50430453  1
  O  O405  1  0.11624890  0.50210498  0.00121305  1
  O  O406  1  0.11359381  0.49312041  0.48803091  1
  O  O407  1  0.63368547  0.01084352  0.00869480  1
  O  O408  1  0.63085647  -0.00823423  0.51384320  1
  O  O409  1  0.61775718  0.50588527  0.00246918  1
  O  O410  1  0.61750037  0.50100111  0.50170016  1
  O  O411  1  0.37099400  0.37140122  0.11756773  1
  O  O412  1  0.37090258  0.37185207  0.61484758  1
  O  O413  1  0.37390718  0.86232398  0.13324437  1
  O  O414  1  0.37744035  0.86111482  0.61088469  1
  O  O415  1  0.85925487  0.36816685  0.12969883  1
  O  O416  1  0.86868469  0.37214043  0.61584021  1
  O  O417  1  0.86054780  0.86019892  0.12409341  1
  O  O418  1  0.87191016  0.86755196  0.62128914  1
  O  O419  1  0.13214201  0.13699728  0.37326120  1
  O  O420  1  0.12652355  0.13740677  0.88176054  1
  O  O421  1  0.13957832  0.62563239  0.38430452  1
  O  O422  1  0.13379448  0.62515327  0.88177685  1
  O  O423  1  0.62783845  0.13849755  0.36863708  1
  O  O424  1  0.62555604  0.13117839  0.88180352  1
  O  O425  1  0.63791961  0.63064126  0.37625981  1
  O  O426  1  0.61790643  0.62710026  0.88396578  1
