# generated using pymatgen
data_V85Zn86O256
_symmetry_space_group_name_H-M   'P 1'
_cell_length_a   16.92101078
_cell_length_b   16.92764098
_cell_length_c   16.93658679
_cell_angle_alpha   89.93094381
_cell_angle_beta   89.91311647
_cell_angle_gamma   90.06091843
_symmetry_Int_Tables_number   1
_chemical_formula_structural   V85Zn86O256
_chemical_formula_sum   'V85 Zn86 O256'
_cell_volume   4851.18204915
_cell_formula_units_Z   1
loop_
 _symmetry_equiv_pos_site_id
 _symmetry_equiv_pos_as_xyz
  1  'x, y, z'
loop_
 _atom_site_type_symbol
 _atom_site_label
 _atom_site_symmetry_multiplicity
 _atom_site_fract_x
 _atom_site_fract_y
 _atom_site_fract_z
 _atom_site_occupancy
  V  V0  1  0.74812806  0.74670050  0.50141654  1
  V  V1  1  0.74833011  0.12297251  0.88001206  1
  V  V2  1  0.75247046  0.87331337  0.62378913  1
  V  V3  1  0.00001242  0.75299926  0.24923068  1
  V  V4  1  0.87909171  -0.00452420  0.88634190  1
  V  V5  1  0.25014409  0.49127154  0.24981151  1
  V  V6  1  -0.00010191  0.37245657  0.87688066  1
  V  V7  1  0.87396850  0.62870424  0.24790061  1
  V  V8  1  0.00358216  0.10963850  0.11885305  1
  V  V9  1  0.75126399  0.25035960  0.49996633  1
  V  V10  1  0.26871633  0.00257758  0.25359730  1
  V  V11  1  -0.00319038  0.87544880  0.88927131  1
  V  V12  1  0.50141960  0.37665002  0.36774170  1
  V  V13  1  0.00094592  0.24783420  0.74780422  1
  V  V14  1  0.37174556  0.00606169  0.87828420  1
  V  V15  1  0.49570283  0.24425515  0.24980327  1
  V  V16  1  0.88620551  0.73602710  0.63530571  1
  V  V17  1  0.24946914  0.74396392  0.00380192  1
  V  V18  1  0.62128455  0.74959731  0.37112905  1
  V  V19  1  0.50386447  0.75163966  0.75080248  1
  V  V20  1  0.49921510  0.50235708  0.00266869  1
  V  V21  1  0.12755472  0.37220630  0.75120962  1
  V  V22  1  0.37370976  0.74957597  0.62943899  1
  V  V23  1  0.75074268  0.51294362  0.75084805  1
  V  V24  1  0.74744016  0.24834114  -0.00095431  1
  V  V25  1  0.37621387  0.37870536  0.49947310  1
  V  V26  1  0.62233064  0.50346047  0.12211444  1
  V  V27  1  0.12527116  0.49874755  0.12734525  1
  V  V28  1  0.87537994  0.00134405  0.37651996  1
  V  V29  1  0.62537058  0.50330261  0.61735905  1
  V  V30  1  0.24986929  0.62513457  0.37104580  1
  V  V31  1  0.12205722  0.74494184  0.87676586  1
  V  V32  1  0.88064148  0.12262992  0.74756133  1
  V  V33  1  0.87439217  0.37754551  -0.00314223  1
  V  V34  1  0.87365363  0.49924487  0.37149511  1
  V  V35  1  0.62324095  0.24691097  0.88146449  1
  V  V36  1  0.87760304  0.24868879  0.12131888  1
  V  V37  1  0.23768964  0.24700734  0.50433353  1
  V  V38  1  0.87824523  0.12415944  0.24676167  1
  V  V39  1  0.75281141  0.63053568  0.89008593  1
  V  V40  1  0.62565023  0.37733568  0.75153992  1
  V  V41  1  0.00328637  0.49997811  0.49079788  1
  V  V42  1  0.75071344  -0.00158015  0.74909073  1
  V  V43  1  0.88110072  0.24703992  0.62364322  1
  V  V44  1  0.87724295  0.37570044  0.49915390  1
  V  V45  1  0.24882093  0.38557065  0.62474709  1
  V  V46  1  0.37267970  0.24084844  0.12864258  1
  V  V47  1  0.51350690  0.00334046  -0.00054602  1
  V  V48  1  0.09073305  0.52060077  0.65191532  1
  V  V49  1  0.74658921  0.87654067  0.11231028  1
  V  V50  1  0.74300855  0.62513159  0.37855758  1
  V  V51  1  0.87078239  0.75576812  0.11128856  1
  V  V52  1  0.24756904  0.74929263  0.50073467  1
  V  V53  1  0.49931004  0.12360273  0.62724368  1
  V  V54  1  0.73953986  -0.00300190  0.24751774  1
  V  V55  1  0.00470568  0.50797174  0.00095553  1
  V  V56  1  0.12036000  0.62380837  0.49899062  1
  V  V57  1  0.12269375  0.01412749  0.62205272  1
  V  V58  1  0.49698998  0.00200523  0.49167788  1
  V  V59  1  0.50186007  0.64188321  0.12473753  1
  V  V60  1  0.12973404  0.24702745  0.36102317  1
  V  V61  1  0.13060801  0.24392005  0.87679115  1
  V  V62  1  0.25743073  0.50193665  0.75543432  1
  V  V63  1  0.12661170  0.11014104  -0.00174041  1
  V  V64  1  0.49766414  0.87303573  0.36554677  1
  V  V65  1  0.37836875  0.63862063  0.24477023  1
  V  V66  1  0.62537112  0.25416729  0.37017493  1
  V  V67  1  0.24968049  0.24651225  -0.00036100  1
  V  V68  1  0.12132521  0.89172117  0.24471941  1
  V  V69  1  0.25015997  0.00652894  0.75112740  1
  V  V70  1  0.51419249  0.11913159  0.12404406  1
  V  V71  1  0.74481937  0.49725628  0.24856198  1
  V  V72  1  0.62572177  0.12581170  0.50133487  1
  V  V73  1  0.11421058  0.87278530  0.74754344  1
  V  V74  1  0.24614682  0.87663950  0.12371261  1
  V  V75  1  0.37544699  0.87480468  0.49516165  1
  V  V76  1  0.74376865  0.37468963  0.12656649  1
  V  V77  1  0.50387495  0.62720409  0.61741001  1
  V  V78  1  0.49967139  0.24972150  0.75085637  1
  V  V79  1  0.37569447  0.87342595  0.00435477  1
  V  V80  1  0.62601874  0.74597749  0.88745155  1
  V  V81  1  -0.00026285  0.87782169  0.37755644  1
  V  V82  1  0.75014066  0.12579242  0.37279840  1
  V  V83  1  0.24763290  0.87906235  0.62549152  1
  V  V84  1  0.00347014  0.01342538  0.50361709  1
  Zn  Zn85  1  0.01112912  0.25493163  0.23862967  1
  Zn  Zn86  1  0.37449832  0.62704394  0.75665675  1
  Zn  Zn87  1  0.49867684  0.37726412  0.87974942  1
  Zn  Zn88  1  0.62164414  0.87252447  0.24454190  1
  Zn  Zn89  1  0.01406222  0.37542421  0.36257595  1
  Zn  Zn90  1  0.62463126  -0.00236972  0.62495577  1
  Zn  Zn91  1  0.87725377  0.87335984  0.50236300  1
  Zn  Zn92  1  0.62665311  0.87278180  0.74982878  1
  Zn  Zn93  1  0.37190636  0.12741131  0.75384740  1
  Zn  Zn94  1  0.37438738  0.50105921  0.88304328  1
  Zn  Zn95  1  0.24440906  0.36743434  0.13068784  1
  Zn  Zn96  1  0.37467279  0.37367840  0.00332886  1
  Zn  Zn97  1  0.12258166  0.75071577  0.37291999  1
  Zn  Zn98  1  0.25006747  0.62355830  0.88102815  1
  Zn  Zn99  1  0.25898762  0.11736335  0.37479869  1
  Zn  Zn100  1  0.50431672  0.50422999  0.49448764  1
  Zn  Zn101  1  0.75162225  0.37625893  0.62752995  1
  Zn  Zn102  1  0.37394147  0.25330689  0.62684453  1
  Zn  Zn103  1  0.00456725  0.63051025  0.11911744  1
  Zn  Zn104  1  0.37952745  0.50243375  0.37069495  1
  Zn  Zn105  1  0.50045547  0.87581222  0.87482969  1
  Zn  Zn106  1  0.87796914  0.50875337  0.87173513  1
  Zn  Zn107  1  0.19021573  0.17358636  0.18446119  1
  Zn  Zn108  1  0.18950899  0.18816239  0.68388690  1
  Zn  Zn109  1  0.18523320  0.68685448  0.18374192  1
  Zn  Zn110  1  0.18636178  0.68841737  0.69134672  1
  Zn  Zn111  1  0.68678515  0.19013033  0.19046393  1
  Zn  Zn112  1  0.68960614  0.18777374  0.68928666  1
  Zn  Zn113  1  0.68729288  0.69054700  0.18600992  1
  Zn  Zn114  1  0.68663332  0.68862302  0.68646521  1
  Zn  Zn115  1  0.31500097  0.30942489  0.31618882  1
  Zn  Zn116  1  0.31582954  0.31564470  0.81803753  1
  Zn  Zn117  1  0.30835166  0.81488018  0.31232308  1
  Zn  Zn118  1  0.30980472  0.81855266  0.81586535  1
  Zn  Zn119  1  0.82189871  0.31382584  0.30797010  1
  Zn  Zn120  1  0.81082817  0.31350573  0.81105921  1
  Zn  Zn121  1  0.81153138  0.81389575  0.31093202  1
  Zn  Zn122  1  0.81522170  0.80823995  0.81154679  1
  Zn  Zn123  1  0.18711927  0.43591781  0.43324516  1
  Zn  Zn124  1  0.18729492  0.43381574  0.94151540  1
  Zn  Zn125  1  0.18414196  0.93816406  0.43602919  1
  Zn  Zn126  1  0.18968533  0.93235810  0.93275298  1
  Zn  Zn127  1  0.68879261  0.43397745  0.43704405  1
  Zn  Zn128  1  0.68413655  0.44083668  0.93778239  1
  Zn  Zn129  1  0.68500350  0.93626285  0.43793290  1
  Zn  Zn130  1  0.68794807  0.93260865  0.93214514  1
  Zn  Zn131  1  0.31386183  0.06070284  0.06671923  1
  Zn  Zn132  1  0.32535805  0.07473396  0.53891387  1
  Zn  Zn133  1  0.31492231  0.56385802  0.06801423  1
  Zn  Zn134  1  0.31335557  0.56332177  0.56175667  1
  Zn  Zn135  1  0.80882177  0.05976276  0.06280771  1
  Zn  Zn136  1  0.81626061  0.06231945  0.56229811  1
  Zn  Zn137  1  0.81644301  0.56323240  0.06320045  1
  Zn  Zn138  1  0.81285356  0.56335610  0.56179812  1
  Zn  Zn139  1  0.43227124  0.43542997  0.18622877  1
  Zn  Zn140  1  0.43958773  0.43787033  0.68731287  1
  Zn  Zn141  1  0.43768753  0.93676494  0.18136865  1
  Zn  Zn142  1  0.43627649  0.93774570  0.68640387  1
  Zn  Zn143  1  0.93734383  0.43658421  0.18511635  1
  Zn  Zn144  1  0.93834093  0.44674126  0.69116848  1
  Zn  Zn145  1  0.93047844  0.93637768  0.18686541  1
  Zn  Zn146  1  0.93630661  0.93520797  0.68593369  1
  Zn  Zn147  1  0.06591772  0.07117498  0.31724157  1
  Zn  Zn148  1  0.06284302  0.05909096  0.81283175  1
  Zn  Zn149  1  0.06449216  0.56422241  0.30733195  1
  Zn  Zn150  1  0.06502313  0.55963500  0.81953339  1
  Zn  Zn151  1  0.55853957  0.06510672  0.31243046  1
  Zn  Zn152  1  0.56343221  0.06173612  0.81471225  1
  Zn  Zn153  1  0.56289117  0.56422912  0.30683555  1
  Zn  Zn154  1  0.56301538  0.56837984  0.81193260  1
  Zn  Zn155  1  0.43128921  0.19062957  0.43920200  1
  Zn  Zn156  1  0.43757391  0.18414493  0.94113120  1
  Zn  Zn157  1  0.43588638  0.68937989  0.43560301  1
  Zn  Zn158  1  0.43503165  0.68630893  0.93932383  1
  Zn  Zn159  1  0.94320980  0.19043945  0.43340682  1
  Zn  Zn160  1  0.93997013  0.18345601  0.93782501  1
  Zn  Zn161  1  0.93354014  0.68875533  0.43964898  1
  Zn  Zn162  1  0.93697745  0.68947740  0.93148578  1
  Zn  Zn163  1  0.06415608  0.31352053  0.06375874  1
  Zn  Zn164  1  0.06109555  0.32287512  0.56290248  1
  Zn  Zn165  1  0.06492746  0.81351572  0.06316623  1
  Zn  Zn166  1  0.06122730  0.81522226  0.56199506  1
  Zn  Zn167  1  0.56139918  0.31432107  0.06536636  1
  Zn  Zn168  1  0.56276690  0.31515828  0.56222666  1
  Zn  Zn169  1  0.56417739  0.81836351  0.06028733  1
  Zn  Zn170  1  0.56601002  0.81310046  0.55847916  1
  O  O171  1  0.11207782  0.12397479  0.11385803  1
  O  O172  1  0.11937667  0.11283021  0.63299154  1
  O  O173  1  0.12011935  0.60866148  0.12884588  1
  O  O174  1  0.12951041  0.61515306  0.61632526  1
  O  O175  1  0.61335154  0.12980816  0.12483686  1
  O  O176  1  0.61683271  0.12544824  0.62061094  1
  O  O177  1  0.61050346  0.61952712  0.13447437  1
  O  O178  1  0.61614227  0.61700985  0.62796434  1
  O  O179  1  0.38298180  0.37831270  0.38207062  1
  O  O180  1  0.38099898  0.38127437  0.88340322  1
  O  O181  1  0.38195886  0.86604545  0.38567545  1
  O  O182  1  0.37735405  0.88604993  0.88492217  1
  O  O183  1  0.86710977  0.38305585  0.38772882  1
  O  O184  1  0.87736447  0.37403890  0.88563735  1
  O  O185  1  0.88436224  0.88290758  0.37357083  1
  O  O186  1  0.88878863  0.87840402  0.86989618  1
  O  O187  1  0.24476968  -0.00561576  0.35722079  1
  O  O188  1  0.25808201  -0.00523543  0.86370745  1
  O  O189  1  0.25019440  0.51149076  0.36760183  1
  O  O190  1  0.24894888  0.50124281  0.87000010  1
  O  O191  1  0.75521102  0.00620214  0.36960512  1
  O  O192  1  0.75635958  0.00448917  0.86767696  1
  O  O193  1  0.75105627  0.50585133  0.36743584  1
  O  O194  1  0.74475543  0.51431564  0.86808563  1
  O  O195  1  0.24121573  0.49755046  0.13127542  1
  O  O196  1  0.25140639  0.49333908  0.63288252  1
  O  O197  1  0.25444217  0.98891161  0.13940418  1
  O  O198  1  0.24157066  0.99404410  0.62799184  1
  O  O199  1  0.74494197  0.49595664  0.12968964  1
  O  O200  1  0.74329485  0.50120086  0.63511667  1
  O  O201  1  0.75703873  0.98587385  0.13327371  1
  O  O202  1  0.75096348  0.99305729  0.63163036  1
  O  O203  1  -0.02636048  0.36158875  0.25740431  1
  O  O204  1  0.00529883  0.36856088  0.75713995  1
  O  O205  1  0.00312394  0.87192232  0.25482699  1
  O  O206  1  0.01174179  0.87839730  0.75387713  1
  O  O207  1  0.49561596  0.36707026  0.26211369  1
  O  O208  1  0.51020996  0.36905497  0.75238287  1
  O  O209  1  0.50059654  0.88184460  0.26185333  1
  O  O210  1  0.50138107  0.86318003  0.74960148  1
  O  O211  1  0.50084413  0.12989739  0.23751659  1
  O  O212  1  0.50096794  0.13224091  0.74324471  1
  O  O213  1  0.48674044  0.62328210  0.24116887  1
  O  O214  1  0.49677943  0.63625554  0.73918244  1
  O  O215  1  0.99470202  0.12725292  0.23755927  1
  O  O216  1  0.98774010  0.13035976  0.75628984  1
  O  O217  1  0.98810896  0.63380068  0.25010665  1
  O  O218  1  1.01190057  0.55125435  0.71959027  1
  O  O219  1  0.36494846  0.24668978  0.00635701  1
  O  O220  1  0.36223444  0.26600931  0.50383198  1
  O  O221  1  0.36432655  0.76299562  -0.00780224  1
  O  O222  1  0.36868602  0.75680970  0.50860338  1
  O  O223  1  0.86875193  0.25551818  0.00273967  1
  O  O224  1  0.87404806  0.25567784  0.50402265  1
  O  O225  1  0.87781706  0.74758394  0.01341253  1
  O  O226  1  0.86285816  0.75249800  0.50526808  1
  O  O227  1  0.13581243  0.26209515  0.49732331  1
  O  O228  1  0.12941950  0.24179135  0.99345528  1
  O  O229  1  0.12982838  0.74133528  0.49960848  1
  O  O230  1  0.13292641  0.75707965  0.98638935  1
  O  O231  1  0.63138298  0.24550677  0.49431445  1
  O  O232  1  0.62991044  0.25588541  0.98802318  1
  O  O233  1  0.63965582  0.75364642  0.48979194  1
  O  O234  1  0.62106745  0.74989412  0.98598336  1
  O  O235  1  0.49708450  0.24149427  0.13187992  1
  O  O236  1  0.50167316  0.24464200  0.63465881  1
  O  O237  1  0.50604075  0.74041856  0.12504758  1
  O  O238  1  0.49476603  0.74690062  0.62884749  1
  O  O239  1  0.99264020  0.24035584  0.12162115  1
  O  O240  1  0.98886574  0.25745218  0.62921834  1
  O  O241  1  0.98920115  0.75166835  0.13061522  1
  O  O242  1  0.98482529  0.75321391  0.61838935  1
  O  O243  1  0.01970841  0.24602631  0.36924512  1
  O  O244  1  0.00927780  0.25333702  0.87086367  1
  O  O245  1  -0.00285504  0.75976874  0.36754706  1
  O  O246  1  0.00996440  0.76080494  0.87755355  1
  O  O247  1  0.50398227  0.25188114  0.36969761  1
  O  O248  1  0.50786547  0.24777707  0.86896532  1
  O  O249  1  0.50967644  0.75922734  0.38221288  1
  O  O250  1  0.51031286  0.74766712  0.86831073  1
  O  O251  1  0.23776275  0.14842481  0.52292442  1
  O  O252  1  0.23511868  0.13193799  1.00859270  1
  O  O253  1  0.24208044  0.62713044  0.49161919  1
  O  O254  1  0.25420979  0.64025066  1.00456568  1
  O  O255  1  0.74714780  0.13069275  0.49304594  1
  O  O256  1  0.75372237  0.13022073  0.98773829  1
  O  O257  1  0.75260523  0.63122451  0.48862229  1
  O  O258  1  0.74959486  0.62186764  0.98869137  1
  O  O259  1  0.24789160  0.35739739  0.00558411  1
  O  O260  1  0.25523246  0.37529940  0.50823476  1
  O  O261  1  0.25484293  0.87135964  0.00752996  1
  O  O262  1  0.25647511  0.86956969  0.50325086  1
  O  O263  1  0.75561118  0.37117792  0.00408366  1
  O  O264  1  0.75782887  0.36745607  0.50372813  1
  O  O265  1  0.75039165  0.88009102  0.01336008  1
  O  O266  1  0.75271331  0.86874280  0.50661877  1
  O  O267  1  0.13467729  0.50176145  0.24113207  1
  O  O268  1  0.14203768  0.49153394  0.75245311  1
  O  O269  1  0.12322538  0.99279389  0.25127469  1
  O  O270  1  0.13094500  0.99325676  0.74402045  1
  O  O271  1  0.63802256  0.50270115  0.24046581  1
  O  O272  1  0.63146704  0.49499296  0.74441063  1
  O  O273  1  0.63693856  0.99928488  0.25568945  1
  O  O274  1  0.63934366  0.99911437  0.74932787  1
  O  O275  1  0.36698243  -0.00734909  0.25436473  1
  O  O276  1  0.36752719  -0.00056472  0.75683046  1
  O  O277  1  0.36539630  0.51080214  0.24911342  1
  O  O278  1  0.36629436  0.49970827  0.75207404  1
  O  O279  1  0.86801531  0.01040101  0.25532983  1
  O  O280  1  0.86722839  0.00650422  0.75384755  1
  O  O281  1  0.86500567  0.51050592  0.25038804  1
  O  O282  1  0.85309563  0.48868745  0.75614728  1
  O  O283  1  0.13052662  0.35602057  0.37381236  1
  O  O284  1  0.12052872  0.36421346  0.87054499  1
  O  O285  1  0.11426777  0.87171546  0.36547016  1
  O  O286  1  0.11407605  0.87027927  0.86830460  1
  O  O287  1  0.61806572  0.36186720  0.37977139  1
  O  O288  1  0.62290302  0.36781828  0.86788958  1
  O  O289  1  0.61537129  0.86817168  0.37368621  1
  O  O290  1  0.62398338  0.85991180  0.87003047  1
  O  O291  1  0.38602563  0.13577858  0.12162228  1
  O  O292  1  0.38903023  0.13082827  0.62599028  1
  O  O293  1  0.38580058  0.62727406  0.13694930  1
  O  O294  1  0.37873045  0.63803249  0.62691716  1
  O  O295  1  0.88369472  0.12611533  0.12745482  1
  O  O296  1  0.87180716  0.13438275  0.63471727  1
  O  O297  1  0.87493456  0.63747940  0.13245868  1
  O  O298  1  0.87443334  0.63633321  0.62163406  1
  O  O299  1  0.25600936  0.24592569  0.12085686  1
  O  O300  1  0.24727257  0.26748842  0.61994359  1
  O  O301  1  0.24238045  0.76347444  0.11722757  1
  O  O302  1  0.25617430  0.75529112  0.62151872  1
  O  O303  1  0.75376639  0.25693934  0.11986308  1
  O  O304  1  0.76240623  0.25178358  0.62047027  1
  O  O305  1  0.76189313  0.76054516  0.12897226  1
  O  O306  1  0.75403526  0.75491318  0.61813420  1
  O  O307  1  0.24599115  0.24690672  0.38809178  1
  O  O308  1  0.23861746  0.24966782  0.88111823  1
  O  O309  1  0.24669065  0.73974717  0.38024067  1
  O  O310  1  0.23829932  0.75263886  0.88342732  1
  O  O311  1  0.74333673  0.24597596  0.37633449  1
  O  O312  1  0.74393232  0.24211672  0.87764338  1
  O  O313  1  0.74755141  0.74304775  0.38140690  1
  O  O314  1  0.74055999  0.73986283  0.87186347  1
  O  O315  1  0.01026908  0.12393966  0.00978189  1
  O  O316  1  -0.00322668  0.11291359  0.49789454  1
  O  O317  1  -0.00684582  0.61167148  -0.00122177  1
  O  O318  1  0.01172296  0.61731866  0.49057417  1
  O  O319  1  0.50006840  0.11779486  0.01320455  1
  O  O320  1  0.50577086  0.11922758  0.50765010  1
  O  O321  1  0.49367748  0.62035803  0.01886179  1
  O  O322  1  0.49374134  0.62438778  0.51282894  1
  O  O323  1  0.49251453  0.37438285  0.48935913  1
  O  O324  1  0.50069391  0.38717988  1.00168617  1
  O  O325  1  0.49484370  0.88145123  0.49227729  1
  O  O326  1  0.49217062  0.88451985  1.00064711  1
  O  O327  1  0.99223358  0.37899882  0.48492194  1
  O  O328  1  0.99176161  0.38089148  0.99640037  1
  O  O329  1  0.99923322  0.88124613  0.48764792  1
  O  O330  1  1.00223451  0.87659371  0.98777086  1
  O  O331  1  0.50309788  0.49165184  0.37497249  1
  O  O332  1  0.50630526  0.50619871  0.89242651  1
  O  O333  1  0.50169855  0.99398602  0.38639734  1
  O  O334  1  0.49380117  0.99834438  0.88195176  1
  O  O335  1  0.99458641  0.49807838  0.37670194  1
  O  O336  1  0.99832600  0.49128055  0.88487373  1
  O  O337  1  0.99701631  0.99637110  0.38018812  1
  O  O338  1  0.99292095  0.98543080  0.87007964  1
  O  O339  1  -0.00637432  0.01119186  0.12548120  1
  O  O340  1  0.00890744  -0.00789264  0.61473154  1
  O  O341  1  0.00684979  0.50205297  0.11939106  1
  O  O342  1  0.00037239  0.48013481  0.59666595  1
  O  O343  1  0.49966143  0.01196318  0.11848168  1
  O  O344  1  0.50359482  0.00762623  0.61893855  1
  O  O345  1  0.50719906  0.50361518  0.12200904  1
  O  O346  1  0.50805253  0.50917223  0.62471280  1
  O  O347  1  0.25778213  0.38781596  0.25180916  1
  O  O348  1  0.24754387  0.37912524  0.74350874  1
  O  O349  1  0.24051499  0.88012902  0.24409360  1
  O  O350  1  0.24175762  0.88516087  0.74399759  1
  O  O351  1  0.75950440  0.38542839  0.23886522  1
  O  O352  1  0.73705902  0.38126682  0.75041772  1
  O  O353  1  0.74960990  0.88419699  0.24418367  1
  O  O354  1  0.75166648  0.88294544  0.74352541  1
  O  O355  1  0.25546260  0.10727379  0.25141365  1
  O  O356  1  0.25277388  0.11181327  0.74325836  1
  O  O357  1  0.25809072  0.62152387  0.25437948  1
  O  O358  1  0.25170258  0.61466664  0.75193215  1
  O  O359  1  0.75596146  0.11744884  0.25253938  1
  O  O360  1  0.75975984  0.11976813  0.75850501  1
  O  O361  1  0.75842800  0.62074357  0.25495827  1
  O  O362  1  0.74535728  0.61490423  0.75551422  1
  O  O363  1  0.35864054  0.10792190  0.42822097  1
  O  O364  1  0.37827712  0.11131208  0.87359365  1
  O  O365  1  0.36910258  0.62399567  0.36510320  1
  O  O366  1  0.37000678  0.61991050  0.87366327  1
  O  O367  1  0.87145283  0.12333193  0.36526268  1
  O  O368  1  0.86959830  0.11845438  0.86781065  1
  O  O369  1  0.86533576  0.61962258  0.36744374  1
  O  O370  1  0.85913846  0.62683982  0.87426967  1
  O  O371  1  0.12485675  0.38957347  0.12639933  1
  O  O372  1  0.12840605  0.39121999  0.63473906  1
  O  O373  1  0.13126066  0.87601758  0.13323525  1
  O  O374  1  0.13066777  0.87745989  0.63214262  1
  O  O375  1  0.63781188  0.38200668  0.12397308  1
  O  O376  1  0.62653407  0.38304503  0.63384366  1
  O  O377  1  0.64122926  0.86844502  0.12827115  1
  O  O378  1  0.63836950  0.87575609  0.62635684  1
  O  O379  1  0.13173593  0.24583663  0.25658967  1
  O  O380  1  0.12151328  0.25111580  0.75684460  1
  O  O381  1  0.10964569  0.75478719  0.24817605  1
  O  O382  1  0.13110346  0.76018776  0.76344958  1
  O  O383  1  0.61214049  0.24735669  0.25941851  1
  O  O384  1  0.61851129  0.25706383  0.75708835  1
  O  O385  1  0.63237734  0.75316858  0.26636917  1
  O  O386  1  0.61681378  0.75097027  0.75494243  1
  O  O387  1  0.38654923  0.24839842  0.24691999  1
  O  O388  1  0.38792151  0.25001115  0.75078513  1
  O  O389  1  0.36960974  0.73717647  0.25191943  1
  O  O390  1  0.38053728  0.75230005  0.74445894  1
  O  O391  1  0.86873998  0.23330530  0.23991756  1
  O  O392  1  0.87879089  0.24421299  0.74290508  1
  O  O393  1  0.88295891  0.74571323  0.24521110  1
  O  O394  1  0.87395382  0.74847048  0.73481902  1
  O  O395  1  0.37766000  0.49031787  0.49679750  1
  O  O396  1  0.38488411  0.49684294  1.00657596  1
  O  O397  1  0.38602539  0.97986254  0.51666795  1
  O  O398  1  0.37930084  0.99495575  0.99418002  1
  O  O399  1  0.87970045  0.49413980  0.49259477  1
  O  O400  1  0.88175920  0.49193759  0.99768356  1
  O  O401  1  0.88292111  0.99726124  0.49343305  1
  O  O402  1  0.87267206  1.00414670  0.98492714  1
  O  O403  1  0.13101798  0.01174087  -0.00587213  1
  O  O404  1  0.11713779  -0.00409666  0.50990045  1
  O  O405  1  0.11639896  0.49614918  0.01073786  1
  O  O406  1  0.11748622  0.50747655  0.49660614  1
  O  O407  1  0.61284049  -0.00340875  -0.00869826  1
  O  O408  1  0.61607148  0.00746331  0.50147236  1
  O  O409  1  0.62066832  0.50003953  0.01547357  1
  O  O410  1  0.62560157  0.49386525  0.51368410  1
  O  O411  1  0.37282291  0.35721389  0.12371132  1
  O  O412  1  0.36804187  0.37580462  0.61858556  1
  O  O413  1  0.36684150  0.87732677  0.11261464  1
  O  O414  1  0.37010793  0.86309358  0.62017822  1
  O  O415  1  0.86458216  0.37188453  0.11170349  1
  O  O416  1  0.87421480  0.37092759  0.61332307  1
  O  O417  1  0.86542669  0.86286562  0.12777678  1
  O  O418  1  0.86356237  0.86848997  0.62366191  1
  O  O419  1  0.13773778  0.14011030  0.37675562  1
  O  O420  1  0.11750750  0.13017561  0.88885394  1
  O  O421  1  0.13260059  0.62835417  0.37960906  1
  O  O422  1  0.12473357  0.64074724  0.87119497  1
  O  O423  1  0.62860401  0.13558627  0.38024372  1
  O  O424  1  0.63644428  0.13491640  0.86795123  1
  O  O425  1  0.63515016  0.63043395  0.37007352  1
  O  O426  1  0.63544553  0.63817971  0.87132778  1
