# generated using pymatgen
data_V85Zn86O256
_symmetry_space_group_name_H-M   'P 1'
_cell_length_a   16.94129959
_cell_length_b   16.96509093
_cell_length_c   16.95686116
_cell_angle_alpha   89.84614008
_cell_angle_beta   90.01212058
_cell_angle_gamma   89.97825736
_symmetry_Int_Tables_number   1
_chemical_formula_structural   V85Zn86O256
_chemical_formula_sum   'V85 Zn86 O256'
_cell_volume   4873.56510163
_cell_formula_units_Z   1
loop_
 _symmetry_equiv_pos_site_id
 _symmetry_equiv_pos_as_xyz
  1  'x, y, z'
loop_
 _atom_site_type_symbol
 _atom_site_label
 _atom_site_symmetry_multiplicity
 _atom_site_fract_x
 _atom_site_fract_y
 _atom_site_fract_z
 _atom_site_occupancy
  V  V0  1  0.00110093  0.37733187  0.87538354  1
  V  V1  1  0.74979095  0.24949354  0.00386220  1
  V  V2  1  0.62959985  0.62273257  -0.00337585  1
  V  V3  1  0.50232106  0.88153715  0.88184581  1
  V  V4  1  0.53097396  0.71445818  0.29067316  1
  V  V5  1  0.75534409  0.37167809  0.13073688  1
  V  V6  1  0.87739855  0.75365821  0.61236840  1
  V  V7  1  0.25261760  0.24659392  0.50859098  1
  V  V8  1  0.74283381  0.24491612  0.49183797  1
  V  V9  1  0.86435913  0.61932520  0.25657253  1
  V  V10  1  0.61485654  0.11884253  -0.00204016  1
  V  V11  1  0.12716316  0.25169948  0.38072145  1
  V  V12  1  -0.00570215  0.25088142  0.74982097  1
  V  V13  1  0.36850432  0.75895920  0.61820076  1
  V  V14  1  0.74876503  0.37495504  0.62417862  1
  V  V15  1  0.87926055  0.87489606  0.00092936  1
  V  V16  1  0.87676525  0.37075992  0.00306279  1
  V  V17  1  0.48335230  -0.00145786  0.49690895  1
  V  V18  1  0.24660043  -0.00950735  0.75912171  1
  V  V19  1  0.36344915  0.11253167  0.26488696  1
  V  V20  1  0.48832582  0.12592103  0.12433253  1
  V  V21  1  0.61270267  -0.00436750  0.12432718  1
  V  V22  1  0.87650477  0.62624105  0.74690136  1
  V  V23  1  -0.00177892  0.22919080  0.24506267  1
  V  V24  1  -0.00050341  0.62467500  0.12796821  1
  V  V25  1  0.00749925  0.88012911  0.87533213  1
  V  V26  1  0.12139205  0.37430535  0.25282567  1
  V  V27  1  0.13078712  0.62728451  0.49543844  1
  V  V28  1  0.37472250  0.37023262  0.50855258  1
  V  V29  1  0.50190887  0.62923935  0.62108727  1
  V  V30  1  0.62459602  0.24914338  0.87274864  1
  V  V31  1  0.12676818  0.75241703  0.87492415  1
  V  V32  1  0.87099301  0.24361199  0.62579557  1
  V  V33  1  0.12168825  -0.00814367  0.63519746  1
  V  V34  1  0.00880714  0.62138134  0.62438340  1
  V  V35  1  0.75174728  0.87527496  0.61993179  1
  V  V36  1  0.50146325  0.62667323  0.12017238  1
  V  V37  1  0.25422676  0.36912774  0.12710992  1
  V  V38  1  0.73321364  0.74680107  0.49349111  1
  V  V39  1  0.12446877  0.12429771  0.50433604  1
  V  V40  1  -0.00373175  0.12436202  0.62961231  1
  V  V41  1  0.87411288  0.37735379  0.49845553  1
  V  V42  1  0.12722377  0.49903784  0.12568576  1
  V  V43  1  0.74278968  -0.00499628  0.74772698  1
  V  V44  1  0.47776843  0.88145926  0.37559569  1
  V  V45  1  0.75094294  0.50127282  0.74801278  1
  V  V46  1  0.75222354  0.62683438  0.87198512  1
  V  V47  1  0.62353315  0.37538996  0.74924423  1
  V  V48  1  0.25036750  0.62387316  0.87720392  1
  V  V49  1  0.62307843  0.87688647  0.26494915  1
  V  V50  1  0.00370034  0.50131988  0.49748210  1
  V  V51  1  0.62503932  0.50788201  0.62190592  1
  V  V52  1  0.49170031  0.25037118  0.74495733  1
  V  V53  1  -0.05112958  0.05520156  0.04904942  1
  V  V54  1  0.63241953  0.49549163  0.12844367  1
  V  V55  1  0.50112870  0.50272053  0.49822709  1
  V  V56  1  0.13020454  0.24577050  0.87440831  1
  V  V57  1  0.13574354  0.00394314  0.12234967  1
  V  V58  1  0.25197387  0.62718952  0.37074736  1
  V  V59  1  0.37728369  0.62754652  0.75003281  1
  V  V60  1  0.24782281  0.86524208  0.12871263  1
  V  V61  1  0.87687600  0.00298548  0.86636664  1
  V  V62  1  0.50122354  0.36408577  0.37773021  1
  V  V63  1  0.50306613  0.49573748  -0.00203685  1
  V  V64  1  0.36451319  0.12680277  0.75286213  1
  V  V65  1  0.62091582  -0.00520488  0.62148170  1
  V  V66  1  0.00147285  0.75600179  0.74906226  1
  V  V67  1  0.01070542  0.75383102  0.25713431  1
  V  V68  1  0.50319785  0.76068256  0.74756899  1
  V  V69  1  0.25196940  0.24239956  -0.00152857  1
  V  V70  1  -0.00107537  0.87189539  0.38864099  1
  V  V71  1  0.62958291  0.36460993  0.25639340  1
  V  V72  1  0.37504291  0.00324445  0.88474175  1
  V  V73  1  0.75100446  0.12536610  0.86513079  1
  V  V74  1  0.24590954  0.50297491  0.74222184  1
  V  V75  1  0.87598221  0.00838346  0.37474453  1
  V  V76  1  0.74786179  0.87373615  0.12870562  1
  V  V77  1  0.00031308  0.49866205  0.00176975  1
  V  V78  1  0.49982958  0.37500227  0.87457295  1
  V  V79  1  0.62834389  0.75760634  0.86877227  1
  V  V80  1  0.87664866  0.75068929  0.12968426  1
  V  V81  1  0.12358340  0.38054873  0.74267550  1
  V  V82  1  0.48850656  0.24856279  0.24773034  1
  V  V83  1  0.49575917  0.12695184  0.62333402  1
  V  V84  1  0.37586360  0.36987524  0.00402961  1
  Zn  Zn85  1  0.71486870  0.62926643  0.37242074  1
  Zn  Zn86  1  0.24827084  0.87806872  0.62391143  1
  Zn  Zn87  1  0.12526865  0.11974792  -0.00300939  1
  Zn  Zn88  1  -0.00710847  -0.00664340  0.50712122  1
  Zn  Zn89  1  0.75316119  0.74987988  -0.00357962  1
  Zn  Zn90  1  0.25915122  0.74831093  -0.00066542  1
  Zn  Zn91  1  0.16764796  0.91481447  0.28652252  1
  Zn  Zn92  1  0.25017918  0.37729903  0.62480904  1
  Zn  Zn93  1  0.87573550  0.50140383  0.87529353  1
  Zn  Zn94  1  0.25429979  0.49688196  0.25167693  1
  Zn  Zn95  1  0.61990561  0.12450679  0.48824096  1
  Zn  Zn96  1  0.12572888  0.62552931  0.00138348  1
  Zn  Zn97  1  0.74565807  0.13142461  0.35371929  1
  Zn  Zn98  1  0.75592878  0.00629099  0.24869149  1
  Zn  Zn99  1  0.37526722  0.49988587  0.87468273  1
  Zn  Zn100  1  0.38488065  0.74936308  0.12771830  1
  Zn  Zn101  1  0.37433184  0.49571146  0.37284061  1
  Zn  Zn102  1  0.24586549  0.76781737  0.48131877  1
  Zn  Zn103  1  0.37965690  0.87430098  0.00574512  1
  Zn  Zn104  1  0.37944078  0.61874254  0.24725386  1
  Zn  Zn105  1  -0.00335876  0.37726718  0.37261309  1
  Zn  Zn106  1  0.85517897  0.50129475  0.37475267  1
  Zn  Zn107  1  0.18376952  0.18858974  0.18781309  1
  Zn  Zn108  1  0.18449551  0.18932754  0.68718551  1
  Zn  Zn109  1  0.18952193  0.68556592  0.18806439  1
  Zn  Zn110  1  0.18578186  0.68929794  0.69039733  1
  Zn  Zn111  1  0.68082079  0.18527472  0.18821396  1
  Zn  Zn112  1  0.68164709  0.18493422  0.68315182  1
  Zn  Zn113  1  0.68655553  0.68976416  0.18501326  1
  Zn  Zn114  1  0.68829030  0.69123278  0.68472351  1
  Zn  Zn115  1  0.31030011  0.30931329  0.31924352  1
  Zn  Zn116  1  0.31218374  0.31561719  0.81362474  1
  Zn  Zn117  1  0.32775207  0.79693477  0.30054827  1
  Zn  Zn118  1  0.31633023  0.81461306  0.81398881  1
  Zn  Zn119  1  0.82041828  0.30743402  0.31110483  1
  Zn  Zn120  1  0.81333790  0.31482384  0.81420624  1
  Zn  Zn121  1  0.81505975  0.81504499  0.31765618  1
  Zn  Zn122  1  0.81524758  0.81611658  0.80672651  1
  Zn  Zn123  1  0.18813797  0.44167656  0.43907793  1
  Zn  Zn124  1  0.18875722  0.43567986  0.93541756  1
  Zn  Zn125  1  0.19185892  0.94908348  0.44729713  1
  Zn  Zn126  1  0.19193465  0.93645989  0.94503152  1
  Zn  Zn127  1  0.68628820  0.43893086  0.43532745  1
  Zn  Zn128  1  0.69052055  0.43733554  0.93627280  1
  Zn  Zn129  1  0.69082098  0.94419601  0.44135495  1
  Zn  Zn130  1  0.68927623  0.93708501  0.93912616  1
  Zn  Zn131  1  0.30957425  0.05808504  0.06743170  1
  Zn  Zn132  1  0.30850842  0.06453573  0.57023838  1
  Zn  Zn133  1  0.31508636  0.55736301  0.06171691  1
  Zn  Zn134  1  0.31632249  0.56503045  0.55980026  1
  Zn  Zn135  1  0.78605699  0.06898178  0.07077084  1
  Zn  Zn136  1  0.81559364  0.06078285  0.55655812  1
  Zn  Zn137  1  0.81368168  0.56034827  0.06381252  1
  Zn  Zn138  1  0.81232539  0.56786921  0.55730948  1
  Zn  Zn139  1  0.43993867  0.43789582  0.18744735  1
  Zn  Zn140  1  0.43587927  0.44079915  0.68638312  1
  Zn  Zn141  1  0.43311263  0.93688590  0.19267201  1
  Zn  Zn142  1  0.43545878  0.94122753  0.69249684  1
  Zn  Zn143  1  0.93709492  0.43635417  0.18921984  1
  Zn  Zn144  1  0.93707382  0.43879010  0.68289176  1
  Zn  Zn145  1  0.94224529  0.94011065  0.19606831  1
  Zn  Zn146  1  0.93232342  0.93622695  0.68974415  1
  Zn  Zn147  1  0.08167134  0.05396702  0.32220521  1
  Zn  Zn148  1  0.06120459  0.06678443  0.81313087  1
  Zn  Zn149  1  0.06181554  0.56432801  0.31409317  1
  Zn  Zn150  1  0.06364986  0.56445907  0.81346625  1
  Zn  Zn151  1  0.56203987  0.06295031  0.31268464  1
  Zn  Zn152  1  0.56055061  0.06270071  0.80904144  1
  Zn  Zn153  1  0.56619819  0.54455532  0.31140822  1
  Zn  Zn154  1  0.56339094  0.56593990  0.81044037  1
  Zn  Zn155  1  0.43389940  0.18653434  0.43752341  1
  Zn  Zn156  1  0.43543662  0.18885253  0.93458905  1
  Zn  Zn157  1  0.43269083  0.68584549  0.44048796  1
  Zn  Zn158  1  0.43993336  0.69003472  0.93834841  1
  Zn  Zn159  1  0.94100101  0.18872240  0.43532389  1
  Zn  Zn160  1  0.93268549  0.19292801  0.93031560  1
  Zn  Zn161  1  0.93669196  0.68642799  0.43668547  1
  Zn  Zn162  1  0.93902368  0.68804831  0.93916430  1
  Zn  Zn163  1  0.06453428  0.30699191  0.06660054  1
  Zn  Zn164  1  0.06083302  0.31498675  0.56367092  1
  Zn  Zn165  1  0.06461748  0.81318024  0.06119712  1
  Zn  Zn166  1  0.06999382  0.81038096  0.56235150  1
  Zn  Zn167  1  0.56371010  0.30715818  0.06602694  1
  Zn  Zn168  1  0.56268165  0.31373789  0.56455027  1
  Zn  Zn169  1  0.56835926  0.81109215  0.05653192  1
  Zn  Zn170  1  0.55858364  0.82011924  0.55890919  1
  O  O171  1  0.13420619  0.10890851  0.11986423  1
  O  O172  1  0.11382428  0.12170587  0.62328751  1
  O  O173  1  0.12162531  0.61410284  0.12310447  1
  O  O174  1  0.11326152  0.62711003  0.62330426  1
  O  O175  1  0.61484143  0.11483903  0.11609616  1
  O  O176  1  0.61178213  0.11402357  0.62363621  1
  O  O177  1  0.62590078  0.61318589  0.11810820  1
  O  O178  1  0.62004360  0.61384471  0.63073581  1
  O  O179  1  0.38291643  0.37447058  0.38756957  1
  O  O180  1  0.38387775  0.37851751  0.88147447  1
  O  O181  1  0.37948157  0.87660659  0.36960075  1
  O  O182  1  0.38552167  0.88399226  0.87634423  1
  O  O183  1  0.87389257  0.37992622  0.38722092  1
  O  O184  1  0.88211934  0.37815571  0.88406120  1
  O  O185  1  0.89065375  0.88081817  0.37129147  1
  O  O186  1  0.88027001  0.88301344  0.88202580  1
  O  O187  1  0.18395935  0.00475203  0.35423074  1
  O  O188  1  0.25899305  -0.00343899  0.86990643  1
  O  O189  1  0.25291680  0.51013175  0.37288603  1
  O  O190  1  0.25207480  0.50801355  0.86521718  1
  O  O191  1  0.76576512  -0.00164813  0.37366734  1
  O  O192  1  0.75351058  0.00502490  0.86680999  1
  O  O193  1  0.74204555  0.51883318  0.38341159  1
  O  O194  1  0.75158815  0.50753352  0.86587534  1
  O  O195  1  0.24219213  0.48890477  0.12479495  1
  O  O196  1  0.25617533  0.50243079  0.63898344  1
  O  O197  1  0.24193842  0.98628023  0.12753080  1
  O  O198  1  0.23848815  1.00064271  0.63810784  1
  O  O199  1  0.74059492  0.48808974  0.11959634  1
  O  O200  1  0.74277679  0.49678015  0.62633012  1
  O  O201  1  0.73779522  0.98508957  0.12633632  1
  O  O202  1  0.74464122  0.99543347  0.62834384  1
  O  O203  1  0.01301609  0.37478879  0.25065632  1
  O  O204  1  0.00532774  0.37274121  0.75339982  1
  O  O205  1  -0.00322787  0.85543786  0.24905390  1
  O  O206  1  -0.00819915  0.86273437  0.76028735  1
  O  O207  1  0.50485368  0.36689182  0.25751453  1
  O  O208  1  0.50232097  0.36865485  0.75239913  1
  O  O209  1  0.50526979  0.87935573  0.26731135  1
  O  O210  1  0.49690831  0.86434376  0.75826038  1
  O  O211  1  0.49082564  0.13101381  0.24314967  1
  O  O212  1  0.49331104  0.13373625  0.74371353  1
  O  O213  1  0.50644116  0.61730711  0.23558404  1
  O  O214  1  0.49303557  0.63384832  0.74391927  1
  O  O215  1  1.01367217  0.13180153  0.26225076  1
  O  O216  1  1.00079266  0.13858394  0.74075217  1
  O  O217  1  0.98996302  0.63353286  0.24626761  1
  O  O218  1  0.99570382  0.63167268  0.74333742  1
  O  O219  1  0.36842932  0.26230447  -0.00634736  1
  O  O220  1  0.36427006  0.25615529  0.49831842  1
  O  O221  1  0.37737555  0.75298903  0.00603941  1
  O  O222  1  0.36778703  0.74674502  0.51631344  1
  O  O223  1  0.86563702  0.26185560  -0.00496414  1
  O  O224  1  0.86789000  0.25750325  0.50783614  1
  O  O225  1  0.87474059  0.75622722  0.01222926  1
  O  O226  1  0.86948058  0.74596676  0.51076763  1
  O  O227  1  0.12876316  0.24786281  0.49941187  1
  O  O228  1  0.13360259  0.25069598  0.99089327  1
  O  O229  1  0.13123872  0.73267807  0.50702456  1
  O  O230  1  0.12565534  0.74570229  0.98611505  1
  O  O231  1  0.64040052  0.25085644  0.50633195  1
  O  O232  1  0.63127750  0.24405529  0.99118630  1
  O  O233  1  0.63486037  0.75141571  0.50715394  1
  O  O234  1  0.63147777  0.74122477  0.98660327  1
  O  O235  1  0.50153457  0.23838296  0.13404772  1
  O  O236  1  0.50552364  0.24155306  0.63510091  1
  O  O237  1  0.51005091  0.72942347  0.11233577  1
  O  O238  1  0.49238019  0.74947719  0.62995693  1
  O  O239  1  1.01422405  0.24368646  0.14480187  1
  O  O240  1  0.99101236  0.24727128  0.63206851  1
  O  O241  1  0.99365958  0.74461305  0.13140100  1
  O  O242  1  0.99514264  0.74616601  0.63206573  1
  O  O243  1  0.01173981  0.25748672  0.37266657  1
  O  O244  1  0.00397092  0.25811313  0.86571486  1
  O  O245  1  -0.00882371  0.75636714  0.36441932  1
  O  O246  1  0.00493606  0.75605432  0.86823441  1
  O  O247  1  0.49906683  0.25865133  0.36946502  1
  O  O248  1  0.50597642  0.25598710  0.86549573  1
  O  O249  1  0.49502972  0.76487809  0.38040575  1
  O  O250  1  0.50964879  0.75593629  0.86655754  1
  O  O251  1  0.23781680  0.13340551  0.51084927  1
  O  O252  1  0.25347023  0.14011300  1.00494219  1
  O  O253  1  0.24524451  0.62317336  0.48966965  1
  O  O254  1  0.25114293  0.62252361  0.98671984  1
  O  O255  1  0.74821909  0.14115066  0.50672795  1
  O  O256  1  0.73751542  0.13343309  0.99004220  1
  O  O257  1  0.74625107  0.64335126  0.50275359  1
  O  O258  1  0.74794156  0.62525465  0.99052643  1
  O  O259  1  0.25855607  0.37065654  0.00597795  1
  O  O260  1  0.25797571  0.37142162  0.50371516  1
  O  O261  1  0.25762887  0.86906655  0.01245512  1
  O  O262  1  0.23901462  0.87507844  0.51055300  1
  O  O263  1  0.75693150  0.36777555  0.00428458  1
  O  O264  1  0.75459124  0.36571340  0.50586852  1
  O  O265  1  0.76342222  0.87405081  0.00572667  1
  O  O266  1  0.74510920  0.86491447  0.51248802  1
  O  O267  1  0.12563401  0.49337106  0.24052830  1
  O  O268  1  0.13368114  0.49323099  0.75555567  1
  O  O269  1  0.10212483  0.98813735  0.21969854  1
  O  O270  1  0.13611251  1.01062759  0.74762242  1
  O  O271  1  0.62275630  0.47929798  0.23690497  1
  O  O272  1  0.62993307  0.49523985  0.74265637  1
  O  O273  1  0.62551803  0.98986272  0.23973940  1
  O  O274  1  0.63631053  1.00482929  0.74202239  1
  O  O275  1  0.37288745  0.01351648  0.25110910  1
  O  O276  1  0.36531024  0.00832321  0.75801722  1
  O  O277  1  0.37342634  0.50023284  0.25326835  1
  O  O278  1  0.37166262  0.51379018  0.75185990  1
  O  O279  1  0.87541231  -0.00413813  0.26693418  1
  O  O280  1  0.86112319  -0.00178214  0.76002369  1
  O  O281  1  0.87661151  0.51598698  0.24999161  1
  O  O282  1  0.86934638  0.50805582  0.74897955  1
  O  O283  1  0.12363133  0.37191206  0.36836619  1
  O  O284  1  0.11892719  0.36776597  0.86637032  1
  O  O285  1  0.10057830  0.86614426  0.37025044  1
  O  O286  1  0.11395864  0.87002698  0.88061237  1
  O  O287  1  0.61738180  0.37517457  0.36594098  1
  O  O288  1  0.62071539  0.36981114  0.86836053  1
  O  O289  1  0.62685996  0.87997047  0.36552151  1
  O  O290  1  0.62168932  0.86520522  0.87726872  1
  O  O291  1  0.38672785  0.11991043  0.12606778  1
  O  O292  1  0.38813795  0.12024332  0.63752138  1
  O  O293  1  0.38913441  0.62028397  0.12263740  1
  O  O294  1  0.38050968  0.63540621  0.63294520  1
  O  O295  1  0.88685653  0.10725390  0.10641356  1
  O  O296  1  0.87778363  0.13728265  0.62428291  1
  O  O297  1  0.87672460  0.63231219  0.13315544  1
  O  O298  1  0.88477023  0.63342600  0.62896676  1
  O  O299  1  0.24081213  0.26412969  0.11500184  1
  O  O300  1  0.24373827  0.25668611  0.61374120  1
  O  O301  1  0.25373106  0.75341319  0.12149414  1
  O  O302  1  0.26372719  0.75264159  0.63477405  1
  O  O303  1  0.74239800  0.25611239  0.10944410  1
  O  O304  1  0.75559876  0.25524576  0.62244397  1
  O  O305  1  0.75606804  0.76021551  0.12155742  1
  O  O306  1  0.75723957  0.75769088  0.62005416  1
  O  O307  1  0.23512258  0.25570978  0.39052014  1
  O  O308  1  0.24066063  0.25887078  0.88419289  1
  O  O309  1  0.25877045  0.73339268  0.37153931  1
  O  O310  1  0.24332322  0.74342784  0.87284011  1
  O  O311  1  0.75699622  0.24826563  0.38954221  1
  O  O312  1  0.74611357  0.24317484  0.88009783  1
  O  O313  1  0.74882385  0.74896291  0.38950499  1
  O  O314  1  0.74504973  0.74690757  0.87090041  1
  O  O315  1  0.00217752  0.12391222  -0.00662547  1
  O  O316  1  0.00262520  0.12887141  0.51798358  1
  O  O317  1  -0.00028309  0.61741267  0.00907213  1
  O  O318  1  0.00615158  0.62086773  0.50512127  1
  O  O319  1  0.50939856  0.13377511  0.00590195  1
  O  O320  1  0.49911673  0.12045995  0.50817248  1
  O  O321  1  0.50965989  0.61376324  0.00013225  1
  O  O322  1  0.49516660  0.61432540  0.50786818  1
  O  O323  1  0.49469820  0.37607364  0.49510194  1
  O  O324  1  0.49559273  0.37556818  0.99703874  1
  O  O325  1  0.49812625  0.88386304  0.48511738  1
  O  O326  1  0.50187883  0.87374214  0.98598167  1
  O  O327  1  0.99104996  0.38405083  0.50184729  1
  O  O328  1  0.99333236  0.37550167  0.99878157  1
  O  O329  1  1.00075307  0.87026503  0.49255312  1
  O  O330  1  0.98726138  0.86824134  0.99014252  1
  O  O331  1  0.49979220  0.48492499  0.38471432  1
  O  O332  1  0.50299625  0.49324130  0.88068069  1
  O  O333  1  0.49756070  0.98928406  0.38314251  1
  O  O334  1  0.49211849  0.99040174  0.86529326  1
  O  O335  1  0.99556304  0.50008800  0.38759772  1
  O  O336  1  0.99957770  0.49528360  0.88320161  1
  O  O337  1  0.99362892  0.98713064  0.37995327  1
  O  O338  1  0.99072604  0.99187148  0.86604510  1
  O  O339  1  0.00163022  -0.00765101  0.10969075  1
  O  O340  1  0.00121435  0.00934395  0.63315175  1
  O  O341  1  0.00723241  0.50392019  0.12142865  1
  O  O342  1  -0.00680427  0.51131933  0.61240873  1
  O  O343  1  0.50772981  0.00433231  0.12739209  1
  O  O344  1  0.50475354  0.00364007  0.62122293  1
  O  O345  1  0.51311118  0.50256649  0.11556987  1
  O  O346  1  0.50698765  0.50698042  0.62034437  1
  O  O347  1  0.24024240  0.37211439  0.24346847  1
  O  O348  1  0.24323300  0.38496182  0.74910090  1
  O  O349  1  0.25169155  0.85875505  0.23634758  1
  O  O350  1  0.25338395  0.88756879  0.74791902  1
  O  O351  1  0.74466862  0.36177537  0.24132363  1
  O  O352  1  0.74524732  0.38095774  0.74381837  1
  O  O353  1  0.74128685  0.87237825  0.24269807  1
  O  O354  1  0.75079141  0.88385539  0.73678972  1
  O  O355  1  0.26762136  0.13594713  0.24310365  1
  O  O356  1  0.26167101  0.12443562  0.74588452  1
  O  O357  1  0.25321581  0.62096942  0.25946532  1
  O  O358  1  0.25619518  0.62138203  0.75850273  1
  O  O359  1  0.75297823  0.12089836  0.23946453  1
  O  O360  1  0.74392247  0.12089305  0.76077781  1
  O  O361  1  0.76133398  0.63361396  0.25204918  1
  O  O362  1  0.75672661  0.62150496  0.75217699  1
  O  O363  1  0.37327801  0.12564328  0.36450212  1
  O  O364  1  0.38342577  0.11560720  0.86428963  1
  O  O365  1  0.36493619  0.61787607  0.37596556  1
  O  O366  1  0.36969086  0.62522703  0.86653970  1
  O  O367  1  0.87485449  0.11204901  0.38038964  1
  O  O368  1  0.86322298  0.11514567  0.87955318  1
  O  O369  1  0.87569144  0.62485662  0.36020710  1
  O  O370  1  0.86848695  0.62606389  0.86759336  1
  O  O371  1  0.13129079  0.38189189  0.13178984  1
  O  O372  1  0.12419884  0.37522807  0.63939441  1
  O  O373  1  0.14084489  0.87738137  0.11759053  1
  O  O374  1  0.11714446  0.88910945  0.63258807  1
  O  O375  1  0.63634376  0.37793787  0.12754756  1
  O  O376  1  0.62883683  0.38529650  0.63191334  1
  O  O377  1  0.62971653  0.87959492  0.12713588  1
  O  O378  1  0.62962774  0.88796974  0.62467478  1
  O  O379  1  0.12222364  0.25646556  0.26237187  1
  O  O380  1  0.11596466  0.25872329  0.75546772  1
  O  O381  1  0.10863062  0.74129731  0.24834048  1
  O  O382  1  0.11415913  0.74585187  0.76271102  1
  O  O383  1  0.61157818  0.26050908  0.24280794  1
  O  O384  1  0.61643400  0.25518175  0.75387393  1
  O  O385  1  0.61106437  0.76197223  0.23907316  1
  O  O386  1  0.61556914  0.74527899  0.75702960  1
  O  O387  1  0.38567920  0.24926672  0.25375281  1
  O  O388  1  0.38437508  0.24427237  0.75647835  1
  O  O389  1  0.40910714  0.73483215  0.24765011  1
  O  O390  1  0.38310859  0.74191310  0.74599500  1
  O  O391  1  0.89922344  0.24891907  0.25690314  1
  O  O392  1  0.88582323  0.25963335  0.74193929  1
  O  O393  1  0.87792716  0.74237396  0.24037245  1
  O  O394  1  0.88264589  0.74312514  0.74216054  1
  O  O395  1  0.38756911  0.49118261  0.50140251  1
  O  O396  1  0.38370368  0.48710136  0.99658260  1
  O  O397  1  0.38433636  1.00429393  0.50879156  1
  O  O398  1  0.37271151  1.00075899  0.98778994  1
  O  O399  1  0.87916016  0.49243712  0.49994995  1
  O  O400  1  0.88035565  0.48728555  0.99990059  1
  O  O401  1  0.87832768  0.99743049  0.48734737  1
  O  O402  1  0.87800818  0.99565421  0.99154921  1
  O  O403  1  0.12571289  0.00135912  0.01262435  1
  O  O404  1  0.11346034  0.01121567  0.51893659  1
  O  O405  1  0.11982032  0.49761006  0.00992603  1
  O  O406  1  0.11589597  0.51135635  0.50090693  1
  O  O407  1  0.62992583  0.00971723  0.00728273  1
  O  O408  1  0.61531783  0.00243475  0.50894895  1
  O  O409  1  0.62259128  0.50243895  0.00518734  1
  O  O410  1  0.61081944  0.49137507  0.51084084  1
  O  O411  1  0.36686054  0.37797274  0.11649614  1
  O  O412  1  0.37601119  0.37668734  0.61310981  1
  O  O413  1  0.36566762  0.87213275  0.12649138  1
  O  O414  1  0.37649337  0.86071006  0.63232001  1
  O  O415  1  0.86343915  0.37761648  0.11987397  1
  O  O416  1  0.86951950  0.36700446  0.61564804  1
  O  O417  1  0.86924880  0.87006032  0.12072023  1
  O  O418  1  0.86592300  0.86524245  0.62834505  1
  O  O419  1  0.11298805  0.13877047  0.39938655  1
  O  O420  1  0.12107591  0.14182593  0.87619115  1
  O  O421  1  0.13861861  0.62131661  0.38183018  1
  O  O422  1  0.13412621  0.63249726  0.87666155  1
  O  O423  1  0.63363733  0.11810664  0.37652181  1
  O  O424  1  0.62838155  0.12814563  0.88044679  1
  O  O425  1  0.59851323  0.64686042  0.34884715  1
  O  O426  1  0.63433452  0.63326369  0.87569935  1
