# generated using pymatgen
data_V85Zn86O256
_symmetry_space_group_name_H-M   'P 1'
_cell_length_a   16.92823760
_cell_length_b   16.92444351
_cell_length_c   16.91899622
_cell_angle_alpha   89.94135338
_cell_angle_beta   89.97253463
_cell_angle_gamma   90.05375424
_symmetry_Int_Tables_number   1
_chemical_formula_structural   V85Zn86O256
_chemical_formula_sum   'V85 Zn86 O256'
_cell_volume   4847.30412073
_cell_formula_units_Z   1
loop_
 _symmetry_equiv_pos_site_id
 _symmetry_equiv_pos_as_xyz
  1  'x, y, z'
loop_
 _atom_site_type_symbol
 _atom_site_label
 _atom_site_symmetry_multiplicity
 _atom_site_fract_x
 _atom_site_fract_y
 _atom_site_fract_z
 _atom_site_occupancy
  V  V0  1  0.00006380  0.62105963  0.12460600  1
  V  V1  1  0.50048383  0.24870962  0.74989987  1
  V  V2  1  0.24918467  0.24927648  0.49832478  1
  V  V3  1  0.36931767  0.63165563  0.25447227  1
  V  V4  1  0.75228963  0.50088988  0.74953772  1
  V  V5  1  0.87501102  0.01011715  0.37012518  1
  V  V6  1  0.24286614  0.50445651  0.25366418  1
  V  V7  1  0.87474673  0.37512102  0.00197292  1
  V  V8  1  0.37040324  0.50587798  0.37500514  1
  V  V9  1  0.74210795  0.63354931  0.38755020  1
  V  V10  1  0.62147329  0.87513117  0.74987271  1
  V  V11  1  -0.00071702  0.87503518  0.37331618  1
  V  V12  1  0.24979935  0.37562756  0.62641760  1
  V  V13  1  0.49598569  0.24747221  0.25424297  1
  V  V14  1  0.50282204  0.62721562  0.12702685  1
  V  V15  1  0.62935870  0.62462136  -0.00330104  1
  V  V16  1  0.25160149  0.50985471  0.74873747  1
  V  V17  1  0.36788499  0.74570627  0.63404713  1
  V  V18  1  0.37075772  0.12251963  0.74978058  1
  V  V19  1  0.50250763  0.75198654  0.25549989  1
  V  V20  1  0.00431597  0.75007442  0.74614698  1
  V  V21  1  0.49958738  0.74266112  0.75171124  1
  V  V22  1  0.62736545  -0.00012342  0.12449294  1
  V  V23  1  0.74908154  0.11789308  0.87378987  1
  V  V24  1  -0.00328017  0.00372494  0.50200179  1
  V  V25  1  0.62845444  0.75078847  0.87309729  1
  V  V26  1  0.37142210  0.87890948  0.51277563  1
  V  V27  1  0.00129935  0.50122246  -0.00090381  1
  V  V28  1  0.16989254  0.55977661  0.06551668  1
  V  V29  1  0.13030330  0.62374733  0.49630800  1
  V  V30  1  0.88153069  0.25505566  0.63435034  1
  V  V31  1  0.62250652  0.37500976  0.25395189  1
  V  V32  1  0.49820745  0.12377443  0.13076921  1
  V  V33  1  0.50049012  0.00546549  0.50260601  1
  V  V34  1  0.12803544  -0.01217672  0.62288001  1
  V  V35  1  0.00425799  0.87238165  0.87020790  1
  V  V36  1  0.25286857  0.12563360  0.36728005  1
  V  V37  1  0.62775542  0.00285439  0.61912232  1
  V  V38  1  0.11980234  0.37653916  0.24412628  1
  V  V39  1  0.73766217  0.12546189  0.38211822  1
  V  V40  1  0.87110738  0.50303850  0.87537465  1
  V  V41  1  0.50449363  0.49795416  0.00011543  1
  V  V42  1  0.00219640  0.75042484  0.24829888  1
  V  V43  1  0.11894190  0.25051806  0.37168358  1
  V  V44  1  -0.00757203  0.37166299  0.37294656  1
  V  V45  1  0.37200421  0.24642350  0.12951362  1
  V  V46  1  0.37466148  0.00069136  0.36959211  1
  V  V47  1  0.75302722  0.26692772  0.50827457  1
  V  V48  1  0.11982853  0.36768344  0.74986205  1
  V  V49  1  0.13249107  0.74828099  0.37328364  1
  V  V50  1  0.75070287  0.37549167  0.12986834  1
  V  V51  1  0.63006545  0.87419224  0.25341467  1
  V  V52  1  0.24563198  -0.01618922  0.74928337  1
  V  V53  1  0.24978213  0.88002281  0.11056239  1
  V  V54  1  0.87101168  0.50091737  0.37618922  1
  V  V55  1  0.62714296  0.25043865  0.87480659  1
  V  V56  1  0.50040660  0.37381742  0.87416723  1
  V  V57  1  0.87728771  0.24147321  0.14064691  1
  V  V58  1  0.50297046  0.50394418  0.49826483  1
  V  V59  1  0.37341845  0.37840023  0.49883213  1
  V  V60  1  -0.00451225  0.62671440  0.62198692  1
  V  V61  1  0.75072529  0.24634711  0.00197934  1
  V  V62  1  0.37697097  0.50686425  0.86882068  1
  V  V63  1  0.25458204  0.12324084  0.87427558  1
  V  V64  1  0.24910530  0.75435534  0.50370887  1
  V  V65  1  0.75231868  0.74664435  -0.00599601  1
  V  V66  1  0.50437385  0.12513818  0.62474752  1
  V  V67  1  0.00427169  0.12339566  0.13980559  1
  V  V68  1  0.37343601  0.75757752  0.10922615  1
  V  V69  1  0.74865169  -0.00113796  0.74842390  1
  V  V70  1  0.92112305  0.05514262  0.81684866  1
  V  V71  1  0.48837605  -0.00338779  -0.00342340  1
  V  V72  1  -0.00126160  0.49484535  0.49869539  1
  V  V73  1  0.63143740  0.37464316  0.74425681  1
  V  V74  1  0.24642411  0.24850026  -0.00056611  1
  V  V75  1  0.00078702  0.00281199  0.00687468  1
  V  V76  1  0.49814776  0.62481133  0.62327052  1
  V  V77  1  0.37680762  0.37168735  -0.00038450  1
  V  V78  1  0.87518122  0.87771895  -0.01247524  1
  V  V79  1  0.12698359  0.74061083  0.88629276  1
  V  V80  1  0.86844515  0.86379927  0.50077662  1
  V  V81  1  0.63038855  0.50439544  0.62091336  1
  V  V82  1  0.87462147  0.75182527  0.12383225  1
  V  V83  1  0.87348489  0.62489401  0.74793911  1
  V  V84  1  0.13041868  0.88498488  0.24715364  1
  Zn  Zn85  1  0.62579677  0.75244905  0.39853218  1
  Zn  Zn86  1  0.62610856  0.50094086  0.12715381  1
  Zn  Zn87  1  0.75565314  0.01344485  0.24572338  1
  Zn  Zn88  1  0.87031667  0.62748036  0.25289558  1
  Zn  Zn89  1  -0.00470030  0.37061820  0.86863499  1
  Zn  Zn90  1  0.25339598  0.00336904  0.24424276  1
  Zn  Zn91  1  0.74705465  0.50424382  0.25377325  1
  Zn  Zn92  1  0.49891280  0.37490560  0.37619800  1
  Zn  Zn93  1  0.24540278  0.37828344  0.12310065  1
  Zn  Zn94  1  0.37587844  0.25036733  0.62399535  1
  Zn  Zn95  1  0.12620620  0.11875397  0.00521292  1
  Zn  Zn96  1  0.75254153  0.87694964  0.12447762  1
  Zn  Zn97  1  0.50076808  0.87517209  0.38022044  1
  Zn  Zn98  1  0.11514747  0.24487885  0.87143994  1
  Zn  Zn99  1  0.24805599  0.62576820  0.88576296  1
  Zn  Zn100  1  0.12394362  0.12569589  0.50463964  1
  Zn  Zn101  1  0.61889764  0.24650846  0.38876549  1
  Zn  Zn102  1  0.48651688  0.87054683  0.88853972  1
  Zn  Zn103  1  0.74709689  0.85915032  0.61283200  1
  Zn  Zn104  1  0.62402455  0.12247453  0.00131239  1
  Zn  Zn105  1  -0.00312038  0.12659819  0.63843684  1
  Zn  Zn106  1  0.12416584  0.50079026  0.62601554  1
  Zn  Zn107  1  0.18401464  0.18968356  0.18989071  1
  Zn  Zn108  1  0.18346619  0.18400004  0.68237321  1
  Zn  Zn109  1  0.19349665  0.69876024  0.18893540  1
  Zn  Zn110  1  0.18071081  0.68919510  0.68757919  1
  Zn  Zn111  1  0.68615812  0.18658135  0.19518266  1
  Zn  Zn112  1  0.69417330  0.18584940  0.68457572  1
  Zn  Zn113  1  0.69041143  0.68739595  0.18962874  1
  Zn  Zn114  1  0.69240417  0.69281050  0.57720683  1
  Zn  Zn115  1  0.31059537  0.31801411  0.31110938  1
  Zn  Zn116  1  0.31133522  0.31181763  0.81187992  1
  Zn  Zn117  1  0.31312114  0.81812089  0.31611782  1
  Zn  Zn118  1  0.31133921  0.80777020  0.82169264  1
  Zn  Zn119  1  0.80877801  0.30924947  0.31904868  1
  Zn  Zn120  1  0.81462643  0.31296777  0.81210141  1
  Zn  Zn121  1  0.81291875  0.81317925  0.31513153  1
  Zn  Zn122  1  0.77769495  0.76955039  0.76092360  1
  Zn  Zn123  1  0.18485308  0.43732324  0.43401583  1
  Zn  Zn124  1  0.19234722  0.43083574  0.92999362  1
  Zn  Zn125  1  0.18805525  0.93680389  0.43809313  1
  Zn  Zn126  1  0.18357907  0.93614261  0.93279897  1
  Zn  Zn127  1  0.68647750  0.43757235  0.43660314  1
  Zn  Zn128  1  0.69095737  0.43713261  0.93548009  1
  Zn  Zn129  1  0.68789885  0.93900705  0.43629346  1
  Zn  Zn130  1  0.68343961  0.93448437  0.93754781  1
  Zn  Zn131  1  0.31332209  0.06404152  0.06467631  1
  Zn  Zn132  1  0.31137701  0.06498469  0.56479481  1
  Zn  Zn133  1  0.33278780  0.56231746  0.06462195  1
  Zn  Zn134  1  0.31151532  0.56617468  0.56287364  1
  Zn  Zn135  1  0.81639225  0.06147582  0.06139734  1
  Zn  Zn136  1  0.81716667  0.06850689  0.56368915  1
  Zn  Zn137  1  0.81290960  0.56402113  0.06360760  1
  Zn  Zn138  1  0.81556186  0.55535745  0.56113746  1
  Zn  Zn139  1  0.43579192  0.43675071  0.18802996  1
  Zn  Zn140  1  0.43784300  0.43716882  0.68744001  1
  Zn  Zn141  1  0.43924807  0.93403803  0.18666781  1
  Zn  Zn142  1  0.41425355  0.91634746  0.72486082  1
  Zn  Zn143  1  0.93501892  0.43832511  0.19039752  1
  Zn  Zn144  1  0.93544541  0.43366651  0.68070966  1
  Zn  Zn145  1  0.93712691  0.93650330  0.18700252  1
  Zn  Zn146  1  0.94011705  0.92802098  0.67997074  1
  Zn  Zn147  1  0.06437016  0.06377060  0.31729221  1
  Zn  Zn148  1  0.08379031  0.05729450  0.81671798  1
  Zn  Zn149  1  0.06028309  0.56376169  0.31232639  1
  Zn  Zn150  1  0.06350876  0.55893977  0.81204879  1
  Zn  Zn151  1  0.56231512  0.06075924  0.31183504  1
  Zn  Zn152  1  0.56314583  0.06268919  0.81292582  1
  Zn  Zn153  1  0.56407952  0.56380222  0.31446003  1
  Zn  Zn154  1  0.56651055  0.56437269  0.81180252  1
  Zn  Zn155  1  0.43403332  0.18563621  0.43810159  1
  Zn  Zn156  1  0.43643913  0.18178291  0.93934260  1
  Zn  Zn157  1  0.43766049  0.68887588  0.44007725  1
  Zn  Zn158  1  0.44182369  0.68353530  0.93586668  1
  Zn  Zn159  1  0.93234970  0.18886051  0.44388882  1
  Zn  Zn160  1  0.94049826  0.19195814  0.94608138  1
  Zn  Zn161  1  0.94007471  0.68439707  0.43427044  1
  Zn  Zn162  1  0.94006410  0.68514491  0.93516984  1
  Zn  Zn163  1  0.05855085  0.30960372  0.06232970  1
  Zn  Zn164  1  0.05933569  0.31187539  0.56270515  1
  Zn  Zn165  1  0.06405068  0.81481564  0.06168293  1
  Zn  Zn166  1  0.05675470  0.81206095  0.56015635  1
  Zn  Zn167  1  0.56463177  0.31055593  0.06601893  1
  Zn  Zn168  1  0.56591665  0.31461142  0.56275283  1
  Zn  Zn169  1  0.56318974  0.81498333  0.06524075  1
  Zn  Zn170  1  0.55649989  0.81957607  0.56869686  1
  O  O171  1  0.10889765  0.13169224  0.12414402  1
  O  O172  1  0.11526914  0.11443895  0.62330498  1
  O  O173  1  0.11890485  0.62889577  0.12849321  1
  O  O174  1  0.11386626  0.62279428  0.61509282  1
  O  O175  1  0.61793842  0.11808602  0.12620671  1
  O  O176  1  0.61264670  0.11810261  0.63348351  1
  O  O177  1  0.62154752  0.62551213  0.11452447  1
  O  O178  1  0.61257601  0.61147443  0.62397941  1
  O  O179  1  0.37606390  0.38920103  0.37858896  1
  O  O180  1  0.38114899  0.38155851  0.88011066  1
  O  O181  1  0.37613367  0.88264232  0.39183701  1
  O  O182  1  0.38900928  0.88435400  0.83600940  1
  O  O183  1  0.88555509  0.38084327  0.37045279  1
  O  O184  1  0.87370602  0.38456046  0.88364641  1
  O  O185  1  0.88023988  0.88219705  0.38234539  1
  O  O186  1  0.88883008  0.86871515  0.88704848  1
  O  O187  1  0.25677578  0.00829142  0.37612095  1
  O  O188  1  0.24103977  0.00570220  0.85745401  1
  O  O189  1  0.25784170  0.49969240  0.36619150  1
  O  O190  1  0.25901462  0.50178491  0.86668955  1
  O  O191  1  0.75683819  0.01072417  0.37396788  1
  O  O192  1  0.74339650  0.01040571  0.87114220  1
  O  O193  1  0.75599165  0.50952978  0.37791656  1
  O  O194  1  0.75976831  0.49949620  0.86694019  1
  O  O195  1  0.24424856  0.50487689  0.12829336  1
  O  O196  1  0.24959595  0.49293857  0.63048234  1
  O  O197  1  0.25772176  0.98549725  0.12751560  1
  O  O198  1  0.23605498  1.00431062  0.63167044  1
  O  O199  1  0.75164311  0.48637979  0.12693357  1
  O  O200  1  0.74114405  0.50314440  0.63294482  1
  O  O201  1  0.74364672  0.99905955  0.12803351  1
  O  O202  1  0.74233142  1.00232691  0.63196521  1
  O  O203  1  0.00838818  0.38232828  0.25963641  1
  O  O204  1  0.01763316  0.38286085  0.74714469  1
  O  O205  1  0.00967512  0.86899102  0.25108843  1
  O  O206  1  -0.00780229  0.86313773  0.75801432  1
  O  O207  1  0.50613520  0.36796564  0.25027336  1
  O  O208  1  0.50680976  0.36867963  0.75593737  1
  O  O209  1  0.50941901  0.86813844  0.25320103  1
  O  O210  1  0.51424919  0.86014450  0.73784817  1
  O  O211  1  0.50219828  0.13164895  0.23988761  1
  O  O212  1  0.49146888  0.12760839  0.74570145  1
  O  O213  1  0.49281926  0.63188141  0.24633329  1
  O  O214  1  0.50548001  0.63555023  0.74289870  1
  O  O215  1  1.00181543  0.12134158  0.23910541  1
  O  O216  1  0.99017475  0.10797105  0.76308590  1
  O  O217  1  0.99676406  0.63196454  0.24186547  1
  O  O218  1  0.99595829  0.62470683  0.73981587  1
  O  O219  1  0.36710659  0.25192876  0.00711514  1
  O  O220  1  0.36384903  0.25889139  0.49865539  1
  O  O221  1  0.38123793  0.74876611  0.01073072  1
  O  O222  1  0.36726160  0.75550884  0.50850004  1
  O  O223  1  0.86246177  0.25400781  0.01091415  1
  O  O224  1  0.85999357  0.24838453  0.50708039  1
  O  O225  1  0.86904478  0.75258996  0.00233187  1
  O  O226  1  0.88397288  0.76547713  0.49370129  1
  O  O227  1  0.13542148  0.25359739  0.49016969  1
  O  O228  1  0.13937761  0.25138283  1.00262437  1
  O  O229  1  0.13050719  0.74641491  0.49430978  1
  O  O230  1  0.11885488  0.74827942  0.98532934  1
  O  O231  1  0.64152098  0.25443336  0.50364129  1
  O  O232  1  0.63746304  0.24920224  0.99719819  1
  O  O233  1  0.62224692  0.75161991  0.51113453  1
  O  O234  1  0.63169872  0.74639229  0.99537872  1
  O  O235  1  0.49394730  0.24276038  0.13132406  1
  O  O236  1  0.50016405  0.24364338  0.63166016  1
  O  O237  1  0.48963559  0.74967551  0.13290802  1
  O  O238  1  0.49143380  0.74127088  0.63187381  1
  O  O239  1  0.98547433  0.23796830  0.12167336  1
  O  O240  1  0.98968570  0.24535449  0.62148518  1
  O  O241  1  0.99490163  0.74074270  0.12542937  1
  O  O242  1  1.00268829  0.74043244  0.63237590  1
  O  O243  1  0.00678860  0.25879395  0.38363852  1
  O  O244  1  0.00332169  0.25957939  0.88641137  1
  O  O245  1  0.01003496  0.75563392  0.36908889  1
  O  O246  1  0.00824788  0.75420468  0.87015410  1
  O  O247  1  0.49928859  0.25103479  0.36907591  1
  O  O248  1  0.50668789  0.25166857  0.87058576  1
  O  O249  1  0.50337079  0.75175904  0.36861061  1
  O  O250  1  0.50697002  0.75000547  0.86842631  1
  O  O251  1  0.24806560  0.13532387  0.49279688  1
  O  O252  1  0.24960184  0.12948944  0.99409349  1
  O  O253  1  0.23779547  0.63519752  0.50301240  1
  O  O254  1  0.24190613  0.60974873  1.00719545  1
  O  O255  1  0.75304645  0.12674513  0.48547404  1
  O  O256  1  0.74886727  0.13033781  0.99378081  1
  O  O257  1  0.75170442  0.62545657  0.49273492  1
  O  O258  1  0.74468651  0.63723579  1.00199173  1
  O  O259  1  0.25783474  0.36726748  0.00250032  1
  O  O260  1  0.25278137  0.37135992  0.50617447  1
  O  O261  1  0.24687416  0.87954237  0.01115839  1
  O  O262  1  0.25523351  0.86300560  0.50043376  1
  O  O263  1  0.75354052  0.36727374  0.00905129  1
  O  O264  1  0.75317962  0.36567309  0.49674637  1
  O  O265  1  0.75728829  0.86437130  -0.00169011  1
  O  O266  1  0.76346597  0.87534469  0.49545361  1
  O  O267  1  0.13583242  0.49581708  0.25599735  1
  O  O268  1  0.13548496  0.48932070  0.74837493  1
  O  O269  1  0.12825833  0.98771512  0.25522749  1
  O  O270  1  0.13577438  0.99690336  0.73707549  1
  O  O271  1  0.62498268  0.49044844  0.24735093  1
  O  O272  1  0.63424909  0.49647517  0.74593305  1
  O  O273  1  0.62587414  0.99206161  0.24080138  1
  O  O274  1  0.62802875  0.99410589  0.74304649  1
  O  O275  1  0.37584193  -0.00883211  0.26609603  1
  O  O276  1  0.35528114  0.01503028  0.73518422  1
  O  O277  1  0.36562522  0.50810000  0.25425553  1
  O  O278  1  0.36677292  0.49326375  0.75904740  1
  O  O279  1  0.87148759  -0.01077741  0.26573276  1
  O  O280  1  0.86786560  -0.00624181  0.75089714  1
  O  O281  1  0.87159172  0.50267455  0.26347368  1
  O  O282  1  0.87108737  0.49891294  0.75544192  1
  O  O283  1  0.11655725  0.36975592  0.36627866  1
  O  O284  1  0.12733217  0.37054652  0.85851684  1
  O  O285  1  0.11984008  0.86899119  0.36825680  1
  O  O286  1  0.11121759  0.86423738  0.87652880  1
  O  O287  1  0.62153857  0.37169047  0.36459421  1
  O  O288  1  0.62083136  0.37020322  0.86653335  1
  O  O289  1  0.62226010  0.87226442  0.36805759  1
  O  O290  1  0.61526149  0.86813299  0.86901921  1
  O  O291  1  0.38187937  0.13789987  0.12501538  1
  O  O292  1  0.38523040  0.12939159  0.63116158  1
  O  O293  1  0.38200493  0.63998795  0.13379688  1
  O  O294  1  0.38723312  0.63156081  0.62161878  1
  O  O295  1  0.88009418  0.13560131  0.12698095  1
  O  O296  1  0.88240703  0.13794712  0.62256927  1
  O  O297  1  0.88179471  0.63617549  0.12583287  1
  O  O298  1  0.88795366  0.61645833  0.63126195  1
  O  O299  1  0.25771500  0.24977549  0.12056228  1
  O  O300  1  0.25051707  0.25682155  0.61519110  1
  O  O301  1  0.26607469  0.76078422  0.12481725  1
  O  O302  1  0.25723441  0.74304018  0.61892901  1
  O  O303  1  0.75622695  0.25503781  0.12235021  1
  O  O304  1  0.75798932  0.24749485  0.61440569  1
  O  O305  1  0.75925059  0.75165036  0.11490464  1
  O  O306  1  0.75111845  0.75236008  0.65158091  1
  O  O307  1  0.24581572  0.24593057  0.37954972  1
  O  O308  1  0.25135813  0.24214058  0.88441859  1
  O  O309  1  0.23935492  0.75389657  0.38300994  1
  O  O310  1  0.23385341  0.74455140  0.87152130  1
  O  O311  1  0.74709505  0.24096004  0.38757216  1
  O  O312  1  0.74858732  0.24032464  0.88258264  1
  O  O313  1  0.74807105  0.73673897  0.37467291  1
  O  O314  1  0.73594975  0.75137090  0.87538932  1
  O  O315  1  -0.00109858  0.11658934  0.01141069  1
  O  O316  1  0.00216726  0.11005573  0.49425319  1
  O  O317  1  -0.00143947  0.61086391  0.00682683  1
  O  O318  1  0.00753431  0.61736929  0.50374602  1
  O  O319  1  0.50267081  0.11825001  0.01316318  1
  O  O320  1  0.49353850  0.11478500  0.50968593  1
  O  O321  1  0.50858948  0.61921223  0.00736701  1
  O  O322  1  0.49522374  0.61196934  0.50688433  1
  O  O323  1  0.49090439  0.38592481  0.50175268  1
  O  O324  1  0.49911988  0.37739570  0.99418592  1
  O  O325  1  0.48935831  0.88946721  0.50305910  1
  O  O326  1  0.50048150  0.89008653  1.00375882  1
  O  O327  1  1.01060966  0.38853958  0.48953514  1
  O  O328  1  0.99132352  0.38807694  1.00860171  1
  O  O329  1  0.99289412  0.88508450  0.49314494  1
  O  O330  1  0.99416114  0.88147413  0.99543420  1
  O  O331  1  0.49303198  0.49977266  0.38274388  1
  O  O332  1  0.49529062  0.49530625  0.87767596  1
  O  O333  1  0.49268501  1.00174846  0.38510212  1
  O  O334  1  0.50813051  1.00417386  0.89500748  1
  O  O335  1  0.99274889  0.49514342  0.37994141  1
  O  O336  1  0.99474225  0.49283972  0.88380155  1
  O  O337  1  0.99208082  0.99507028  0.37963087  1
  O  O338  1  0.99311199  0.99568261  0.87465922  1
  O  O339  1  -0.00665045  0.01376772  0.12116418  1
  O  O340  1  0.00824931  0.00041280  0.61816365  1
  O  O341  1  -0.00588664  0.51354744  0.12091427  1
  O  O342  1  0.00259806  0.50486658  0.61431863  1
  O  O343  1  0.50481538  0.00660155  0.12129248  1
  O  O344  1  0.50843779  0.00893698  0.61981362  1
  O  O345  1  0.49996672  0.50724849  0.11860696  1
  O  O346  1  0.50322254  0.50662309  0.61985818  1
  O  O347  1  0.24346788  0.38816492  0.24527282  1
  O  O348  1  0.24459531  0.38085377  0.74189128  1
  O  O349  1  0.24404551  0.87600747  0.24291284  1
  O  O350  1  0.25004098  0.88597876  0.74788913  1
  O  O351  1  0.74127814  0.37423622  0.24555878  1
  O  O352  1  0.74101059  0.38655171  0.75592968  1
  O  O353  1  0.73835808  0.87294132  0.24820828  1
  O  O354  1  0.73636019  0.88713082  0.75521348  1
  O  O355  1  0.24569948  0.12303094  0.26221965  1
  O  O356  1  0.25496819  0.12566618  0.75629750  1
  O  O357  1  0.26231908  0.62218154  0.24579635  1
  O  O358  1  0.24441759  0.61175789  0.74925894  1
  O  O359  1  0.74929046  0.12898648  0.27073662  1
  O  O360  1  0.74585282  0.10986844  0.75855030  1
  O  O361  1  0.75143655  0.62310964  0.26190305  1
  O  O362  1  0.76848288  0.61092285  0.75030768  1
  O  O363  1  0.36465638  0.11402818  0.38083881  1
  O  O364  1  0.36440992  0.12510222  0.86691691  1
  O  O365  1  0.37878431  0.61575631  0.36785202  1
  O  O366  1  0.37103554  0.61104831  0.88233384  1
  O  O367  1  0.87102924  0.11297157  0.37683283  1
  O  O368  1  0.86899289  0.12111912  0.87856181  1
  O  O369  1  0.86545510  0.61869183  0.37533085  1
  O  O370  1  0.88536114  0.60969185  0.86556841  1
  O  O371  1  0.12380787  0.36823813  0.13994621  1
  O  O372  1  0.13515294  0.37621930  0.63126099  1
  O  O373  1  0.14147237  0.86592730  0.13213365  1
  O  O374  1  0.12053231  0.88832492  0.62009120  1
  O  O375  1  0.63381584  0.37410472  0.13511116  1
  O  O376  1  0.61676714  0.38806915  0.63903646  1
  O  O377  1  0.62802758  0.88264868  0.13315921  1
  O  O378  1  0.62971918  0.88717328  0.63276992  1
  O  O379  1  0.12956151  0.26063289  0.26418614  1
  O  O380  1  0.13142806  0.26398276  0.74864593  1
  O  O381  1  0.12266440  0.75760840  0.25794415  1
  O  O382  1  0.10963691  0.74489474  0.75934326  1
  O  O383  1  0.61061247  0.25710060  0.25199144  1
  O  O384  1  0.62432737  0.25835945  0.75322766  1
  O  O385  1  0.61311729  0.75618050  0.24592464  1
  O  O386  1  0.61775997  0.75726963  0.76042442  1
  O  O387  1  0.38588342  0.25779190  0.24378666  1
  O  O388  1  0.38015762  0.23963000  0.74858188  1
  O  O389  1  0.38366136  0.74602238  0.25101150  1
  O  O390  1  0.38158001  0.74694622  0.74055224  1
  O  O391  1  0.87200816  0.25408493  0.23835125  1
  O  O392  1  0.86762435  0.25070311  0.73520454  1
  O  O393  1  0.88242109  0.75253747  0.24029708  1
  O  O394  1  0.88931435  0.73232486  0.76096218  1
  O  O395  1  0.37782746  0.49850190  0.49216321  1
  O  O396  1  0.38572896  0.49087559  0.99278558  1
  O  O397  1  0.37831360  0.99394379  0.49929090  1
  O  O398  1  0.38974548  1.00412263  1.00273497  1
  O  O399  1  0.88588087  0.50139656  0.48762379  1
  O  O400  1  0.87956051  0.49740074  0.99359343  1
  O  O401  1  0.88091786  0.99371243  0.48934779  1
  O  O402  1  0.88519095  0.98944472  1.00275899  1
  O  O403  1  0.10624216  -0.00100760  -0.00666706  1
  O  O404  1  0.11902694  -0.00025664  0.50831418  1
  O  O405  1  0.11898608  0.49164009  0.00072719  1
  O  O406  1  0.12024296  0.50940036  0.49823414  1
  O  O407  1  0.62092449  0.00004741  0.01415974  1
  O  O408  1  0.61657736  -0.00407040  0.51050880  1
  O  O409  1  0.62333336  0.50745044  0.00104833  1
  O  O410  1  0.61506091  0.49225271  0.50905764  1
  O  O411  1  0.37404990  0.36384472  0.11825767  1
  O  O412  1  0.36383210  0.37335590  0.62056904  1
  O  O413  1  0.36655526  0.86451638  0.12737421  1
  O  O414  1  0.37731230  0.86406119  0.61916092  1
  O  O415  1  0.86846643  0.36535918  0.12308052  1
  O  O416  1  0.87845404  0.35760617  0.62165051  1
  O  O417  1  0.87720730  0.86335864  0.11475078  1
  O  O418  1  0.87061973  0.87936970  0.60510318  1
  O  O419  1  0.13164413  0.13456930  0.37968880  1
  O  O420  1  0.13958214  0.12950331  0.88180292  1
  O  O421  1  0.11873311  0.63617914  0.38354175  1
  O  O422  1  0.12378795  0.63540389  0.87551842  1
  O  O423  1  0.63318999  0.12500707  0.37791868  1
  O  O424  1  0.63305922  0.13322827  0.87757708  1
  O  O425  1  0.63861904  0.62728472  0.37631719  1
  O  O426  1  0.61945563  0.63331656  0.88926069  1
