# generated using pymatgen
data_V85Zn86O256
_symmetry_space_group_name_H-M   'P 1'
_cell_length_a   16.95118717
_cell_length_b   16.93508315
_cell_length_c   16.93394614
_cell_angle_alpha   89.99813600
_cell_angle_beta   89.96060838
_cell_angle_gamma   89.98765950
_symmetry_Int_Tables_number   1
_chemical_formula_structural   V85Zn86O256
_chemical_formula_sum   'V85 Zn86 O256'
_cell_volume   4861.22266066
_cell_formula_units_Z   1
loop_
 _symmetry_equiv_pos_site_id
 _symmetry_equiv_pos_as_xyz
  1  'x, y, z'
loop_
 _atom_site_type_symbol
 _atom_site_label
 _atom_site_symmetry_multiplicity
 _atom_site_fract_x
 _atom_site_fract_y
 _atom_site_fract_z
 _atom_site_occupancy
  V  V0  1  -0.00185677  0.49184735  0.00335536  1
  V  V1  1  0.24547694  0.23622527  0.50010730  1
  V  V2  1  -0.00609390  0.87928598  0.37380885  1
  V  V3  1  0.49904851  0.00036261  0.49742076  1
  V  V4  1  0.00119416  0.62647856  0.11881358  1
  V  V5  1  0.63010684  -0.00834626  0.62053144  1
  V  V6  1  -0.00062030  0.87520898  0.87374473  1
  V  V7  1  0.25102876  0.37500033  0.62310347  1
  V  V8  1  0.49755358  0.50158800  0.49625382  1
  V  V9  1  0.24872038  0.12462396  0.87531948  1
  V  V10  1  0.37892319  0.25095062  0.62759604  1
  V  V11  1  -0.00012565  0.62798393  0.62307177  1
  V  V12  1  0.61852494  0.36834848  0.74928741  1
  V  V13  1  0.00358747  0.00058616  0.00708887  1
  V  V14  1  0.87375181  0.62614035  0.75073136  1
  V  V15  1  0.37517892  0.87142975  0.49617823  1
  V  V16  1  0.62404161  0.63421041  0.49857695  1
  V  V17  1  0.74685864  0.25221461  0.49730232  1
  V  V18  1  0.12560058  0.37676658  0.25390429  1
  V  V19  1  0.12568552  0.50117074  0.62334601  1
  V  V20  1  0.25225951  0.37615974  0.13168185  1
  V  V21  1  0.36957064  0.13476383  0.25625543  1
  V  V22  1  0.36656174  0.00505835  0.37572329  1
  V  V23  1  -0.01163214  0.50474135  0.49731643  1
  V  V24  1  0.36868598  0.62477810  0.24839669  1
  V  V25  1  -0.00156639  0.38122794  0.37660559  1
  V  V26  1  0.74777129  0.12243834  0.87326129  1
  V  V27  1  0.61925807  0.24254178  0.87236340  1
  V  V28  1  0.74771945  0.49849961  0.75145337  1
  V  V29  1  0.75493052  0.12196839  0.37601985  1
  V  V30  1  0.61845990  0.74978814  0.87410539  1
  V  V31  1  -0.00177021  0.75013658  0.24946111  1
  V  V32  1  0.87450176  0.26193997  0.11852919  1
  V  V33  1  0.62375805  0.12851461  0.49142707  1
  V  V34  1  0.50475489  0.12779886  0.62867472  1
  V  V35  1  0.12619407  0.24895013  0.87674960  1
  V  V36  1  0.37594994  0.37230667  0.00092945  1
  V  V37  1  0.37723245  0.74638187  0.63630187  1
  V  V38  1  0.25291381  0.74349998  0.49305672  1
  V  V39  1  0.12470537  0.37549208  0.75190562  1
  V  V40  1  -0.00004683  0.75119102  0.74511080  1
  V  V41  1  0.75145949  -0.01066122  0.74380833  1
  V  V42  1  0.29583121  0.67679028  0.93656397  1
  V  V43  1  0.74786321  0.62883379  0.37357063  1
  V  V44  1  0.12413894  0.87569656  0.74871919  1
  V  V45  1  0.87045151  0.87534195  -0.00076869  1
  V  V46  1  -0.00105326  0.24908863  0.25168170  1
  V  V47  1  0.51972534  0.25352149  0.25299784  1
  V  V48  1  0.50801359  0.50109765  0.00081338  1
  V  V49  1  0.49616578  0.36158527  0.87328887  1
  V  V50  1  0.12891375  0.74916541  0.37008868  1
  V  V51  1  0.12749188  0.23934155  0.38085921  1
  V  V52  1  0.12622173  0.87894731  0.23756405  1
  V  V53  1  0.87384777  0.49472700  0.88143609  1
  V  V54  1  0.25156017  0.51248057  0.75380865  1
  V  V55  1  0.74440747  0.00222594  0.24348835  1
  V  V56  1  0.51097979  0.37204070  0.37424737  1
  V  V57  1  0.87286995  0.37786621  0.50099199  1
  V  V58  1  0.37162550  0.50110029  0.87372607  1
  V  V59  1  0.12579919  0.62526214  0.49286692  1
  V  V60  1  0.49457095  0.88000649  0.87196205  1
  V  V61  1  0.49528813  0.62615455  0.63923257  1
  V  V62  1  0.49776188  0.74683086  0.24257232  1
  V  V63  1  -0.00130304  0.00707419  0.49394790  1
  V  V64  1  0.87130262  0.61892828  0.25500527  1
  V  V65  1  0.24808440  0.00433365  0.24353863  1
  V  V66  1  0.62679099  0.11753806  0.01084492  1
  V  V67  1  0.63452909  0.48912190  0.12369174  1
  V  V68  1  0.87365993  0.12493025  0.74643722  1
  V  V69  1  0.62188243  0.87716964  0.24129473  1
  V  V70  1  0.86592173  0.74875773  0.12593439  1
  V  V71  1  0.37898477  0.12397453  0.75098303  1
  V  V72  1  0.12465358  0.00730778  0.61694503  1
  V  V73  1  0.12276954  0.73763003  0.88527643  1
  V  V74  1  0.25008912  0.00055167  0.74956230  1
  V  V75  1  0.24947830  0.87419363  0.62182032  1
  V  V76  1  0.74753283  0.48394749  0.25391203  1
  V  V77  1  0.86480525  0.87513350  0.50194102  1
  V  V78  1  0.26852608  0.86961848  0.11204577  1
  V  V79  1  -0.00382533  0.24924475  0.74993983  1
  V  V80  1  0.74386406  0.62473852  0.88486336  1
  V  V81  1  0.87703435  0.11822936  0.25097240  1
  V  V82  1  0.24979725  0.24881822  0.00455047  1
  V  V83  1  0.12810677  0.50519528  0.12138242  1
  V  V84  1  0.62113300  0.49976883  0.62629725  1
  Zn  Zn85  1  0.50469264  0.11969932  0.13414954  1
  Zn  Zn86  1  0.00289097  0.12823456  0.61923442  1
  Zn  Zn87  1  0.75020786  0.26180549  0.00685019  1
  Zn  Zn88  1  0.00170321  0.37294342  0.88273116  1
  Zn  Zn89  1  0.87352370  0.25155529  0.62657865  1
  Zn  Zn90  1  0.50683328  0.62352611  0.12232662  1
  Zn  Zn91  1  0.37438510  0.37408398  0.49658176  1
  Zn  Zn92  1  0.36532918  -0.01285186  0.89318806  1
  Zn  Zn93  1  0.49675198  -0.01181389  0.01562080  1
  Zn  Zn94  1  0.62184596  0.86849760  0.74309323  1
  Zn  Zn95  1  0.50141605  0.87343871  0.37216923  1
  Zn  Zn96  1  0.24491382  0.50916824  0.26124852  1
  Zn  Zn97  1  0.75025235  0.37369211  0.62729574  1
  Zn  Zn98  1  0.87505561  -0.00054505  0.87398251  1
  Zn  Zn99  1  0.84933701  0.76488370  0.62620348  1
  Zn  Zn100  1  0.36771181  0.50091530  0.37452487  1
  Zn  Zn101  1  0.74512304  0.88523684  0.12000273  1
  Zn  Zn102  1  0.74239749  0.74771184  0.00245799  1
  Zn  Zn103  1  0.00417145  0.12285126  0.12788306  1
  Zn  Zn104  1  0.13103174  0.11502311  0.01012495  1
  Zn  Zn105  1  0.38021079  0.25224227  0.13229400  1
  Zn  Zn106  1  0.62630191  0.75372646  0.37337787  1
  Zn  Zn107  1  0.18461686  0.18605437  0.18916563  1
  Zn  Zn108  1  0.18787227  0.18784561  0.68723974  1
  Zn  Zn109  1  0.18940348  0.69274369  0.17831859  1
  Zn  Zn110  1  0.18609309  0.69165328  0.68467976  1
  Zn  Zn111  1  0.69633394  0.19483620  0.18849686  1
  Zn  Zn112  1  0.68823958  0.18649498  0.68538436  1
  Zn  Zn113  1  0.68031985  0.68049867  0.18535500  1
  Zn  Zn114  1  0.68199302  0.68498120  0.69268523  1
  Zn  Zn115  1  0.31401061  0.31880900  0.32040952  1
  Zn  Zn116  1  0.31168616  0.31191208  0.81033101  1
  Zn  Zn117  1  0.31353638  0.81303611  0.30604764  1
  Zn  Zn118  1  0.30995030  0.81482650  0.81393248  1
  Zn  Zn119  1  0.81668488  0.30689773  0.31861529  1
  Zn  Zn120  1  0.79970929  0.32422192  0.84011569  1
  Zn  Zn121  1  0.80934235  0.81418529  0.31284015  1
  Zn  Zn122  1  0.81082995  0.80888674  0.81465599  1
  Zn  Zn123  1  0.18582320  0.43607056  0.43860903  1
  Zn  Zn124  1  0.18799017  0.44041319  0.94123165  1
  Zn  Zn125  1  0.18478236  0.93532372  0.43296328  1
  Zn  Zn126  1  0.18474766  0.93242324  0.93688287  1
  Zn  Zn127  1  0.68805101  0.44508720  0.43715367  1
  Zn  Zn128  1  0.68726494  0.43044996  0.94204800  1
  Zn  Zn129  1  0.68633939  0.94078680  0.42707766  1
  Zn  Zn130  1  0.68410303  0.93652778  0.93348269  1
  Zn  Zn131  1  0.31762532  0.06283570  0.07061731  1
  Zn  Zn132  1  0.31413343  0.06164522  0.56429869  1
  Zn  Zn133  1  0.32244224  0.55907794  0.07168048  1
  Zn  Zn134  1  0.31401725  0.56400288  0.56162304  1
  Zn  Zn135  1  0.81738099  0.06935341  0.06277809  1
  Zn  Zn136  1  0.81579151  0.05947663  0.56046574  1
  Zn  Zn137  1  0.81237183  0.55783197  0.06643156  1
  Zn  Zn138  1  0.79498500  0.59400189  0.57786974  1
  Zn  Zn139  1  0.44039133  0.43915491  0.19074921  1
  Zn  Zn140  1  0.43685438  0.43966430  0.68967307  1
  Zn  Zn141  1  0.43784689  0.94066098  0.18839823  1
  Zn  Zn142  1  0.43934649  0.93745927  0.68817670  1
  Zn  Zn143  1  0.93619748  0.43957386  0.19061193  1
  Zn  Zn144  1  0.93639919  0.43940113  0.68742793  1
  Zn  Zn145  1  0.93261265  0.93614308  0.18761474  1
  Zn  Zn146  1  0.93699894  0.93937805  0.68141542  1
  Zn  Zn147  1  0.06531729  0.06187875  0.31215345  1
  Zn  Zn148  1  0.06209543  0.06187831  0.81494471  1
  Zn  Zn149  1  0.06155789  0.56421368  0.30978774  1
  Zn  Zn150  1  0.06157409  0.56149526  0.81344665  1
  Zn  Zn151  1  0.55987530  0.06124598  0.31123148  1
  Zn  Zn152  1  0.56270154  0.05516224  0.81050650  1
  Zn  Zn153  1  0.56539164  0.55965399  0.30882323  1
  Zn  Zn154  1  0.56238191  0.55920922  0.81836074  1
  Zn  Zn155  1  0.43636062  0.19086030  0.43688833  1
  Zn  Zn156  1  0.42549337  0.15899808  0.95462050  1
  Zn  Zn157  1  0.44039010  0.68640717  0.42928931  1
  Zn  Zn158  1  0.45579244  0.68682577  0.93534120  1
  Zn  Zn159  1  0.93537206  0.19051122  0.43647747  1
  Zn  Zn160  1  0.93677768  0.18465764  0.93479879  1
  Zn  Zn161  1  0.93305638  0.69379529  0.43546484  1
  Zn  Zn162  1  0.93542600  0.68530912  0.93833680  1
  Zn  Zn163  1  0.06569955  0.31109142  0.06766837  1
  Zn  Zn164  1  0.06254708  0.31290343  0.56324904  1
  Zn  Zn165  1  0.05823449  0.81409789  0.06276574  1
  Zn  Zn166  1  0.06116862  0.81698353  0.55795522  1
  Zn  Zn167  1  0.56487892  0.30935175  0.06135444  1
  Zn  Zn168  1  0.56270215  0.31274695  0.55991108  1
  Zn  Zn169  1  0.56093434  0.81311893  0.05925169  1
  Zn  Zn170  1  0.55727337  0.81006875  0.56260637  1
  O  O171  1  0.11666391  0.13071009  0.12128878  1
  O  O172  1  0.12368025  0.11101278  0.63007822  1
  O  O173  1  0.11395271  0.61749912  0.13278024  1
  O  O174  1  0.11577206  0.62274619  0.61691093  1
  O  O175  1  0.63502121  0.13278704  0.11214769  1
  O  O176  1  0.61828262  0.11750276  0.61678353  1
  O  O177  1  0.62227697  0.60214690  0.12598236  1
  O  O178  1  0.61297805  0.61754044  0.61780175  1
  O  O179  1  0.38914558  0.38034779  0.38006183  1
  O  O180  1  0.38000059  0.37858525  0.87815962  1
  O  O181  1  0.37410726  0.88059392  0.38488768  1
  O  O182  1  0.38735372  0.87460074  0.87159669  1
  O  O183  1  0.88804411  0.37099032  0.38826098  1
  O  O184  1  0.88992943  0.39496648  0.85496235  1
  O  O185  1  0.88821119  0.87009306  0.37920017  1
  O  O186  1  0.88117289  0.87304560  0.88319147  1
  O  O187  1  0.26070088  -0.00642034  0.36730533  1
  O  O188  1  0.25043569  0.00544023  0.86910042  1
  O  O189  1  0.25185029  0.49579762  0.37400645  1
  O  O190  1  0.25818371  0.49340033  0.86681507  1
  O  O191  1  0.74979669  0.01531223  0.36361431  1
  O  O192  1  0.74946345  0.00815256  0.86405542  1
  O  O193  1  0.74542359  0.50793657  0.35887325  1
  O  O194  1  0.75527728  0.50525530  0.86851314  1
  O  O195  1  0.24320444  0.49072512  0.12871099  1
  O  O196  1  0.24670317  0.49301446  0.63028387  1
  O  O197  1  0.25558074  0.99208923  0.13807671  1
  O  O198  1  0.24347870  0.99327350  0.62764191  1
  O  O199  1  0.74356453  0.49693228  0.13493096  1
  O  O200  1  0.74259515  0.50163352  0.63923368  1
  O  O201  1  0.75690828  1.00450397  0.13878621  1
  O  O202  1  0.74002195  1.00587015  0.62994511  1
  O  O203  1  0.00263137  0.37102931  0.25997941  1
  O  O204  1  0.01297168  0.36961374  0.74675674  1
  O  O205  1  0.00478037  0.87224804  0.25493353  1
  O  O206  1  0.00213760  0.86814121  0.75181202  1
  O  O207  1  0.49932657  0.36378061  0.26189747  1
  O  O208  1  0.51034500  0.37868657  0.75762021  1
  O  O209  1  0.50476306  0.86469092  0.24960534  1
  O  O210  1  0.50412904  0.88023681  0.76269320  1
  O  O211  1  0.49526519  0.14192759  0.25654540  1
  O  O212  1  0.49243021  0.11808495  0.73992160  1
  O  O213  1  0.49867978  0.63521704  0.24906602  1
  O  O214  1  0.50128000  0.61573021  0.73831437  1
  O  O215  1  0.99344369  0.13311826  0.25403014  1
  O  O216  1  0.99211231  0.13230367  0.75077095  1
  O  O217  1  0.98975237  0.62857114  0.24175180  1
  O  O218  1  0.99829160  0.63275166  0.74293229  1
  O  O219  1  0.36346377  0.25128944  0.00442412  1
  O  O220  1  0.36647499  0.25041781  0.51185453  1
  O  O221  1  0.36129880  0.73329575  -0.01446971  1
  O  O222  1  0.36879954  0.75510566  0.49994820  1
  O  O223  1  0.88272358  0.24459690  0.01613315  1
  O  O224  1  0.86889691  0.26026453  0.50406370  1
  O  O225  1  0.87444724  0.75788351  0.00822662  1
  O  O226  1  0.88272709  0.76939475  0.50446649  1
  O  O227  1  0.13212959  0.25337715  0.49418479  1
  O  O228  1  0.13674132  0.25353145  0.99442420  1
  O  O229  1  0.13182752  0.74703998  0.49090625  1
  O  O230  1  0.11425202  0.75283728  0.98385073  1
  O  O231  1  0.63356622  0.23997563  0.50540136  1
  O  O232  1  0.63147197  0.24482468  0.98549856  1
  O  O233  1  0.62073540  0.73748899  0.49802232  1
  O  O234  1  0.62698850  0.75300937  0.98196565  1
  O  O235  1  0.50225719  0.25147717  0.14318611  1
  O  O236  1  0.49235819  0.23806187  0.61911691  1
  O  O237  1  0.50641272  0.74644254  0.13747956  1
  O  O238  1  0.48942421  0.73937791  0.62312413  1
  O  O239  1  0.99553826  0.25276132  0.14031598  1
  O  O240  1  1.00053292  0.24783188  0.63723959  1
  O  O241  1  0.99017314  0.74356999  0.12951419  1
  O  O242  1  1.00456749  0.74492962  0.63399594  1
  O  O243  1  0.00483434  0.25761027  0.36805242  1
  O  O244  1  0.00561624  0.25177941  0.86582754  1
  O  O245  1  0.00622617  0.75751056  0.36678138  1
  O  O246  1  0.00561106  0.75255804  0.86476225  1
  O  O247  1  0.49962397  0.26194118  0.36821619  1
  O  O248  1  0.50229167  0.25771943  0.87942471  1
  O  O249  1  0.50454975  0.75373398  0.36099192  1
  O  O250  1  0.51120553  0.75817223  0.86940586  1
  O  O251  1  0.25020496  0.13680215  0.50738186  1
  O  O252  1  0.24905138  0.13346896  0.99619852  1
  O  O253  1  0.24424970  0.63746123  0.50353903  1
  O  O254  1  0.24916205  0.61858739  1.00304358  1
  O  O255  1  0.74568257  0.12989414  0.49429816  1
  O  O256  1  0.74331279  0.12847075  0.98990684  1
  O  O257  1  0.73424194  0.60480282  0.48283732  1
  O  O258  1  0.75734151  0.62344838  0.98777611  1
  O  O259  1  0.25575854  0.36931569  0.00935570  1
  O  O260  1  0.25015098  0.37018942  0.51478223  1
  O  O261  1  0.25601222  0.89070321  0.01295127  1
  O  O262  1  0.25554357  0.86554486  0.50264143  1
  O  O263  1  0.76814497  0.35697106  -0.05024728  1
  O  O264  1  0.75681047  0.37128524  0.49862803  1
  O  O265  1  0.75940479  0.87513813  -0.00006106  1
  O  O266  1  0.76662006  0.88233458  0.48661017  1
  O  O267  1  0.12437107  0.49477307  0.23990721  1
  O  O268  1  0.12960896  0.49262481  0.74569203  1
  O  O269  1  0.13658640  0.99081882  0.25759164  1
  O  O270  1  0.12998270  0.99417977  0.74346171  1
  O  O271  1  0.63860867  0.49475184  0.24041451  1
  O  O272  1  0.63054215  0.49181510  0.74859513  1
  O  O273  1  0.63305370  0.99299334  0.25358697  1
  O  O274  1  0.63458854  0.99839412  0.73768755  1
  O  O275  1  0.36748993  0.00836438  0.25963775  1
  O  O276  1  0.36542419  0.00894019  0.74739776  1
  O  O277  1  0.37261438  0.51138521  0.25067438  1
  O  O278  1  0.36645935  0.49446584  0.76428119  1
  O  O279  1  0.87119737  0.01291425  0.24874569  1
  O  O280  1  0.86948140  0.00702200  0.74937359  1
  O  O281  1  0.86173463  0.50887292  0.24359169  1
  O  O282  1  0.86651008  0.50714100  0.75384224  1
  O  O283  1  0.11225687  0.36861452  0.37351072  1
  O  O284  1  0.12434449  0.37001328  0.86714603  1
  O  O285  1  0.11559946  0.86455287  0.36674491  1
  O  O286  1  0.11846622  0.86581392  0.86684042  1
  O  O287  1  0.61031206  0.37810193  0.38203821  1
  O  O288  1  0.61405802  0.36464388  0.86743998  1
  O  O289  1  0.62273169  0.87319456  0.36105002  1
  O  O290  1  0.61873045  0.86639816  0.86848050  1
  O  O291  1  0.37854635  0.13235872  0.14444677  1
  O  O292  1  0.38269133  0.12996582  0.63250220  1
  O  O293  1  0.38909472  0.61937176  0.14105270  1
  O  O294  1  0.38346490  0.63458866  0.62011724  1
  O  O295  1  0.88338193  0.13513235  0.13541730  1
  O  O296  1  0.87773890  0.12685103  0.63612942  1
  O  O297  1  0.87951470  0.63092713  0.13376310  1
  O  O298  1  0.89432027  0.61682189  0.63278294  1
  O  O299  1  0.24922584  0.26117351  0.11974291  1
  O  O300  1  0.25429517  0.25727218  0.62035606  1
  O  O301  1  0.24427443  0.77115015  0.12014701  1
  O  O302  1  0.25468600  0.75612013  0.61434751  1
  O  O303  1  0.76838407  0.25266704  0.12267823  1
  O  O304  1  0.75189817  0.25204244  0.61291282  1
  O  O305  1  0.75833251  0.74640366  0.12322761  1
  O  O306  1  0.76038122  0.69989722  0.61684229  1
  O  O307  1  0.23967978  0.25954807  0.38950840  1
  O  O308  1  0.24546470  0.24650066  0.88259591  1
  O  O309  1  0.24117887  0.75692524  0.38092882  1
  O  O310  1  0.23770675  0.74587070  0.87590660  1
  O  O311  1  0.75233458  0.24063226  0.38873024  1
  O  O312  1  0.73712763  0.22913165  0.86102285  1
  O  O313  1  0.74710931  0.73422725  0.36892713  1
  O  O314  1  0.74335713  0.74048171  0.87839108  1
  O  O315  1  -0.00177508  0.10770708  -0.00396898  1
  O  O316  1  -0.00729933  0.11242312  0.49935063  1
  O  O317  1  -0.00648851  0.61714736  0.01441004  1
  O  O318  1  0.00204970  0.62207312  0.50417556  1
  O  O319  1  0.52248288  0.13731143  0.01049992  1
  O  O320  1  0.50684183  0.12135298  0.50446180  1
  O  O321  1  0.49938918  0.60503818  -0.00061604  1
  O  O322  1  0.50680024  0.61741809  0.50144009  1
  O  O323  1  0.49837795  0.38108016  0.49208986  1
  O  O324  1  0.49386429  0.37747415  0.99192622  1
  O  O325  1  0.49027906  0.88113351  0.49755072  1
  O  O326  1  0.50467205  0.87556335  0.98144949  1
  O  O327  1  0.99414082  0.38355375  0.49665575  1
  O  O328  1  1.00527104  0.38723673  1.00189731  1
  O  O329  1  0.99540913  0.88426603  0.49028760  1
  O  O330  1  0.98915761  0.88270650  0.99614743  1
  O  O331  1  0.50089731  0.49070886  0.38060723  1
  O  O332  1  0.49310292  0.48849881  0.88101414  1
  O  O333  1  0.48650575  0.99792127  0.38057934  1
  O  O334  1  0.49864891  0.98753450  0.87753417  1
  O  O335  1  1.00483343  0.49313443  0.38429791  1
  O  O336  1  0.99472068  0.50328592  0.88765118  1
  O  O337  1  1.00637298  0.99085255  0.38153234  1
  O  O338  1  0.99665795  0.99038295  0.88100283  1
  O  O339  1  -0.00637767  -0.00164901  0.11004512  1
  O  O340  1  0.00910612  0.00152539  0.61444117  1
  O  O341  1  0.00512913  0.50659083  0.12120206  1
  O  O342  1  0.00807106  0.50708155  0.61889715  1
  O  O343  1  0.50255414  0.00627246  0.12767044  1
  O  O344  1  0.50474072  0.00982807  0.61659434  1
  O  O345  1  0.51136220  0.49336617  0.11657505  1
  O  O346  1  0.50164722  0.50542872  0.61801060  1
  O  O347  1  0.24433374  0.37437942  0.24299988  1
  O  O348  1  0.23989814  0.37884078  0.74091987  1
  O  O349  1  0.24301394  0.88218331  0.24191026  1
  O  O350  1  0.24421697  0.88134345  0.74328019  1
  O  O351  1  0.75855434  0.38565535  0.25928238  1
  O  O352  1  0.73720531  0.38152147  0.75243172  1
  O  O353  1  0.74388024  0.88603159  0.24881984  1
  O  O354  1  0.75221885  0.88634495  0.75095677  1
  O  O355  1  0.25692318  0.11736843  0.24997062  1
  O  O356  1  0.25578195  0.11940534  0.75351587  1
  O  O357  1  0.26453388  0.62943728  0.24099128  1
  O  O358  1  0.24293315  0.61115395  0.74319153  1
  O  O359  1  0.75658874  0.12313011  0.25718991  1
  O  O360  1  0.75671072  0.11522538  0.75162558  1
  O  O361  1  0.75541497  0.61685214  0.25470338  1
  O  O362  1  0.75246484  0.61387933  0.76409427  1
  O  O363  1  0.37647210  0.11782191  0.36879531  1
  O  O364  1  0.36784244  0.13420119  0.85745983  1
  O  O365  1  0.38138676  0.62076912  0.35577418  1
  O  O366  1  0.36627989  0.61776581  0.88138236  1
  O  O367  1  0.86610389  0.13215429  0.36512157  1
  O  O368  1  0.86597049  0.12330028  0.86358167  1
  O  O369  1  0.86904310  0.62953817  0.36257597  1
  O  O370  1  0.86996541  0.61626686  0.86847550  1
  O  O371  1  0.13270932  0.38231970  0.13330358  1
  O  O372  1  0.13234471  0.38043117  0.63146577  1
  O  O373  1  0.12196893  0.87530269  0.13602233  1
  O  O374  1  0.12977301  0.88262710  0.62935745  1
  O  O375  1  0.62740132  0.38722786  0.11858624  1
  O  O376  1  0.62508527  0.38030963  0.63321787  1
  O  O377  1  0.62961799  0.87029984  0.13585087  1
  O  O378  1  0.61909497  0.88696773  0.62231994  1
  O  O379  1  0.11747177  0.25820495  0.25864377  1
  O  O380  1  0.12004116  0.25632515  0.75582134  1
  O  O381  1  0.11933806  0.75661784  0.25373312  1
  O  O382  1  0.11765281  0.75576830  0.75563452  1
  O  O383  1  0.61809177  0.24827105  0.25428770  1
  O  O384  1  0.62410438  0.25504362  0.75887337  1
  O  O385  1  0.61611288  0.75572211  0.25008217  1
  O  O386  1  0.63309385  0.75373902  0.76564734  1
  O  O387  1  0.37611184  0.24448426  0.25540586  1
  O  O388  1  0.36835525  0.24282115  0.73476537  1
  O  O389  1  0.38800955  0.74143862  0.25232631  1
  O  O390  1  0.36505052  0.75269548  0.73480311  1
  O  O391  1  0.88279988  0.24303461  0.24496832  1
  O  O392  1  0.88327790  0.24459985  0.75064133  1
  O  O393  1  0.87855810  0.74513320  0.24192845  1
  O  O394  1  0.88263218  0.74540210  0.74502728  1
  O  O395  1  0.38804678  0.49974655  0.50065691  1
  O  O396  1  0.38122397  0.49023499  0.99126848  1
  O  O397  1  0.37685447  0.99270581  0.49515577  1
  O  O398  1  0.39284737  1.04243589  0.98903143  1
  O  O399  1  0.88629166  0.49669897  0.50535530  1
  O  O400  1  0.88330825  0.50163828  0.99266973  1
  O  O401  1  0.88644935  0.98860281  0.50135029  1
  O  O402  1  0.88099434  0.99229078  0.99703164  1
  O  O403  1  0.10706030  -0.00368155  -0.00492930  1
  O  O404  1  0.11634405  -0.00643726  0.50685644  1
  O  O405  1  0.11807035  0.49778746  0.01439391  1
  O  O406  1  0.11574386  0.50740099  0.50578567  1
  O  O407  1  0.62530436  0.01545613  -0.00337683  1
  O  O408  1  0.62056500  0.00655568  0.50333493  1
  O  O409  1  0.62055531  0.49310634  0.00692884  1
  O  O410  1  0.61298194  0.50444487  0.50750360  1
  O  O411  1  0.36749085  0.37391803  0.12222151  1
  O  O412  1  0.36862728  0.36765575  0.62564036  1
  O  O413  1  0.36729741  0.87275299  0.12783300  1
  O  O414  1  0.37145864  0.86939866  0.61294099  1
  O  O415  1  0.88234171  0.36061863  0.12814849  1
  O  O416  1  0.87259471  0.37569602  0.61399344  1
  O  O417  1  0.87049110  0.86538167  0.11804064  1
  O  O418  1  0.87309197  0.87627743  0.60987147  1
  O  O419  1  0.12254072  0.14038794  0.37322845  1
  O  O420  1  0.13253526  0.13192149  0.87869383  1
  O  O421  1  0.11771197  0.64025018  0.37740337  1
  O  O422  1  0.12098808  0.63842035  0.87337024  1
  O  O423  1  0.63057902  0.12086330  0.38708063  1
  O  O424  1  0.62723540  0.12764111  0.87897803  1
  O  O425  1  0.62988148  0.62541273  0.38089403  1
  O  O426  1  0.63063350  0.63549522  0.87238144  1
