# generated using pymatgen
data_V85Zn86O256
_symmetry_space_group_name_H-M   'P 1'
_cell_length_a   16.94474035
_cell_length_b   16.93293383
_cell_length_c   16.92830417
_cell_angle_alpha   90.05332876
_cell_angle_beta   89.97468450
_cell_angle_gamma   89.93340109
_symmetry_Int_Tables_number   1
_chemical_formula_structural   V85Zn86O256
_chemical_formula_sum   'V85 Zn86 O256'
_cell_volume   4857.13371127
_cell_formula_units_Z   1
loop_
 _symmetry_equiv_pos_site_id
 _symmetry_equiv_pos_as_xyz
  1  'x, y, z'
loop_
 _atom_site_type_symbol
 _atom_site_label
 _atom_site_symmetry_multiplicity
 _atom_site_fract_x
 _atom_site_fract_y
 _atom_site_fract_z
 _atom_site_occupancy
  V  V0  1  0.75150434  0.12105650  0.37570646  1
  V  V1  1  0.87679162  0.72704344  0.62800999  1
  V  V2  1  0.11744981  0.75260607  0.37674337  1
  V  V3  1  0.36745725  0.49668391  0.37555702  1
  V  V4  1  0.24710251  0.48106236  0.74755191  1
  V  V5  1  0.49796653  0.01270498  -0.00074102  1
  V  V6  1  0.49997685  0.50571169  0.00134806  1
  V  V7  1  0.36300203  0.62646804  0.75235562  1
  V  V8  1  0.37051834  0.37583101  0.50646879  1
  V  V9  1  0.87424115  0.12326271  0.75239647  1
  V  V10  1  0.87435579  0.74278132  0.11852933  1
  V  V11  1  0.12338097  0.48076182  0.62842871  1
  V  V12  1  0.87533033  0.25051685  0.12214419  1
  V  V13  1  0.50072781  0.37311971  0.37820619  1
  V  V14  1  -0.00196972  0.74200347  0.24578795  1
  V  V15  1  -0.00071052  0.37507506  0.37614597  1
  V  V16  1  0.74421703  0.12165132  0.87903292  1
  V  V17  1  0.24856578  0.89037531  0.62582540  1
  V  V18  1  0.37603932  0.87463326  0.49917679  1
  V  V19  1  0.00456353  0.25655937  0.75059007  1
  V  V20  1  0.50199171  0.00249495  0.50460840  1
  V  V21  1  0.25427499  0.25643860  0.01307283  1
  V  V22  1  0.62503272  0.37596452  0.75146948  1
  V  V23  1  0.62913191  -0.01399134  0.62704785  1
  V  V24  1  0.74344502  0.86933412  0.11983126  1
  V  V25  1  0.87921141  0.88072142  0.00218219  1
  V  V26  1  0.12141824  0.62649264  0.51250085  1
  V  V27  1  -0.00203030  0.11747123  0.11997068  1
  V  V28  1  0.24971491  -0.00417636  0.24454353  1
  V  V29  1  0.13918413  0.63198850  -0.00138814  1
  V  V30  1  0.62810761  0.37633088  0.24726089  1
  V  V31  1  0.25136551  0.12299417  0.87080035  1
  V  V32  1  0.50041612  0.24220180  0.74987066  1
  V  V33  1  0.49526108  0.24262819  0.23732014  1
  V  V34  1  0.24441726  0.61960975  0.37046144  1
  V  V35  1  0.00043855  0.24955309  0.24760421  1
  V  V36  1  0.49967689  0.74544103  0.24123637  1
  V  V37  1  0.87619016  0.50132779  0.37442176  1
  V  V38  1  0.62461601  0.24841894  0.37442364  1
  V  V39  1  0.12557205  0.25059673  0.37433491  1
  V  V40  1  0.62261911  0.12504226  0.51045866  1
  V  V41  1  0.11644131  0.50685530  0.12761700  1
  V  V42  1  0.12876326  0.88987700  0.74432962  1
  V  V43  1  0.37801225  -0.00015933  0.37257789  1
  V  V44  1  0.00617357  0.88351657  0.87903050  1
  V  V45  1  0.12165541  0.12466365  -0.00258358  1
  V  V46  1  0.87950116  -0.01405035  0.37400757  1
  V  V47  1  0.50164757  0.87074646  0.87352427  1
  V  V48  1  0.74919551  0.37536688  0.62857755  1
  V  V49  1  0.12688469  0.11568427  0.50403473  1
  V  V50  1  0.12359532  -0.00786334  0.11829413  1
  V  V51  1  0.13992764  0.74991676  0.87439135  1
  V  V52  1  -0.00213470  0.51299750  -0.00259522  1
  V  V53  1  0.12681702  0.26070574  0.87367234  1
  V  V54  1  0.62075718  0.01376948  0.12062300  1
  V  V55  1  0.49605580  0.62204728  0.62536620  1
  V  V56  1  0.24800070  0.25244633  0.50815412  1
  V  V57  1  0.49654101  0.37359307  0.87670195  1
  V  V58  1  0.75294335  0.62883929  0.37442949  1
  V  V59  1  0.87728695  0.37954563  -0.00655054  1
  V  V60  1  0.74939849  0.24939215  0.50133521  1
  V  V61  1  0.36877468  0.50272114  0.87502286  1
  V  V62  1  0.87550527  0.24824478  0.62588578  1
  V  V63  1  0.75374037  0.51242453  0.75781414  1
  V  V64  1  0.11290218  0.87780857  0.25432306  1
  V  V65  1  0.29086421  0.44251218  0.19164990  1
  V  V66  1  0.37161500  0.11907277  0.74982289  1
  V  V67  1  0.74709187  -0.00963908  0.74843857  1
  V  V68  1  0.50223381  0.87106041  0.37453700  1
  V  V69  1  0.87672584  0.87649880  0.51940814  1
  V  V70  1  0.00438246  0.11642698  0.62536609  1
  V  V71  1  0.87438173  0.12313907  0.25034261  1
  V  V72  1  0.25218935  0.12321349  0.37407595  1
  V  V73  1  0.12465265  0.37847344  0.24379900  1
  V  V74  1  0.37538063  0.62496723  0.24548418  1
  V  V75  1  0.00659375  0.73846771  0.74485205  1
  V  V76  1  0.37838784  0.24746372  0.62630662  1
  V  V77  1  0.36943465  0.75035700  0.62392352  1
  V  V78  1  0.62250081  0.62462355  0.49771778  1
  V  V79  1  0.74568722  0.24925806  -0.00016566  1
  V  V80  1  0.62298772  0.24812448  0.87841067  1
  V  V81  1  0.62232764  0.63750948  -0.01582517  1
  V  V82  1  0.36529466  0.87082962  0.00415164  1
  V  V83  1  0.62542226  0.51368572  0.12422818  1
  V  V84  1  0.87506086  0.37398271  0.50021673  1
  Zn  Zn85  1  0.62700249  0.75132363  0.37451050  1
  Zn  Zn86  1  0.37223564  0.00102176  0.87323047  1
  Zn  Zn87  1  0.62397232  0.49921880  0.62515484  1
  Zn  Zn88  1  0.00715641  -0.00896123  0.49603718  1
  Zn  Zn89  1  -0.00557865  0.50640609  0.51201755  1
  Zn  Zn90  1  0.50115815  0.74972833  0.75259604  1
  Zn  Zn91  1  0.00172660  0.38357985  0.87011980  1
  Zn  Zn92  1  0.87792757  0.62183170  0.24361562  1
  Zn  Zn93  1  0.74894270  0.75529385  0.50507488  1
  Zn  Zn94  1  0.36379536  0.74822327  0.11598629  1
  Zn  Zn95  1  0.37580356  0.12345280  0.23598559  1
  Zn  Zn96  1  0.87885414  0.53089917  0.86734497  1
  Zn  Zn97  1  0.75040093  0.37823573  0.12153159  1
  Zn  Zn98  1  0.66165351  0.81444316  0.80390372  1
  Zn  Zn99  1  0.75182301  0.50144871  0.24790124  1
  Zn  Zn100  1  0.78238333  0.69551918  -0.07080057  1
  Zn  Zn101  1  0.37014130  0.37749112  0.01383793  1
  Zn  Zn102  1  0.62297268  0.87493822  0.24624455  1
  Zn  Zn103  1  0.74653827  -0.00289818  0.24772573  1
  Zn  Zn104  1  0.49784706  0.49959955  0.50007679  1
  Zn  Zn105  1  0.87953871  0.00307906  0.88199568  1
  Zn  Zn106  1  0.24920840  0.75210122  0.49469352  1
  Zn  Zn107  1  0.18612038  0.18227571  0.18688397  1
  Zn  Zn108  1  0.18721935  0.18960325  0.68756214  1
  Zn  Zn109  1  0.18615208  0.68389486  0.18397467  1
  Zn  Zn110  1  0.19037902  0.69104612  0.68938175  1
  Zn  Zn111  1  0.68825375  0.18851977  0.18753575  1
  Zn  Zn112  1  0.68765516  0.18443144  0.69105574  1
  Zn  Zn113  1  0.68871817  0.69021637  0.18884749  1
  Zn  Zn114  1  0.68547424  0.68683529  0.68155725  1
  Zn  Zn115  1  0.31628654  0.30558618  0.31861700  1
  Zn  Zn116  1  0.31530750  0.30770210  0.81984252  1
  Zn  Zn117  1  0.28754054  0.79238466  0.27530594  1
  Zn  Zn118  1  0.31641284  0.81958583  0.81119305  1
  Zn  Zn119  1  0.81213510  0.31087350  0.31237925  1
  Zn  Zn120  1  0.81308034  0.31264144  0.81393723  1
  Zn  Zn121  1  0.81039815  0.81145440  0.30705596  1
  Zn  Zn122  1  0.83090511  0.81270182  0.80914292  1
  Zn  Zn123  1  0.18456982  0.43787340  0.43989926  1
  Zn  Zn124  1  0.18781487  0.44015809  0.93908975  1
  Zn  Zn125  1  0.19036420  0.93367624  0.43369972  1
  Zn  Zn126  1  0.18770963  0.94027275  0.93496250  1
  Zn  Zn127  1  0.68854161  0.44066091  0.43807047  1
  Zn  Zn128  1  0.68757359  0.44068819  0.93704384  1
  Zn  Zn129  1  0.69189460  0.93478150  0.44056298  1
  Zn  Zn130  1  0.68805158  0.93530182  0.94215270  1
  Zn  Zn131  1  0.30751363  0.05869523  0.05881058  1
  Zn  Zn132  1  0.31755849  0.06658829  0.56229645  1
  Zn  Zn133  1  0.31424832  0.56694456  0.05885583  1
  Zn  Zn134  1  0.30420251  0.56151074  0.56335201  1
  Zn  Zn135  1  0.80834968  0.05958083  0.06173846  1
  Zn  Zn136  1  0.81310016  0.05881293  0.56369540  1
  Zn  Zn137  1  0.80713324  0.56301000  0.05835067  1
  Zn  Zn138  1  0.80740148  0.55954924  0.56173707  1
  Zn  Zn139  1  0.45528271  0.43952328  0.18970447  1
  Zn  Zn140  1  0.43540946  0.43636751  0.68844332  1
  Zn  Zn141  1  0.43853790  0.93663024  0.18447724  1
  Zn  Zn142  1  0.44071729  0.93814706  0.68529299  1
  Zn  Zn143  1  0.93767742  0.43827643  0.18417050  1
  Zn  Zn144  1  0.93508056  0.44154578  0.68874440  1
  Zn  Zn145  1  0.93518845  0.93485478  0.18715620  1
  Zn  Zn146  1  0.94252821  0.93917163  0.69319285  1
  Zn  Zn147  1  0.06119522  0.06309273  0.31298104  1
  Zn  Zn148  1  0.06428651  0.06666998  0.81301931  1
  Zn  Zn149  1  0.06091005  0.56271789  0.31507815  1
  Zn  Zn150  1  0.07155634  0.56143863  0.81572213  1
  Zn  Zn151  1  0.56587266  0.06023230  0.31265938  1
  Zn  Zn152  1  0.56284138  0.05880814  0.81495804  1
  Zn  Zn153  1  0.56106275  0.56200132  0.31398024  1
  Zn  Zn154  1  0.55954894  0.56281238  0.80987227  1
  Zn  Zn155  1  0.43793385  0.18676341  0.43564733  1
  Zn  Zn156  1  0.43405322  0.18813960  1.06072897  1
  Zn  Zn157  1  0.43517680  0.68757356  0.43336317  1
  Zn  Zn158  1  0.43653180  0.68924172  0.93668249  1
  Zn  Zn159  1  0.93884723  0.18398076  0.43799341  1
  Zn  Zn160  1  0.93724094  0.18995109  0.93608850  1
  Zn  Zn161  1  0.94029853  0.69003081  0.44028484  1
  Zn  Zn162  1  0.95490880  0.69764243  0.93802400  1
  Zn  Zn163  1  0.06186853  0.31543357  0.05988282  1
  Zn  Zn164  1  0.05947494  0.30731862  0.56117327  1
  Zn  Zn165  1  0.06173701  0.81003764  0.06312067  1
  Zn  Zn166  1  0.06042073  0.81394492  0.56448770  1
  Zn  Zn167  1  0.56585786  0.32069082  0.06076038  1
  Zn  Zn168  1  0.56118414  0.31144373  0.56524837  1
  Zn  Zn169  1  0.55338853  0.81752868  0.06073888  1
  Zn  Zn170  1  0.56179695  0.80613167  0.56856937  1
  O  O171  1  0.11612143  0.11691653  0.11776558  1
  O  O172  1  0.11779108  0.13125778  0.61522331  1
  O  O173  1  0.12581560  0.61974625  0.11291310  1
  O  O174  1  0.13327407  0.62230448  0.61403181  1
  O  O175  1  0.62825720  0.11278698  0.12449613  1
  O  O176  1  0.62780314  0.12276506  0.61306451  1
  O  O177  1  0.62603227  0.61561576  0.12409881  1
  O  O178  1  0.61265119  0.62029098  0.61600908  1
  O  O179  1  0.38206296  0.37549396  0.38561037  1
  O  O180  1  0.38192577  0.38592575  0.87580152  1
  O  O181  1  0.38845486  0.88431806  0.38280410  1
  O  O182  1  0.38136119  0.88181687  0.88311423  1
  O  O183  1  0.87830215  0.38071093  0.37930599  1
  O  O184  1  0.87923505  0.37110919  0.88781108  1
  O  O185  1  0.87372421  0.88435349  0.37457135  1
  O  O186  1  0.88949348  0.87998016  0.88334446  1
  O  O187  1  0.25638263  0.00809221  0.37042651  1
  O  O188  1  0.24985115  0.01829655  0.87738619  1
  O  O189  1  0.25438794  0.50606838  0.37930768  1
  O  O190  1  0.25552797  0.49584718  0.86141547  1
  O  O191  1  0.75851990  0.00703687  0.37359553  1
  O  O192  1  0.75030092  0.00797086  0.87028926  1
  O  O193  1  0.76249650  0.50472842  0.37370370  1
  O  O194  1  0.75247991  0.49784800  0.86128147  1
  O  O195  1  0.23712751  0.50194127  0.12338957  1
  O  O196  1  0.23993556  0.49767384  0.63759872  1
  O  O197  1  0.23562796  1.00480843  0.13401001  1
  O  O198  1  0.25633756  0.98965295  0.61987173  1
  O  O199  1  0.74126032  0.49720498  0.12811677  1
  O  O200  1  0.74845579  0.49009198  0.63457624  1
  O  O201  1  0.73530629  0.99448624  0.12395247  1
  O  O202  1  0.74092001  1.00724352  0.63568129  1
  O  O203  1  0.00625002  0.36900949  0.25485703  1
  O  O204  1  -0.00879664  0.35998008  0.75059986  1
  O  O205  1  0.00803883  0.86842780  0.24996396  1
  O  O206  1  0.01457484  0.87069487  0.75295436  1
  O  O207  1  0.51093779  0.36376136  0.25691961  1
  O  O208  1  0.50568841  0.37080222  0.75656234  1
  O  O209  1  0.49875379  0.86643461  0.25875910  1
  O  O210  1  0.48991113  0.87804288  0.76844496  1
  O  O211  1  0.50163216  0.14102254  0.25577926  1
  O  O212  1  0.49345712  0.13838852  0.75848089  1
  O  O213  1  0.48956124  0.63173637  0.25771986  1
  O  O214  1  0.48627294  0.62305402  0.74040855  1
  O  O215  1  0.99478624  0.13161624  0.24170873  1
  O  O216  1  0.99365014  0.13172229  0.74407990  1
  O  O217  1  0.99914199  0.63732273  0.25152108  1
  O  O218  1  1.01073573  0.64027851  0.75477503  1
  O  O219  1  0.35951946  0.25712363  0.00286765  1
  O  O220  1  0.36985476  0.25338217  0.50649219  1
  O  O221  1  0.37604166  0.76313285  0.00007750  1
  O  O222  1  0.37148891  0.75577026  0.50537286  1
  O  O223  1  0.86733133  0.25694125  0.00376119  1
  O  O224  1  0.86937248  0.25358055  0.50494679  1
  O  O225  1  0.87845323  0.76233616  0.00761638  1
  O  O226  1  0.88165121  0.75774640  0.51630968  1
  O  O227  1  0.13242201  0.24299898  0.49359965  1
  O  O228  1  0.12998510  0.24540083  0.99304771  1
  O  O229  1  0.12472515  0.74210367  0.49490963  1
  O  O230  1  0.12254234  0.74003473  0.99305600  1
  O  O231  1  0.62790601  0.24315100  0.49435139  1
  O  O232  1  0.63820689  0.25687659  0.99610669  1
  O  O233  1  0.62797682  0.73687345  0.50058154  1
  O  O234  1  0.61107522  0.73439427  1.00483561  1
  O  O235  1  0.50296118  0.25326024  0.13295224  1
  O  O236  1  0.49117188  0.25396730  0.63671079  1
  O  O237  1  0.48956268  0.75483099  0.13937744  1
  O  O238  1  0.48426679  0.73762759  0.62155112  1
  O  O239  1  0.99576228  0.24122384  0.12800382  1
  O  O240  1  0.99454955  0.24090537  0.63179293  1
  O  O241  1  0.98837194  0.75541203  0.13415438  1
  O  O242  1  0.99644270  0.74985609  0.63735396  1
  O  O243  1  0.00566677  0.25357812  0.36885347  1
  O  O244  1  0.00897007  0.25012598  0.86684678  1
  O  O245  1  0.01076453  0.74567585  0.36734205  1
  O  O246  1  0.01313323  0.76464268  0.86179244  1
  O  O247  1  0.50552407  0.25874842  0.36955779  1
  O  O248  1  0.50479823  0.26482695  0.86763417  1
  O  O249  1  0.50382352  0.75894665  0.37186911  1
  O  O250  1  0.49665128  0.76559322  0.87265378  1
  O  O251  1  0.24503357  0.13099375  0.49440060  1
  O  O252  1  0.23859469  0.13628446  0.99329609  1
  O  O253  1  0.23927576  0.62752473  0.49010615  1
  O  O254  1  0.23845715  0.62682480  0.99926084  1
  O  O255  1  0.74512813  0.12989106  0.49432962  1
  O  O256  1  0.75715378  0.13453441  0.98840519  1
  O  O257  1  0.74194818  0.62458326  0.49040180  1
  O  O258  1  0.72822626  0.62418432  1.00021984  1
  O  O259  1  0.24891775  0.36142318  -0.00180648  1
  O  O260  1  0.25867260  0.36367011  0.49216585  1
  O  O261  1  0.26635786  0.88325833  -0.00521194  1
  O  O262  1  0.25740035  0.87330046  0.50599786  1
  O  O263  1  0.75804652  0.36857187  -0.00109186  1
  O  O264  1  0.75325684  0.36855529  0.50677141  1
  O  O265  1  0.75946511  0.87937359  0.01286770  1
  O  O266  1  0.77086066  0.87070993  0.49565726  1
  O  O267  1  0.12023220  0.49357754  0.24145973  1
  O  O268  1  0.13673719  0.49881985  0.74123499  1
  O  O269  1  0.12630467  0.99533728  0.24442153  1
  O  O270  1  0.12370801  0.98876194  0.74920147  1
  O  O271  1  0.62364634  0.49254020  0.24310848  1
  O  O272  1  0.63294561  0.49163270  0.74943066  1
  O  O273  1  0.62261335  0.99751978  0.23502296  1
  O  O274  1  0.63305756  1.00646666  0.73880149  1
  O  O275  1  0.36672100  0.00056055  0.25375465  1
  O  O276  1  0.38115108  0.01646086  0.74651683  1
  O  O277  1  0.36839747  0.49830954  0.25273631  1
  O  O278  1  0.36345499  0.50306202  0.75398988  1
  O  O279  1  0.87282589  0.00631073  0.25756793  1
  O  O280  1  0.86877018  0.01143722  0.75078802  1
  O  O281  1  0.87458172  0.50170149  0.25794749  1
  O  O282  1  0.85992409  0.49795747  0.75319662  1
  O  O283  1  0.11893833  0.37191856  0.36606190  1
  O  O284  1  0.12178056  0.36431775  0.87857762  1
  O  O285  1  0.12331606  0.86568370  0.36884539  1
  O  O286  1  0.12475472  0.87223605  0.86465903  1
  O  O287  1  0.61858410  0.37141242  0.37039445  1
  O  O288  1  0.61772577  0.37059821  0.87020905  1
  O  O289  1  0.61411353  0.87705066  0.37488206  1
  O  O290  1  0.60650277  0.88529976  0.87771481  1
  O  O291  1  0.36857743  0.12505933  0.12455426  1
  O  O292  1  0.37277389  0.13956558  0.63135412  1
  O  O293  1  0.37019132  0.62385720  0.14104261  1
  O  O294  1  0.37558956  0.63053973  0.62859918  1
  O  O295  1  0.88097165  0.12808906  0.12775556  1
  O  O296  1  0.88124423  0.13010898  0.63118574  1
  O  O297  1  0.86775003  0.63832942  0.12325496  1
  O  O298  1  0.88345143  0.62893875  0.61808799  1
  O  O299  1  0.23978079  0.24887514  0.11133088  1
  O  O300  1  0.25644801  0.24884458  0.61325478  1
  O  O301  1  0.26314861  0.75964787  0.16600309  1
  O  O302  1  0.26035020  0.75707227  0.62250847  1
  O  O303  1  0.75577427  0.25157447  0.11643969  1
  O  O304  1  0.75505586  0.25487048  0.62169193  1
  O  O305  1  0.75916285  0.75926478  0.12889557  1
  O  O306  1  0.77253363  0.74008030  0.62423792  1
  O  O307  1  0.24641882  0.24034625  0.38370922  1
  O  O308  1  0.24230723  0.24304918  0.88270905  1
  O  O309  1  0.23407556  0.74109351  0.37150964  1
  O  O310  1  0.23886145  0.75395454  0.86578314  1
  O  O311  1  0.74373932  0.24262226  0.38059962  1
  O  O312  1  0.74492956  0.24339734  0.88154279  1
  O  O313  1  0.74950327  0.74212865  0.37938657  1
  O  O314  1  0.74403079  0.77909439  0.87076579  1
  O  O315  1  0.01106684  0.13173234  0.00652905  1
  O  O316  1  0.01051820  0.12699878  0.50878809  1
  O  O317  1  0.01159875  0.61575848  0.00032920  1
  O  O318  1  0.01723078  0.62126847  0.49506134  1
  O  O319  1  0.49594343  0.11219475  -0.00323303  1
  O  O320  1  0.51137125  0.11599160  0.49128791  1
  O  O321  1  0.50561948  0.61309011  -0.00521172  1
  O  O322  1  0.50462937  0.62238154  0.50381211  1
  O  O323  1  0.49284147  0.37425760  0.49291976  1
  O  O324  1  0.49512298  0.38470960  0.99310991  1
  O  O325  1  0.49648626  0.88105837  0.49535026  1
  O  O326  1  0.49017548  0.88356312  0.98905586  1
  O  O327  1  0.99311617  0.37495929  0.49298142  1
  O  O328  1  0.99422552  0.38842961  0.99805571  1
  O  O329  1  0.98489020  0.87630711  0.50255768  1
  O  O330  1  0.99587917  0.87239321  0.99033123  1
  O  O331  1  0.49147043  0.48530768  0.37377008  1
  O  O332  1  0.49328138  0.49074351  0.87882974  1
  O  O333  1  0.49816526  0.99494855  0.38308420  1
  O  O334  1  0.49663906  0.99651651  0.88664886  1
  O  O335  1  0.98876810  0.49447498  0.37804291  1
  O  O336  1  0.99646174  0.50134892  0.87996952  1
  O  O337  1  0.98429025  1.01284467  0.38014120  1
  O  O338  1  1.00158049  0.98860031  0.86925640  1
  O  O339  1  0.00468715  0.01228421  0.12981885  1
  O  O340  1  -0.00282228  0.01367614  0.62157635  1
  O  O341  1  0.01043707  0.49929022  0.11670595  1
  O  O342  1  0.01734916  0.49581361  0.62934347  1
  O  O343  1  0.51072955  -0.00342913  0.11382410  1
  O  O344  1  0.50865733  -0.00244243  0.61147192  1
  O  O345  1  0.51131978  0.49805030  0.11265613  1
  O  O346  1  0.49671889  0.51060179  0.62273668  1
  O  O347  1  0.24268925  0.37225597  0.25567863  1
  O  O348  1  0.25548490  0.38278599  0.75010114  1
  O  O349  1  0.23309801  0.89315324  0.26078086  1
  O  O350  1  0.23811529  0.87469503  0.74147735  1
  O  O351  1  0.73708242  0.37424780  0.25096732  1
  O  O352  1  0.74255004  0.37515239  0.74523705  1
  O  O353  1  0.74642941  0.87806150  0.23633829  1
  O  O354  1  0.75464426  0.88942503  0.75361891  1
  O  O355  1  0.24763536  0.11521925  0.25916037  1
  O  O356  1  0.25895051  0.13417859  0.75707530  1
  O  O357  1  0.25624120  0.62130126  0.26393702  1
  O  O358  1  0.26048301  0.61626685  0.74586451  1
  O  O359  1  0.75570049  0.12377666  0.25886110  1
  O  O360  1  0.75829431  0.12185609  0.76002751  1
  O  O361  1  0.75238855  0.62332160  0.26370264  1
  O  O362  1  0.74338230  0.61015397  0.74574422  1
  O  O363  1  0.36444034  0.12082951  0.37195392  1
  O  O364  1  0.36328761  0.12622614  0.86307710  1
  O  O365  1  0.36649635  0.61483374  0.37017520  1
  O  O366  1  0.38079970  0.61168894  0.86678101  1
  O  O367  1  0.86361597  0.12201318  0.37304839  1
  O  O368  1  0.86920717  0.12349966  0.86777462  1
  O  O369  1  0.86979207  0.61748216  0.37792516  1
  O  O370  1  0.87202734  0.64028148  0.88959366  1
  O  O371  1  0.12109769  0.38265589  0.13731859  1
  O  O372  1  0.12674489  0.38238498  0.61943662  1
  O  O373  1  0.11694247  0.88718426  0.13219312  1
  O  O374  1  0.13336820  0.87320585  0.63518177  1
  O  O375  1  0.62739346  0.38491042  0.13393610  1
  O  O376  1  0.63053789  0.37585911  0.63233374  1
  O  O377  1  0.63089935  0.87972581  0.12245210  1
  O  O378  1  0.62812829  0.88702298  0.61459811  1
  O  O379  1  0.12116140  0.25647362  0.25476920  1
  O  O380  1  0.11573863  0.24586529  0.75936639  1
  O  O381  1  0.11540242  0.75815176  0.25535254  1
  O  O382  1  0.11965954  0.75703710  0.75367693  1
  O  O383  1  0.61698316  0.25541715  0.25419497  1
  O  O384  1  0.61776997  0.25569714  0.75478393  1
  O  O385  1  0.61372086  0.75126055  0.25324087  1
  O  O386  1  0.61156665  0.75684815  0.72506380  1
  O  O387  1  0.39237835  0.24943359  0.25298403  1
  O  O388  1  0.38189256  0.24713839  0.74347944  1
  O  O389  1  0.38723906  0.73519017  0.26572191  1
  O  O390  1  0.37586520  0.74231429  0.74246366  1
  O  O391  1  0.87936361  0.24400153  0.24303292  1
  O  O392  1  0.87947530  0.23876875  0.74700318  1
  O  O393  1  0.88290055  0.74808218  0.24193620  1
  O  O394  1  0.89286383  0.75144911  0.73600832  1
  O  O395  1  0.37321262  0.49043972  0.49712578  1
  O  O396  1  0.37998984  0.49922045  0.99240277  1
  O  O397  1  0.38567692  0.99856502  0.49507212  1
  O  O398  1  0.38567465  0.99394547  0.99845373  1
  O  O399  1  0.87626193  0.49211523  0.49418121  1
  O  O400  1  0.88186096  0.49605552  0.99779439  1
  O  O401  1  0.87634178  0.98840865  0.49541462  1
  O  O402  1  0.87557646  0.98746454  1.00170827  1
  O  O403  1  0.12799599  0.01030987  0.00735089  1
  O  O404  1  0.12541565  0.01211587  0.49231979  1
  O  O405  1  0.12047768  0.51071311  0.00451231  1
  O  O406  1  0.12612579  0.50644475  0.51562977  1
  O  O407  1  0.61195115  -0.00132981  0.01027272  1
  O  O408  1  0.62236197  0.00729842  0.50507607  1
  O  O409  1  0.61773993  0.50682562  0.00502882  1
  O  O410  1  0.62133371  0.51032431  0.50137389  1
  O  O411  1  0.36388978  0.39150291  0.13414093  1
  O  O412  1  0.37854929  0.36571407  0.61334863  1
  O  O413  1  0.37837915  0.87629148  0.10783557  1
  O  O414  1  0.37038636  0.86855578  0.62064228  1
  O  O415  1  0.87421752  0.36950615  0.11345057  1
  O  O416  1  0.86932391  0.36834114  0.62019089  1
  O  O417  1  0.86841874  0.86942321  0.11916428  1
  O  O418  1  0.87630997  0.87592053  0.62012395  1
  O  O419  1  0.13465796  0.13036112  0.38026696  1
  O  O420  1  0.12839445  0.13446547  0.88164470  1
  O  O421  1  0.13010709  0.62795859  0.38271168  1
  O  O422  1  0.12445801  0.63465149  0.88853119  1
  O  O423  1  0.63676032  0.12665768  0.38191711  1
  O  O424  1  0.63524635  0.13318223  0.87038103  1
  O  O425  1  0.63316151  0.62362429  0.38144445  1
  O  O426  1  0.61816847  0.62872784  0.88383941  1
