# generated using pymatgen
data_V85Zn86O256
_symmetry_space_group_name_H-M   'P 1'
_cell_length_a   16.92674879
_cell_length_b   16.93732487
_cell_length_c   16.93492867
_cell_angle_alpha   90.07142629
_cell_angle_beta   89.98243478
_cell_angle_gamma   89.97046766
_symmetry_Int_Tables_number   1
_chemical_formula_structural   V85Zn86O256
_chemical_formula_sum   'V85 Zn86 O256'
_cell_volume   4855.13513939
_cell_formula_units_Z   1
loop_
 _symmetry_equiv_pos_site_id
 _symmetry_equiv_pos_as_xyz
  1  'x, y, z'
loop_
 _atom_site_type_symbol
 _atom_site_label
 _atom_site_symmetry_multiplicity
 _atom_site_fract_x
 _atom_site_fract_y
 _atom_site_fract_z
 _atom_site_occupancy
  V  V0  1  0.11643747  0.75226966  0.87387682  1
  V  V1  1  0.25189106  0.75159352  0.49590617  1
  V  V2  1  0.36938616  0.24841712  0.12556904  1
  V  V3  1  0.00164160  0.75058526  0.25146210  1
  V  V4  1  0.87474876  0.87830726  -0.00121211  1
  V  V5  1  0.25080047  0.37389908  0.62116829  1
  V  V6  1  0.50042674  0.88683115  0.36385982  1
  V  V7  1  0.75394401  0.24458522  0.48720125  1
  V  V8  1  0.74962812  0.50029245  0.24588587  1
  V  V9  1  -0.00026498  0.24786088  0.75037688  1
  V  V10  1  0.62452384  0.37297038  0.75258473  1
  V  V11  1  0.38291184  0.12088202  0.24595017  1
  V  V12  1  0.73846657  0.87184617  0.13420096  1
  V  V13  1  0.25155991  0.49856439  0.25179778  1
  V  V14  1  0.87378113  0.49952061  0.87541390  1
  V  V15  1  0.12465179  0.62950932  0.00080479  1
  V  V16  1  0.50184145  0.24277516  0.75303796  1
  V  V17  1  0.25151562  0.12422376  0.87714793  1
  V  V18  1  0.11985695  0.37587735  0.25099229  1
  V  V19  1  0.00239218  0.62781282  0.12626472  1
  V  V20  1  0.86048001  0.11970876  0.74899671  1
  V  V21  1  0.38054669  0.75050010  0.62131010  1
  V  V22  1  0.11305757  0.12073615  0.00216109  1
  V  V23  1  0.25346907  0.25239058  0.49746893  1
  V  V24  1  -0.00082366  0.50182413  0.00030052  1
  V  V25  1  0.75200887  0.62892135  0.37346104  1
  V  V26  1  0.87171527  0.37227449  0.00463664  1
  V  V27  1  0.87128863  0.00917277  0.37330296  1
  V  V28  1  0.74719924  0.75061623  -0.00147942  1
  V  V29  1  0.12741771  0.87658250  0.25098634  1
  V  V30  1  0.12391928  0.87197746  0.74842635  1
  V  V31  1  0.00099518  0.12348456  0.62685561  1
  V  V32  1  0.74676377  0.62483102  0.87555039  1
  V  V33  1  0.37762040  0.62587503  0.74900356  1
  V  V34  1  0.37602806  -0.00471971  0.86965924  1
  V  V35  1  0.61562296  0.75180625  0.87325313  1
  V  V36  1  -0.00388500  0.24593975  0.23284997  1
  V  V37  1  0.24904354  0.75321233  0.00144395  1
  V  V38  1  0.87780112  0.75307154  0.62817071  1
  V  V39  1  0.87723673  0.62494636  0.25261463  1
  V  V40  1  0.12404453  0.50188132  0.62198201  1
  V  V41  1  0.25285129  0.87614792  0.12546202  1
  V  V42  1  0.61405674  0.75349082  0.36458815  1
  V  V43  1  -0.00733404  0.48860809  0.49754934  1
  V  V44  1  0.49461923  0.26088562  0.25117846  1
  V  V45  1  0.50041654  0.11363572  0.61857975  1
  V  V46  1  -0.00280341  0.88279392  0.87146448  1
  V  V47  1  0.74602206  0.12369709  0.89421033  1
  V  V48  1  0.74469488  0.36959723  0.12323277  1
  V  V49  1  -0.00133212  0.87617478  0.37648488  1
  V  V50  1  0.74714633  0.49881823  0.74889076  1
  V  V51  1  0.38487896  0.48526111  0.38765778  1
  V  V52  1  0.75189064  0.37186224  0.62372383  1
  V  V53  1  0.25378093  0.12340154  0.37334510  1
  V  V54  1  0.13132388  0.49516097  0.12365805  1
  V  V55  1  0.38920391  0.62369583  0.25067992  1
  V  V56  1  0.62705347  0.24703646  0.89394657  1
  V  V57  1  0.38445316  0.87478501  -0.00242655  1
  V  V58  1  0.24801589  0.62859948  0.87326810  1
  V  V59  1  0.00106235  0.62980903  0.62558985  1
  V  V60  1  0.12323765  0.37448523  0.75199014  1
  V  V61  1  0.24976889  0.50106499  0.74894897  1
  V  V62  1  0.61697522  0.01188596  0.12692116  1
  V  V63  1  0.62032603  0.61723378  0.49990526  1
  V  V64  1  0.11602107  0.25333256  0.37549935  1
  V  V65  1  0.25586655  0.88128508  0.62948154  1
  V  V66  1  0.74806860  0.75347693  0.50156905  1
  V  V67  1  0.25370478  0.00027626  0.25315963  1
  V  V68  1  0.13054942  0.00238285  0.62959921  1
  V  V69  1  0.87631650  0.62700504  0.74920462  1
  V  V70  1  0.74544124  0.00929480  0.25231073  1
  V  V71  1  0.49560922  0.37533478  0.87579706  1
  V  V72  1  0.50246361  0.01405617  -0.00250477  1
  V  V73  1  0.38732404  0.74377246  0.12890334  1
  V  V74  1  0.63532591  -0.00070985  0.62264772  1
  V  V75  1  0.49780755  0.50447238  0.00692037  1
  V  V76  1  0.62479195  0.11832275  0.48902760  1
  V  V77  1  0.00091733  0.00022697  0.50032034  1
  V  V78  1  0.87388031  0.25212693  0.62115013  1
  V  V79  1  0.61779036  0.25955254  0.37606002  1
  V  V80  1  0.36557726  0.37492144  0.00459822  1
  V  V81  1  0.37166158  0.12161243  0.74474881  1
  V  V82  1  0.62521779  0.88424024  0.75686595  1
  V  V83  1  0.38624626  0.88886671  0.49665146  1
  V  V84  1  0.40138524  0.27601360  0.60409962  1
  Zn  Zn85  1  0.87373334  0.87747176  0.50231209  1
  Zn  Zn86  1  -0.00149382  0.37501826  0.87685917  1
  Zn  Zn87  1  0.25140997  0.62266789  0.37557165  1
  Zn  Zn88  1  0.12679847  0.74865330  0.37711259  1
  Zn  Zn89  1  0.10989857  0.01026650  0.12567629  1
  Zn  Zn90  1  0.37302607  0.50086840  0.87526451  1
  Zn  Zn91  1  0.12570943  0.62539872  0.49751947  1
  Zn  Zn92  1  0.61607932  0.50712738  0.13200788  1
  Zn  Zn93  1  0.24539997  0.25114541  0.00476803  1
  Zn  Zn94  1  0.87887079  0.12641801  0.23865096  1
  Zn  Zn95  1  0.82814129  0.20888892  0.07608221  1
  Zn  Zn96  1  0.49948309  0.75390676  0.75132278  1
  Zn  Zn97  1  0.88705433  0.48104944  0.37084658  1
  Zn  Zn98  1  0.62139726  0.49277634  0.61399685  1
  Zn  Zn99  1  0.61657104  0.62798546  0.00427471  1
  Zn  Zn100  1  0.12844738  0.24948531  0.87520179  1
  Zn  Zn101  1  0.87187416  0.75189946  0.12657943  1
  Zn  Zn102  1  0.75338790  0.87877147  0.63009220  1
  Zn  Zn103  1  0.62023172  0.38006977  0.25341072  1
  Zn  Zn104  1  0.86744401  -0.00254054  0.86854636  1
  Zn  Zn105  1  0.49893260  0.61889556  0.61930607  1
  Zn  Zn106  1  0.12666002  0.12413799  0.49915422  1
  Zn  Zn107  1  0.18689467  0.18768698  0.18545580  1
  Zn  Zn108  1  0.19240579  0.18937241  0.68601353  1
  Zn  Zn109  1  0.19209348  0.68763146  0.18920889  1
  Zn  Zn110  1  0.19055264  0.69189650  0.68368444  1
  Zn  Zn111  1  0.68030220  0.18714626  0.19142327  1
  Zn  Zn112  1  0.68399801  0.18659072  0.68639664  1
  Zn  Zn113  1  0.68070310  0.68427497  0.18472436  1
  Zn  Zn114  1  0.68757127  0.69010921  0.68691628  1
  Zn  Zn115  1  0.30678191  0.31546858  0.30975744  1
  Zn  Zn116  1  0.31498875  0.30815921  0.80687217  1
  Zn  Zn117  1  0.32230632  0.81229423  0.31289050  1
  Zn  Zn118  1  0.31095755  0.81329590  0.81130312  1
  Zn  Zn119  1  0.81530527  0.31234042  0.30954841  1
  Zn  Zn120  1  0.81142007  0.30819436  0.81602573  1
  Zn  Zn121  1  0.81367149  0.81467647  0.31367188  1
  Zn  Zn122  1  0.80683695  0.81201529  0.80959866  1
  Zn  Zn123  1  0.18930763  0.43799529  0.43558936  1
  Zn  Zn124  1  0.18602961  0.43954707  0.93447373  1
  Zn  Zn125  1  0.18972150  0.93688831  0.43971521  1
  Zn  Zn126  1  0.19104969  0.94199849  0.93686652  1
  Zn  Zn127  1  0.72397720  0.42343980  0.42394974  1
  Zn  Zn128  1  0.68425605  0.43624994  0.93937123  1
  Zn  Zn129  1  0.68503884  0.93546369  0.43549488  1
  Zn  Zn130  1  0.68511244  0.93986469  0.93897961  1
  Zn  Zn131  1  0.31009546  0.06263234  0.06305728  1
  Zn  Zn132  1  0.31315080  0.06622625  0.56090384  1
  Zn  Zn133  1  0.31340518  0.56414794  0.06432512  1
  Zn  Zn134  1  0.31297298  0.56351923  0.56077645  1
  Zn  Zn135  1  0.81556571  0.04657477  0.06626112  1
  Zn  Zn136  1  0.81238080  0.06538816  0.55996471  1
  Zn  Zn137  1  0.81067104  0.56419104  0.06427601  1
  Zn  Zn138  1  0.81102705  0.56310171  0.56162860  1
  Zn  Zn139  1  0.43063585  0.43553396  0.18801630  1
  Zn  Zn140  1  0.44247147  0.44131895  0.68313775  1
  Zn  Zn141  1  0.43761852  0.93811806  0.18578271  1
  Zn  Zn142  1  0.44499210  0.93690524  0.68901242  1
  Zn  Zn143  1  0.93942637  0.43519742  0.18516236  1
  Zn  Zn144  1  0.93676643  0.43848706  0.68472096  1
  Zn  Zn145  1  0.93237045  0.93973523  0.18650870  1
  Zn  Zn146  1  0.94046971  0.93689013  0.69006193  1
  Zn  Zn147  1  0.06538309  0.06499825  0.31094145  1
  Zn  Zn148  1  0.06481380  0.06139848  0.81208126  1
  Zn  Zn149  1  0.06607721  0.56323554  0.31767983  1
  Zn  Zn150  1  0.06011918  0.56399548  0.81037489  1
  Zn  Zn151  1  0.56259238  0.06473261  0.30953141  1
  Zn  Zn152  1  0.56482698  0.06163621  0.81658612  1
  Zn  Zn153  1  0.56313536  0.55823400  0.32116079  1
  Zn  Zn154  1  0.56081174  0.56157685  0.81308124  1
  Zn  Zn155  1  0.43915146  0.18279100  0.43281766  1
  Zn  Zn156  1  0.43372074  0.18817429  0.93808727  1
  Zn  Zn157  1  0.43674728  0.68535915  0.43318515  1
  Zn  Zn158  1  0.43394745  0.68886114  0.93684954  1
  Zn  Zn159  1  0.93868179  0.18570853  0.43746829  1
  Zn  Zn160  1  0.93730136  0.18633165  0.93059503  1
  Zn  Zn161  1  0.93857486  0.68580322  0.44153133  1
  Zn  Zn162  1  0.93630146  0.69223503  0.93699672  1
  Zn  Zn163  1  0.06482948  0.31347888  0.05835328  1
  Zn  Zn164  1  0.06531824  0.31189541  0.56238668  1
  Zn  Zn165  1  0.04757576  0.84355686  0.07611603  1
  Zn  Zn166  1  0.06354767  0.81331525  0.56300700  1
  Zn  Zn167  1  0.55408108  0.31734425  0.07077417  1
  Zn  Zn168  1  0.57038532  0.30650742  0.56412646  1
  Zn  Zn169  1  0.56296387  0.81540682  0.06149982  1
  Zn  Zn170  1  0.56458050  0.81279714  0.56130080  1
  O  O171  1  0.12624320  0.12573836  0.10859299  1
  O  O172  1  0.12222034  0.11736686  0.62645761  1
  O  O173  1  0.11967834  0.62125753  0.12030121  1
  O  O174  1  0.11794685  0.62084144  0.62607759  1
  O  O175  1  0.62755883  0.11027207  0.12163465  1
  O  O176  1  0.61963184  0.11664832  0.61838339  1
  O  O177  1  0.62567527  0.61904479  0.11640460  1
  O  O178  1  0.62879897  0.62673121  0.60818966  1
  O  O179  1  0.37022152  0.38626747  0.37269799  1
  O  O180  1  0.38422813  0.37256525  0.87773083  1
  O  O181  1  0.38831234  0.87222078  0.38738213  1
  O  O182  1  0.36810303  0.88525211  0.88248588  1
  O  O183  1  0.83081792  0.38654413  0.38995403  1
  O  O184  1  0.87430013  0.38470059  0.87994148  1
  O  O185  1  0.88691609  0.88276686  0.37620798  1
  O  O186  1  0.88016084  0.87311771  0.87497593  1
  O  O187  1  0.24392771  0.00709872  0.36291225  1
  O  O188  1  0.26364594  0.01177686  0.87638563  1
  O  O189  1  0.25764435  0.50142837  0.36658748  1
  O  O190  1  0.24900298  0.51030332  0.86603610  1
  O  O191  1  0.75798090  -0.01120332  0.36332043  1
  O  O192  1  0.74670788  0.01824884  0.87894300  1
  O  O193  1  0.74744330  0.52081686  0.36214294  1
  O  O194  1  0.75419430  0.50493032  0.87060644  1
  O  O195  1  0.23714239  0.50552405  0.13045544  1
  O  O196  1  0.24324069  0.49461424  0.62919058  1
  O  O197  1  0.24862198  0.99101412  0.13496780  1
  O  O198  1  0.24310861  0.99367217  0.61948192  1
  O  O199  1  0.75084523  0.49678662  0.13705379  1
  O  O200  1  0.74835299  0.48964790  0.62968883  1
  O  O201  1  0.73660571  0.98883447  0.12996151  1
  O  O202  1  0.73991071  1.00049483  0.62364547  1
  O  O203  1  0.01040530  0.36544175  0.24807007  1
  O  O204  1  0.00947050  0.36910656  0.74652809  1
  O  O205  1  0.00283849  0.86642536  0.25982134  1
  O  O206  1  0.01169809  0.87252051  0.75683919  1
  O  O207  1  0.49970020  0.36530783  0.24875222  1
  O  O208  1  0.50295231  0.36533421  0.75843166  1
  O  O209  1  0.49049511  0.87435422  0.26490375  1
  O  O210  1  0.51825099  0.87026457  0.74624899  1
  O  O211  1  0.48632802  0.13390473  0.25600023  1
  O  O212  1  0.49271305  0.12756732  0.74788833  1
  O  O213  1  0.48774792  0.61856461  0.25209805  1
  O  O214  1  0.48634563  0.62900940  0.75257125  1
  O  O215  1  1.00400185  0.14173349  0.25014946  1
  O  O216  1  0.99527225  0.13240960  0.74557770  1
  O  O217  1  0.99575958  0.63164467  0.24881939  1
  O  O218  1  0.99099631  0.61893711  0.73558054  1
  O  O219  1  0.37430713  0.25775567  0.00795470  1
  O  O220  1  0.36178133  0.23746913  0.50399205  1
  O  O221  1  0.36892028  0.75746423  0.00403741  1
  O  O222  1  0.37120633  0.75631769  0.50564403  1
  O  O223  1  0.87930629  0.26696806  -0.00835324  1
  O  O224  1  0.86667817  0.24086980  0.50932321  1
  O  O225  1  0.86029411  0.75549567  0.00016906  1
  O  O226  1  0.86800362  0.75052043  0.51044753  1
  O  O227  1  0.13516136  0.24889537  0.49347007  1
  O  O228  1  0.12689308  0.24036986  0.99454875  1
  O  O229  1  0.13800778  0.75306004  0.50001120  1
  O  O230  1  0.13020412  0.74665599  0.99112938  1
  O  O231  1  0.63135722  0.24182962  0.49279493  1
  O  O232  1  0.61512289  0.25687230  0.99202716  1
  O  O233  1  0.63319858  0.74357106  0.49220772  1
  O  O234  1  0.63251496  0.75258186  0.99172400  1
  O  O235  1  0.48560895  0.25184926  0.13698668  1
  O  O236  1  0.50675427  0.22942491  0.63718526  1
  O  O237  1  0.48636131  0.75332497  0.11825774  1
  O  O238  1  0.48959979  0.74569718  0.62423559  1
  O  O239  1  1.00003139  0.25316856  0.13440549  1
  O  O240  1  0.99468843  0.24531612  0.63145730  1
  O  O241  1  0.99865523  0.74941191  0.13886934  1
  O  O242  1  0.99183314  0.74212433  0.62041328  1
  O  O243  1  0.01375027  0.24805964  0.37662118  1
  O  O244  1  0.00119827  0.25318158  0.85917115  1
  O  O245  1  -0.00041346  0.75720011  0.36817567  1
  O  O246  1  0.01268690  0.75230269  0.87091236  1
  O  O247  1  0.50653113  0.24970903  0.36790535  1
  O  O248  1  0.50419323  0.25384064  0.87028249  1
  O  O249  1  0.51056380  0.75616819  0.37675394  1
  O  O250  1  0.51192246  0.74890400  0.87691576  1
  O  O251  1  0.24701859  0.13049308  0.49049112  1
  O  O252  1  0.24735560  0.12919240  0.98997805  1
  O  O253  1  0.24882422  0.63848712  0.50086384  1
  O  O254  1  0.24425732  0.63086819  0.99366306  1
  O  O255  1  0.73841991  0.13505106  0.50556515  1
  O  O256  1  0.75887563  0.12950568  0.99433632  1
  O  O257  1  0.74697464  0.63542332  0.49092280  1
  O  O258  1  0.75037237  0.63392316  0.99265065  1
  O  O259  1  0.26198393  0.37294803  -0.01079630  1
  O  O260  1  0.24670087  0.36637945  0.51002705  1
  O  O261  1  0.25934255  0.87419268  0.00779163  1
  O  O262  1  0.26208327  0.87126199  0.50758933  1
  O  O263  1  0.75744080  0.38405701  0.01090285  1
  O  O264  1  0.73996779  0.35901227  0.51947843  1
  O  O265  1  0.75213810  0.86789126  0.00562784  1
  O  O266  1  0.75187647  0.86326182  0.50089191  1
  O  O267  1  0.12734413  0.49407774  0.24391799  1
  O  O268  1  0.12816155  0.49324413  0.74287398  1
  O  O269  1  0.13274808  0.99387231  0.24522782  1
  O  O270  1  0.12297125  0.98967066  0.73795430  1
  O  O271  1  0.63453443  0.49986681  0.25207361  1
  O  O272  1  0.63403231  0.49160755  0.75393039  1
  O  O273  1  0.62831431  1.00209827  0.23669299  1
  O  O274  1  0.62245923  0.99041923  0.74416351  1
  O  O275  1  0.36703301  0.00933979  0.24471562  1
  O  O276  1  0.38363968  0.00684151  0.75905618  1
  O  O277  1  0.36789545  0.50737605  0.25313605  1
  O  O278  1  0.36723453  0.50978925  0.75156123  1
  O  O279  1  0.86572995  0.00032002  0.25568817  1
  O  O280  1  0.87987319  0.01433816  0.75055545  1
  O  O281  1  0.87218603  0.50790617  0.25335740  1
  O  O282  1  0.86742498  0.50482064  0.75477696  1
  O  O283  1  0.13090143  0.36544412  0.36414799  1
  O  O284  1  0.12020735  0.37330151  0.86540570  1
  O  O285  1  0.11456912  0.87569101  0.36991932  1
  O  O286  1  0.12124145  0.87172658  0.86902793  1
  O  O287  1  0.63207180  0.36274255  0.37606316  1
  O  O288  1  0.61527222  0.36699987  0.87159400  1
  O  O289  1  0.61173067  0.86327751  0.38041619  1
  O  O290  1  0.62863224  0.86990359  0.86433394  1
  O  O291  1  0.36990855  0.13226393  0.13528017  1
  O  O292  1  0.38491413  0.12637732  0.62925380  1
  O  O293  1  0.37269099  0.63004510  0.13836346  1
  O  O294  1  0.37446763  0.63415820  0.63157286  1
  O  O295  1  0.87394168  0.12081659  0.12406099  1
  O  O296  1  0.87920651  0.13322723  0.63230575  1
  O  O297  1  0.88206283  0.62826230  0.13618726  1
  O  O298  1  0.88081971  0.63146940  0.62898574  1
  O  O299  1  0.26274736  0.24991832  0.12525803  1
  O  O300  1  0.25671826  0.25759463  0.61499829  1
  O  O301  1  0.26122339  0.75473623  0.11903606  1
  O  O302  1  0.26180384  0.75993273  0.61610237  1
  O  O303  1  0.74314949  0.26357901  0.13014194  1
  O  O304  1  0.75757593  0.25301315  0.62201129  1
  O  O305  1  0.74670284  0.75942702  0.11860958  1
  O  O306  1  0.75760694  0.75110528  0.61617917  1
  O  O307  1  0.24292102  0.24463138  0.38012915  1
  O  O308  1  0.25159701  0.23660723  0.87231313  1
  O  O309  1  0.25322501  0.75465432  0.38728975  1
  O  O310  1  0.24124738  0.74740179  0.88085425  1
  O  O311  1  0.74254552  0.24547192  0.38440985  1
  O  O312  1  0.73878595  0.23863887  0.87411490  1
  O  O313  1  0.74430417  0.74518590  0.37976578  1
  O  O314  1  0.74051869  0.74492396  0.88162367  1
  O  O315  1  0.01427073  0.12488195  -0.01123983  1
  O  O316  1  0.00473724  0.11831155  0.50812795  1
  O  O317  1  0.00447015  0.62329010  0.00560835  1
  O  O318  1  0.00336730  0.61859027  0.51231493  1
  O  O319  1  0.49422505  0.11239121  0.00174958  1
  O  O320  1  0.50946481  0.12860778  0.50857830  1
  O  O321  1  0.49370063  0.60732053  -0.00826854  1
  O  O322  1  0.51693364  0.62849869  0.49679437  1
  O  O323  1  0.46353792  0.34377090  0.55650405  1
  O  O324  1  0.48810397  0.38277497  0.99247081  1
  O  O325  1  0.48936670  0.87307223  0.49547262  1
  O  O326  1  0.48708378  0.88367436  1.00247179  1
  O  O327  1  1.00043810  0.38955404  0.50857237  1
  O  O328  1  0.99228631  0.38527481  0.99944187  1
  O  O329  1  0.99882549  0.88149853  0.49276613  1
  O  O330  1  0.98351846  0.85521308  0.98214769  1
  O  O331  1  0.48492303  0.49719394  0.37515268  1
  O  O332  1  0.49506080  0.48897114  0.88006004  1
  O  O333  1  0.50776745  0.98590109  0.37365302  1
  O  O334  1  0.49304539  1.00341001  0.88884363  1
  O  O335  1  1.00047785  0.50197554  0.39142731  1
  O  O336  1  0.99185806  0.50119620  0.88126758  1
  O  O337  1  0.99561507  0.99443864  0.37845553  1
  O  O338  1  0.99836854  0.98556670  0.87131666  1
  O  O339  1  0.01551831  -0.04998425  0.11563618  1
  O  O340  1  0.00789185  0.00457594  0.62032164  1
  O  O341  1  0.00950977  0.50815758  0.12039311  1
  O  O342  1  0.00488152  0.50644837  0.61757744  1
  O  O343  1  0.51032541  -0.00358455  0.11677181  1
  O  O344  1  0.51222001  0.00901482  0.62796125  1
  O  O345  1  0.49547710  0.49386500  0.10972014  1
  O  O346  1  0.51026572  0.50671094  0.62797789  1
  O  O347  1  0.23765862  0.38883596  0.24847728  1
  O  O348  1  0.23728240  0.37799602  0.74801891  1
  O  O349  1  0.25220051  0.88192957  0.24690161  1
  O  O350  1  0.24679114  0.87445970  0.73528443  1
  O  O351  1  0.74822202  0.38500645  0.24038189  1
  O  O352  1  0.74612722  0.37715558  0.74366813  1
  O  O353  1  0.75367430  0.87926381  0.23645227  1
  O  O354  1  0.73187822  0.87088872  0.74576254  1
  O  O355  1  0.25466672  0.11813647  0.25447773  1
  O  O356  1  0.26626360  0.12966739  0.75253636  1
  O  O357  1  0.25359624  0.61146058  0.25108831  1
  O  O358  1  0.25844658  0.62348762  0.75188259  1
  O  O359  1  0.75062740  0.11221435  0.24774031  1
  O  O360  1  0.75850828  0.13057638  0.75388464  1
  O  O361  1  0.75950826  0.62337486  0.25339361  1
  O  O362  1  0.75444530  0.61821485  0.75472149  1
  O  O363  1  0.36088916  0.12901258  0.36454485  1
  O  O364  1  0.37141983  0.11864356  0.86601692  1
  O  O365  1  0.37214886  0.61969059  0.36282032  1
  O  O366  1  0.36460530  0.62753410  0.86601631  1
  O  O367  1  0.87993064  0.11144639  0.36943145  1
  O  O368  1  0.86086520  0.12571544  0.86767938  1
  O  O369  1  0.86923717  0.62804025  0.36488689  1
  O  O370  1  0.86945121  0.62056295  0.86894119  1
  O  O371  1  0.12100988  0.38633048  0.13112162  1
  O  O372  1  0.13353764  0.37932461  0.63269874  1
  O  O373  1  0.14668940  0.86263914  0.13386620  1
  O  O374  1  0.13386701  0.87977594  0.63122648  1
  O  O375  1  0.63133063  0.38447289  0.12789893  1
  O  O376  1  0.63391340  0.37221149  0.63600316  1
  O  O377  1  0.63516311  0.88235386  0.12121325  1
  O  O378  1  0.62710001  0.88374088  0.63045494  1
  O  O379  1  0.11771630  0.25710622  0.25407913  1
  O  O380  1  0.11792418  0.25705677  0.74815354  1
  O  O381  1  0.11852895  0.75662675  0.25349783  1
  O  O382  1  0.13458827  0.76365302  0.75720676  1
  O  O383  1  0.61309484  0.25057264  0.25912481  1
  O  O384  1  0.61431739  0.25246396  0.75724141  1
  O  O385  1  0.62960530  0.74835790  0.26694291  1
  O  O386  1  0.62292029  0.75606006  0.75767192  1
  O  O387  1  0.37735026  0.24563274  0.24564463  1
  O  O388  1  0.38940164  0.24474797  0.73694496  1
  O  O389  1  0.37135007  0.73339232  0.24359146  1
  O  O390  1  0.37577959  0.74557093  0.74104899  1
  O  O391  1  0.89208836  0.24918658  0.25491893  1
  O  O392  1  0.88232613  0.24226467  0.74374345  1
  O  O393  1  0.88297071  0.74361384  0.24954138  1
  O  O394  1  0.86775218  0.74241396  0.73645045  1
  O  O395  1  0.37028706  0.50130066  0.48659318  1
  O  O396  1  0.37974786  0.49321033  0.99724218  1
  O  O397  1  0.37491775  0.98702074  0.50178093  1
  O  O398  1  0.38397556  0.99504044  0.99554152  1
  O  O399  1  0.88967080  0.50529673  0.50034709  1
  O  O400  1  0.87910457  0.49552724  0.99458470  1
  O  O401  1  0.88089150  0.99951955  0.49249450  1
  O  O402  1  0.87000044  0.98183130  0.98939454  1
  O  O403  1  0.13156929  0.01640007  0.00094507  1
  O  O404  1  0.12009458  -0.00089895  0.51214604  1
  O  O405  1  0.12084435  0.50693971  0.00609513  1
  O  O406  1  0.11778073  0.50067109  0.50772171  1
  O  O407  1  0.60931359  -0.00415059  0.00810058  1
  O  O408  1  0.63009900  0.00832464  0.50677183  1
  O  O409  1  0.60514560  0.49840139  -0.00336423  1
  O  O410  1  0.63934294  0.51735245  0.49355939  1
  O  O411  1  0.37407636  0.36716159  0.11410669  1
  O  O412  1  0.35388493  0.37325683  0.64895069  1
  O  O413  1  0.36817629  0.86828250  0.11939055  1
  O  O414  1  0.37373356  0.87196140  0.61713444  1
  O  O415  1  0.86463504  0.38038073  0.11520845  1
  O  O416  1  0.86842806  0.36033177  0.63155385  1
  O  O417  1  0.85856299  0.87248944  0.11494354  1
  O  O418  1  0.87441134  0.86771611  0.62475241  1
  O  O419  1  0.13660829  0.13417160  0.37422560  1
  O  O420  1  0.13495623  0.12425408  0.87929503  1
  O  O421  1  0.13212513  0.63086039  0.37939415  1
  O  O422  1  0.12878658  0.63361640  0.87663239  1
  O  O423  1  0.61981096  0.13236511  0.38534894  1
  O  O424  1  0.63690645  0.13205828  0.87641505  1
  O  O425  1  0.63063178  0.63636692  0.38194497  1
  O  O426  1  0.62976885  0.63322591  0.87841041  1
