# generated using pymatgen
data_V85Zn86O256
_symmetry_space_group_name_H-M   'P 1'
_cell_length_a   16.94085397
_cell_length_b   16.94692890
_cell_length_c   16.94724442
_cell_angle_alpha   89.95590039
_cell_angle_beta   90.03457296
_cell_angle_gamma   90.02184796
_symmetry_Int_Tables_number   1
_chemical_formula_structural   V85Zn86O256
_chemical_formula_sum   'V85 Zn86 O256'
_cell_volume   4865.47404643
_cell_formula_units_Z   1
loop_
 _symmetry_equiv_pos_site_id
 _symmetry_equiv_pos_as_xyz
  1  'x, y, z'
loop_
 _atom_site_type_symbol
 _atom_site_label
 _atom_site_symmetry_multiplicity
 _atom_site_fract_x
 _atom_site_fract_y
 _atom_site_fract_z
 _atom_site_occupancy
  V  V0  1  0.26476030  0.25324103  0.50141891  1
  V  V1  1  0.23751555  0.74510732  -0.01330492  1
  V  V2  1  0.25269857  0.00545441  0.74366966  1
  V  V3  1  0.49725572  -0.00338686  0.50412514  1
  V  V4  1  0.74949173  0.87380755  0.62555401  1
  V  V5  1  0.37341788  0.37828392  -0.00480377  1
  V  V6  1  0.00473795  0.62612654  0.11886684  1
  V  V7  1  0.35724032  0.86591632  0.50936660  1
  V  V8  1  0.62310652  0.12552965  -0.00076586  1
  V  V9  1  0.49057265  0.50731270  0.50495785  1
  V  V10  1  0.87920320  0.37615579  -0.00367580  1
  V  V11  1  -0.00166667  0.87854951  0.37609917  1
  V  V12  1  0.38132875  0.60330250  0.75906468  1
  V  V13  1  0.00136681  0.75131458  0.25011718  1
  V  V14  1  0.24966064  0.37349429  0.12151721  1
  V  V15  1  0.49537443  0.87253870  0.37834179  1
  V  V16  1  -0.00320004  0.74454596  0.76079626  1
  V  V17  1  0.62326142  0.12554641  0.50302793  1
  V  V18  1  0.49395139  0.74254091  0.25048486  1
  V  V19  1  0.37128660  0.74423772  0.12572678  1
  V  V20  1  0.12957048  0.87016901  0.74702745  1
  V  V21  1  0.24889211  0.87288850  0.12168271  1
  V  V22  1  0.50730839  0.86161092  0.86740162  1
  V  V23  1  0.49817858  0.62008007  0.12399129  1
  V  V24  1  -0.00498614  0.13271121  0.62371115  1
  V  V25  1  0.12464151  0.87689140  0.24932588  1
  V  V26  1  0.75643412  0.12141315  0.87714200  1
  V  V27  1  0.12882168  0.12610199  -0.00163935  1
  V  V28  1  0.25397016  0.38231027  0.62549864  1
  V  V29  1  0.12881067  0.37918693  0.75188548  1
  V  V30  1  0.61811782  0.37694809  0.74668222  1
  V  V31  1  0.87908799  0.50606605  0.87039023  1
  V  V32  1  0.87561778  0.75119325  0.12198351  1
  V  V33  1  0.87613995  0.62463165  0.25141353  1
  V  V34  1  0.62281125  -0.00335641  0.62989598  1
  V  V35  1  -0.00658013  0.00576916  0.49551222  1
  V  V36  1  -0.00198254  0.12252446  0.11764809  1
  V  V37  1  0.75302026  0.74591393  0.49967057  1
  V  V38  1  0.75071159  0.87390110  0.12206842  1
  V  V39  1  0.74561177  0.62746173  0.86557768  1
  V  V40  1  0.12459268  0.25190308  0.87763788  1
  V  V41  1  0.37669357  0.87370118  -0.00495145  1
  V  V42  1  0.62929755  0.24790382  0.37733350  1
  V  V43  1  0.62535236  0.37578896  0.24928568  1
  V  V44  1  0.75745885  0.36764044  0.62456700  1
  V  V45  1  0.74574668  0.74704721  -0.00420523  1
  V  V46  1  0.87381718  0.12825171  0.74760990  1
  V  V47  1  0.13342671  0.50677570  0.12466832  1
  V  V48  1  0.37069060  0.24828104  0.12012858  1
  V  V49  1  0.61743400  0.25268512  0.86955794  1
  V  V50  1  0.62613137  0.50422597  0.62399544  1
  V  V51  1  -0.00558466  0.62648790  0.62533692  1
  V  V52  1  0.75446197  -0.00461370  0.75433679  1
  V  V53  1  0.13070783  0.38174570  0.24880003  1
  V  V54  1  0.49629707  0.12699579  0.64255552  1
  V  V55  1  0.37279817  0.73933880  0.64257329  1
  V  V56  1  0.13583912  0.62462914  0.50606252  1
  V  V57  1  0.74921486  0.25446521  0.00031038  1
  V  V58  1  0.00495067  0.49862855  -0.00161254  1
  V  V59  1  0.00057707  0.25007713  0.24628105  1
  V  V60  1  0.25441563  0.62804775  0.36269819  1
  V  V61  1  0.87442944  0.87906698  0.49624878  1
  V  V62  1  0.75463508  0.00090050  0.25804219  1
  V  V63  1  0.23975471  0.61025849  0.86915066  1
  V  V64  1  0.49649740  0.37607798  0.38281863  1
  V  V65  1  0.37944403  0.25059419  0.64492778  1
  V  V66  1  0.12156346  -0.00194160  0.11769258  1
  V  V67  1  0.62296445  0.87327446  0.24970278  1
  V  V68  1  0.75096660  0.49928732  0.25080943  1
  V  V69  1  0.12859243  0.75148898  0.38418437  1
  V  V70  1  0.62233924  -0.00044953  0.12492530  1
  V  V71  1  0.87689850  0.88831641  -0.00699720  1
  V  V72  1  0.25804354  0.12506695  0.87641815  1
  V  V73  1  0.12765403  0.25164985  0.37479156  1
  V  V74  1  0.37415000  -0.00112887  0.37623770  1
  V  V75  1  0.36782186  0.49769886  0.36384632  1
  V  V76  1  -0.00325853  0.25721240  0.75264621  1
  V  V77  1  0.49853917  0.49948417  -0.01515003  1
  V  V78  1  0.00014098  0.37882782  0.37584035  1
  V  V79  1  0.49963292  0.24975289  0.24972204  1
  V  V80  1  0.00081022  0.89552902  0.87432341  1
  V  V81  1  0.37512236  0.12379221  0.24905244  1
  V  V82  1  0.25149527  0.12632694  0.37454639  1
  V  V83  1  0.12627747  0.12754271  0.50272779  1
  V  V84  1  0.62438896  0.74683985  0.37638477  1
  Zn  Zn85  1  0.87796934  0.74902207  0.62701599  1
  Zn  Zn86  1  0.49994300  -0.00408456  -0.00332336  1
  Zn  Zn87  1  0.76041773  0.24563307  0.50580627  1
  Zn  Zn88  1  0.62067270  0.62622564  0.50213623  1
  Zn  Zn89  1  0.38043050  0.00046758  0.86812314  1
  Zn  Zn90  1  0.24975326  0.00014632  0.24744189  1
  Zn  Zn91  1  0.87773329  0.49993862  0.37747730  1
  Zn  Zn92  1  0.00246841  0.50168420  0.50154297  1
  Zn  Zn93  1  0.75408150  0.49967868  0.74671821  1
  Zn  Zn94  1  0.12565608  -0.00172358  0.62370219  1
  Zn  Zn95  1  0.12889280  0.50328474  0.63061610  1
  Zn  Zn96  1  0.88187773  0.37241246  0.50605291  1
  Zn  Zn97  1  0.75046698  0.62306350  0.37523654  1
  Zn  Zn98  1  0.62470910  0.50159403  0.12328348  1
  Zn  Zn99  1  0.49769101  0.12344288  0.12357410  1
  Zn  Zn100  1  0.87510993  0.25062888  0.12396215  1
  Zn  Zn101  1  0.75123793  0.37606321  0.12487034  1
  Zn  Zn102  1  0.76106536  0.11898695  0.38303249  1
  Zn  Zn103  1  0.62660269  0.85561591  0.75154118  1
  Zn  Zn104  1  0.87993826  0.12078569  0.25341845  1
  Zn  Zn105  1  0.62365996  0.62498187  -0.00300423  1
  Zn  Zn106  1  0.48909737  0.37385738  0.86435216  1
  Zn  Zn107  1  0.18746537  0.18871185  0.18571317  1
  Zn  Zn108  1  0.18781987  0.18971159  0.68859834  1
  Zn  Zn109  1  0.18701638  0.69032633  0.18819459  1
  Zn  Zn110  1  0.19418809  0.69138201  0.68930691  1
  Zn  Zn111  1  0.68803957  0.18631677  0.18672723  1
  Zn  Zn112  1  0.68495147  0.18742486  0.69006709  1
  Zn  Zn113  1  0.68570534  0.68579850  0.18559843  1
  Zn  Zn114  1  0.69427071  0.68306127  0.68399057  1
  Zn  Zn115  1  0.31271085  0.31487419  0.30981005  1
  Zn  Zn116  1  0.30513521  0.31239324  0.81433842  1
  Zn  Zn117  1  0.31114995  0.81255784  0.31228015  1
  Zn  Zn118  1  0.31268836  0.81309308  0.81105114  1
  Zn  Zn119  1  0.81488084  0.30961885  0.31462372  1
  Zn  Zn120  1  0.80964278  0.31511185  0.81362720  1
  Zn  Zn121  1  0.81278409  0.81422163  0.31318631  1
  Zn  Zn122  1  0.81797375  0.81178663  0.81388593  1
  Zn  Zn123  1  0.18890601  0.43938067  0.44216748  1
  Zn  Zn124  1  0.18501809  0.43435223  0.93985359  1
  Zn  Zn125  1  0.18469348  0.94330220  0.43654121  1
  Zn  Zn126  1  0.18678318  0.93766010  0.93306263  1
  Zn  Zn127  1  0.68720582  0.43764372  0.44003956  1
  Zn  Zn128  1  0.68521350  0.44091645  0.93481575  1
  Zn  Zn129  1  0.68283486  0.93364460  0.44016114  1
  Zn  Zn130  1  0.68616226  0.93576957  0.93640375  1
  Zn  Zn131  1  0.30965734  0.05962638  0.06005016  1
  Zn  Zn132  1  0.31542414  0.06489113  0.56539144  1
  Zn  Zn133  1  0.31189724  0.56414254  0.05499827  1
  Zn  Zn134  1  0.31469557  0.56826361  0.56305826  1
  Zn  Zn135  1  0.80972114  0.06460110  0.06809830  1
  Zn  Zn136  1  0.81200094  0.06241137  0.56585104  1
  Zn  Zn137  1  0.81347389  0.56210029  0.06302869  1
  Zn  Zn138  1  0.81561064  0.55660540  0.55941341  1
  Zn  Zn139  1  0.43658293  0.43641145  0.18790009  1
  Zn  Zn140  1  0.43666695  0.43792961  0.68557759  1
  Zn  Zn141  1  0.43630231  0.93353017  0.18678486  1
  Zn  Zn142  1  0.43483116  0.93125695  0.68757288  1
  Zn  Zn143  1  0.93887142  0.43732375  0.18409869  1
  Zn  Zn144  1  0.94187835  0.44078074  0.68719079  1
  Zn  Zn145  1  0.93767990  0.93762236  0.18334567  1
  Zn  Zn146  1  0.93802354  0.93962452  0.68489549  1
  Zn  Zn147  1  0.06285009  0.06349311  0.31067943  1
  Zn  Zn148  1  0.06721669  0.06501798  0.80801370  1
  Zn  Zn149  1  0.06644222  0.56428776  0.31117792  1
  Zn  Zn150  1  0.06482291  0.56476594  0.81483301  1
  Zn  Zn151  1  0.56221575  0.06227951  0.31398427  1
  Zn  Zn152  1  0.56640455  0.05428124  0.81741459  1
  Zn  Zn153  1  0.56004659  0.56198441  0.31399454  1
  Zn  Zn154  1  0.55975889  0.68099063  0.80810381  1
  Zn  Zn155  1  0.44255512  0.18481279  0.43935100  1
  Zn  Zn156  1  0.43840669  0.18938580  0.93908719  1
  Zn  Zn157  1  0.43200612  0.68677863  0.44080695  1
  Zn  Zn158  1  0.42807460  0.68442612  0.93642569  1
  Zn  Zn159  1  0.93200609  0.19246321  0.43267136  1
  Zn  Zn160  1  0.93879192  0.18682474  0.93591439  1
  Zn  Zn161  1  0.94168405  0.68769825  0.43984337  1
  Zn  Zn162  1  0.93508862  0.68860604  0.93791167  1
  Zn  Zn163  1  0.06331325  0.31302598  0.05946842  1
  Zn  Zn164  1  0.06620987  0.31206037  0.56417680  1
  Zn  Zn165  1  0.05967033  0.81523927  0.05570015  1
  Zn  Zn166  1  0.06269472  0.81195102  0.56650503  1
  Zn  Zn167  1  0.55919751  0.31336496  0.06273951  1
  Zn  Zn168  1  0.56093712  0.31375928  0.56472354  1
  Zn  Zn169  1  0.56083444  0.80963559  0.06004129  1
  Zn  Zn170  1  0.55681576  0.80674575  0.56899504  1
  O  O171  1  0.12198455  0.11881218  0.11712435  1
  O  O172  1  0.11743099  0.12585749  0.61680173  1
  O  O173  1  0.11723537  0.61829852  0.13046299  1
  O  O174  1  0.12381754  0.62680513  0.61932708  1
  O  O175  1  0.62400571  0.11693026  0.11703836  1
  O  O176  1  0.61780948  0.11958737  0.62016551  1
  O  O177  1  0.61300284  0.62489883  0.12028823  1
  O  O178  1  0.63216065  0.60828679  0.61980277  1
  O  O179  1  0.38065790  0.38712783  0.37175347  1
  O  O180  1  0.37264208  0.36379565  0.89097139  1
  O  O181  1  0.37691359  0.88239348  0.38070728  1
  O  O182  1  0.38600997  0.87304191  0.88107931  1
  O  O183  1  0.89290083  0.37595405  0.36804664  1
  O  O184  1  0.86685402  0.38913159  0.88810810  1
  O  O185  1  0.88174507  0.87205421  0.38717247  1
  O  O186  1  0.88870913  0.87562290  0.88028497  1
  O  O187  1  0.25599086  0.00881711  0.37111904  1
  O  O188  1  0.25189816  0.00808689  0.86600990  1
  O  O189  1  0.26210406  0.50569499  0.37833039  1
  O  O190  1  0.24735489  0.51150023  0.88415095  1
  O  O191  1  0.73931331  -0.00278053  0.36075827  1
  O  O192  1  0.74292999  0.00927436  0.86669752  1
  O  O193  1  0.75249379  0.50112565  0.36369912  1
  O  O194  1  0.76002661  0.51173585  0.87633425  1
  O  O195  1  0.23874367  0.49693314  0.11848927  1
  O  O196  1  0.25191828  0.48531097  0.61709127  1
  O  O197  1  0.24141715  0.99088490  0.12600760  1
  O  O198  1  0.24629376  1.00829829  0.63913748  1
  O  O199  1  0.74734423  0.49927340  0.13794879  1
  O  O200  1  0.74322395  0.48966153  0.62369565  1
  O  O201  1  0.73827348  0.99428560  0.13348079  1
  O  O202  1  0.74326590  0.99246391  0.63164164  1
  O  O203  1  0.01151049  0.36942213  0.25137709  1
  O  O204  1  0.00539060  0.36093220  0.74373159  1
  O  O205  1  0.00384950  0.87193717  0.25574321  1
  O  O206  1  0.00493714  0.87183970  0.75922625  1
  O  O207  1  0.50652953  0.37124252  0.26038129  1
  O  O208  1  0.51268930  0.37750513  0.74884597  1
  O  O209  1  0.50415310  0.86416627  0.25612689  1
  O  O210  1  0.50213351  0.87564211  0.76416876  1
  O  O211  1  0.49175729  0.13015706  0.24898419  1
  O  O212  1  0.50648831  0.11957788  0.74130239  1
  O  O213  1  0.50346043  0.63630787  0.24326178  1
  O  O214  1  0.48120709  0.61337764  0.76168261  1
  O  O215  1  1.00468424  0.13384383  0.23793113  1
  O  O216  1  0.99253888  0.13011724  0.74257256  1
  O  O217  1  0.99488969  0.63076613  0.24112323  1
  O  O218  1  1.00868373  0.63921849  0.74380095  1
  O  O219  1  0.38175655  0.25731880  0.01533093  1
  O  O220  1  0.36630698  0.24655220  0.49928523  1
  O  O221  1  0.36642444  0.75910970  0.00632443  1
  O  O222  1  0.36758106  0.76633154  0.49022214  1
  O  O223  1  0.86806895  0.25798208  -0.00244427  1
  O  O224  1  0.87281194  0.25931873  0.49787005  1
  O  O225  1  0.86727923  0.75793754  0.00590579  1
  O  O226  1  0.86849872  0.75846171  0.49948203  1
  O  O227  1  0.13255378  0.23966859  0.49537006  1
  O  O228  1  0.12057398  0.24065684  0.98972387  1
  O  O229  1  0.12278131  0.74797463  0.48874658  1
  O  O230  1  0.13997587  0.75204402  1.00457238  1
  O  O231  1  0.62328983  0.24091000  0.49352740  1
  O  O232  1  0.63075602  0.24397950  0.99675847  1
  O  O233  1  0.63231539  0.74886409  0.49366974  1
  O  O234  1  0.64209782  0.74950021  1.00440112  1
  O  O235  1  0.49218742  0.24756126  0.13370858  1
  O  O236  1  0.48684260  0.24335150  0.62201493  1
  O  O237  1  0.49280733  0.74160471  0.13024389  1
  O  O238  1  0.47108378  0.74500986  0.60727836  1
  O  O239  1  1.00198533  0.24283982  0.13065395  1
  O  O240  1  1.00447646  0.23837370  0.63305329  1
  O  O241  1  0.99691520  0.74469282  0.12812719  1
  O  O242  1  1.00027853  0.74380315  0.63528264  1
  O  O243  1  0.01106022  0.25746794  0.36486837  1
  O  O244  1  0.01194401  0.24086492  0.86416520  1
  O  O245  1  0.00919137  0.75695179  0.36993127  1
  O  O246  1  -0.00176660  0.75173734  0.86305143  1
  O  O247  1  0.50826236  0.25690945  0.37169870  1
  O  O248  1  0.51367838  0.25424664  0.88135216  1
  O  O249  1  0.50314455  0.75093897  0.36846118  1
  O  O250  1  0.50088890  0.75702905  0.87971372  1
  O  O251  1  0.24374892  0.13078283  0.49558744  1
  O  O252  1  0.23705461  0.12111858  0.99291914  1
  O  O253  1  0.24041927  0.62298630  0.48960249  1
  O  O254  1  0.25633651  0.63884822  0.98682956  1
  O  O255  1  0.73648921  0.12413365  0.50153723  1
  O  O256  1  0.74237730  0.13032969  0.99515549  1
  O  O257  1  0.75249800  0.63649177  0.49582640  1
  O  O258  1  0.75116019  0.63174338  0.99348641  1
  O  O259  1  0.25690549  0.37766302  0.01347912  1
  O  O260  1  0.24223770  0.36151095  0.51003310  1
  O  O261  1  0.25525458  0.86631836  0.00175918  1
  O  O262  1  0.25972092  0.88381867  0.49923501  1
  O  O263  1  0.75363150  0.36849015  0.00190064  1
  O  O264  1  0.74748134  0.37215299  0.51449005  1
  O  O265  1  0.75683361  0.86790949  0.00089461  1
  O  O266  1  0.75625062  0.86684336  0.50218616  1
  O  O267  1  0.12072962  0.49130294  0.23838785  1
  O  O268  1  0.11699446  0.48248230  0.75231373  1
  O  O269  1  0.12654983  0.99436438  0.23925653  1
  O  O270  1  0.13358193  0.99206614  0.74744068  1
  O  O271  1  0.63135155  0.49204694  0.25122037  1
  O  O272  1  0.63229101  0.48850152  0.73606154  1
  O  O273  1  0.62865936  0.99327936  0.24353860  1
  O  O274  1  0.63816058  0.99873840  0.74277553  1
  O  O275  1  0.37467291  0.00587743  0.25520854  1
  O  O276  1  0.35637825  -0.00997589  0.75050704  1
  O  O277  1  0.37902701  0.50116821  0.26540592  1
  O  O278  1  0.37028815  0.50406745  0.75059431  1
  O  O279  1  0.85690734  -0.00446068  0.24390246  1
  O  O280  1  0.86211943  0.00901840  0.74505016  1
  O  O281  1  0.86959306  0.50803445  0.24989582  1
  O  O282  1  0.87663823  0.49320506  0.76798897  1
  O  O283  1  0.12200644  0.37271019  0.36603255  1
  O  O284  1  0.13248985  0.36169740  0.86833090  1
  O  O285  1  0.12090584  0.86936009  0.37142636  1
  O  O286  1  0.10946508  0.88113594  0.86474515  1
  O  O287  1  0.61865787  0.36843973  0.36720282  1
  O  O288  1  0.62735382  0.36798762  0.86444066  1
  O  O289  1  0.61612087  0.86326762  0.37210592  1
  O  O290  1  0.61124920  0.87365149  0.87416628  1
  O  O291  1  0.37370869  0.13098755  0.12902468  1
  O  O292  1  0.38376650  0.13886876  0.62290230  1
  O  O293  1  0.37997209  0.63730903  0.11924175  1
  O  O294  1  0.36834636  0.62837893  0.64504274  1
  O  O295  1  0.88424650  0.12756194  0.13016466  1
  O  O296  1  0.88046213  0.12505012  0.63671949  1
  O  O297  1  0.88235791  0.62970526  0.13501564  1
  O  O298  1  0.89041453  0.62637995  0.61840561  1
  O  O299  1  0.25850209  0.26008883  0.12889724  1
  O  O300  1  0.26336722  0.25101792  0.62001028  1
  O  O301  1  0.25572437  0.75282449  0.11766710  1
  O  O302  1  0.27079816  0.74849535  0.62503174  1
  O  O303  1  0.75142410  0.24958321  0.11222195  1
  O  O304  1  0.74314142  0.26375694  0.62512194  1
  O  O305  1  0.75601301  0.75558796  0.11951460  1
  O  O306  1  0.75595356  0.75521288  0.61492476  1
  O  O307  1  0.24704729  0.24723628  0.38181121  1
  O  O308  1  0.23683077  0.23578223  0.86842817  1
  O  O309  1  0.24301950  0.73793047  0.36949455  1
  O  O310  1  0.24822664  0.75143098  0.88517888  1
  O  O311  1  0.73693999  0.24848347  0.37563353  1
  O  O312  1  0.74209931  0.24361579  0.88599794  1
  O  O313  1  0.74074858  0.75107902  0.38099857  1
  O  O314  1  0.76230579  0.73506286  0.88137412  1
  O  O315  1  0.00853210  0.12847496  0.01104552  1
  O  O316  1  0.00517867  0.12294909  0.50468985  1
  O  O317  1  -0.00637230  0.61969166  0.01336341  1
  O  O318  1  0.01408082  0.62830480  0.50831727  1
  O  O319  1  0.51265450  0.12187459  0.00121000  1
  O  O320  1  0.50955591  0.11640053  0.50698895  1
  O  O321  1  0.49821986  0.61750656  0.00559470  1
  O  O322  1  0.50079813  0.61068440  0.49393032  1
  O  O323  1  0.50394241  0.38312416  0.48682918  1
  O  O324  1  0.49054089  0.38352256  1.00282671  1
  O  O325  1  0.49348019  0.88099791  0.49420140  1
  O  O326  1  0.49282618  0.87141109  0.99047602  1
  O  O327  1  1.00768223  0.37574665  0.48833817  1
  O  O328  1  0.99186070  0.38512343  1.00279354  1
  O  O329  1  0.99360877  0.88455159  0.49826240  1
  O  O330  1  0.99346868  0.87399310  0.98296709  1
  O  O331  1  0.49039384  0.49500772  0.38179567  1
  O  O332  1  0.49986460  0.49269908  0.88673598  1
  O  O333  1  0.49395944  0.99389095  0.38203491  1
  O  O334  1  0.49752098  0.98707005  0.87873804  1
  O  O335  1  1.00253750  0.49169136  0.37360852  1
  O  O336  1  0.98917447  0.50818817  0.88478110  1
  O  O337  1  1.00726563  0.99558427  0.38794945  1
  O  O338  1  0.99792033  0.99398312  0.87005144  1
  O  O339  1  0.00891231  0.00967193  0.12900815  1
  O  O340  1  0.00066764  0.01297117  0.61409111  1
  O  O341  1  0.00856077  0.50804637  0.11918278  1
  O  O342  1  0.00696036  0.51151764  0.62610339  1
  O  O343  1  0.51156316  -0.00150341  0.12320649  1
  O  O344  1  0.50239539  0.00547211  0.62353770  1
  O  O345  1  0.49868589  0.51266917  0.12708356  1
  O  O346  1  0.50596790  0.49126283  0.60882914  1
  O  O347  1  0.23878553  0.37269014  0.24006286  1
  O  O348  1  0.24053083  0.36804655  0.73894175  1
  O  O349  1  0.24146322  0.87426277  0.24069877  1
  O  O350  1  0.23438961  0.88426639  0.75912822  1
  O  O351  1  0.74351910  0.38063057  0.24979159  1
  O  O352  1  0.74293235  0.37600601  0.73941718  1
  O  O353  1  0.74327891  0.88244150  0.24475296  1
  O  O354  1  0.75040606  0.88031260  0.74720534  1
  O  O355  1  0.25839197  0.12615035  0.25593762  1
  O  O356  1  0.24303961  0.11214882  0.75904016  1
  O  O357  1  0.24399614  0.62255382  0.26408377  1
  O  O358  1  0.25432968  0.62566142  0.76390441  1
  O  O359  1  0.74704374  0.10878712  0.25010981  1
  O  O360  1  0.75648499  0.12051710  0.75676381  1
  O  O361  1  0.75846532  0.61909714  0.25065844  1
  O  O362  1  0.75688785  0.62119754  0.76265542  1
  O  O363  1  0.37236969  0.11880755  0.37032477  1
  O  O364  1  0.36233061  0.12271112  0.88511122  1
  O  O365  1  0.36105698  0.61684484  0.37734106  1
  O  O366  1  0.36095826  0.62708233  0.86429547  1
  O  O367  1  0.87323816  0.12471746  0.36622533  1
  O  O368  1  0.86204941  0.12655369  0.87063034  1
  O  O369  1  0.87752573  0.62680732  0.36134812  1
  O  O370  1  0.86733907  0.61114110  0.88236023  1
  O  O371  1  0.13211788  0.38101310  0.12937227  1
  O  O372  1  0.13553805  0.37360256  0.63399534  1
  O  O373  1  0.12576092  0.88187069  0.12686075  1
  O  O374  1  0.11718532  0.88054600  0.64232083  1
  O  O375  1  0.62448251  0.37473601  0.13991243  1
  O  O376  1  0.63121461  0.37995148  0.62939108  1
  O  O377  1  0.62976332  0.88046972  0.12800027  1
  O  O378  1  0.62960633  0.87951892  0.62680046  1
  O  O379  1  0.11774709  0.25758316  0.25270896  1
  O  O380  1  0.11688681  0.25504508  0.75637176  1
  O  O381  1  0.11875084  0.75716427  0.25839722  1
  O  O382  1  0.11563239  0.76511095  0.74746143  1
  O  O383  1  0.62067307  0.25437667  0.25709242  1
  O  O384  1  0.63031558  0.25889671  0.76039333  1
  O  O385  1  0.61879753  0.75511482  0.25642892  1
  O  O386  1  0.62424594  0.74355200  0.74386809  1
  O  O387  1  0.37967867  0.24445015  0.24255399  1
  O  O388  1  0.37535455  0.24874796  0.74322554  1
  O  O389  1  0.38320023  0.75510812  0.24003306  1
  O  O390  1  0.37862625  0.74738518  0.74550667  1
  O  O391  1  0.89040862  0.25244627  0.24577465  1
  O  O392  1  0.88226996  0.23978570  0.75991276  1
  O  O393  1  0.88063032  0.74536049  0.24367752  1
  O  O394  1  0.89333883  0.75536307  0.74593966  1
  O  O395  1  0.38682063  0.50323168  0.49214061  1
  O  O396  1  0.38481753  0.48820401  1.00916011  1
  O  O397  1  0.37944875  0.99255546  0.49737097  1
  O  O398  1  0.37563002  0.98383767  1.00152690  1
  O  O399  1  0.88308087  0.49141976  0.49437998  1
  O  O400  1  0.88419475  0.49492044  0.99635525  1
  O  O401  1  0.88207329  0.99383054  0.50187720  1
  O  O402  1  0.86705200  0.98694566  1.00639908  1
  O  O403  1  0.12727840  0.00579799  0.01061277  1
  O  O404  1  0.11861048  0.01356845  0.50191287  1
  O  O405  1  0.11187704  0.49489045  0.00834211  1
  O  O406  1  0.12326613  0.51151927  0.50399023  1
  O  O407  1  0.62659028  0.00762853  0.00837118  1
  O  O408  1  0.61850754  0.00429322  0.50902595  1
  O  O409  1  0.61384958  0.50035658  0.00457321  1
  O  O410  1  0.61288087  0.50150389  0.50263103  1
  O  O411  1  0.36723130  0.36842338  0.12313329  1
  O  O412  1  0.36919975  0.35934830  0.62846588  1
  O  O413  1  0.37084566  0.86404503  0.11768361  1
  O  O414  1  0.37480204  0.86684987  0.61354005  1
  O  O415  1  0.87256648  0.37369122  0.11211299  1
  O  O416  1  0.86029232  0.37990452  0.62963357  1
  O  O417  1  0.87022234  0.86946926  0.11708159  1
  O  O418  1  0.86912131  0.87524539  0.61285260  1
  O  O419  1  0.13121689  0.13151724  0.38092532  1
  O  O420  1  0.13065612  0.12794435  0.88279961  1
  O  O421  1  0.13440174  0.63232785  0.38023909  1
  O  O422  1  0.13963186  0.62580465  0.87433462  1
  O  O423  1  0.62464814  0.13212147  0.38449735  1
  O  O424  1  0.63327670  0.13162451  0.88186381  1
  O  O425  1  0.62649326  0.63707028  0.37520860  1
  O  O426  1  0.64267511  0.62386955  0.87776223  1
