# generated using pymatgen
data_V85Zn86O256
_symmetry_space_group_name_H-M   'P 1'
_cell_length_a   16.91669802
_cell_length_b   16.91758718
_cell_length_c   16.92297068
_cell_angle_alpha   89.96953019
_cell_angle_beta   89.94887669
_cell_angle_gamma   89.99971626
_symmetry_Int_Tables_number   1
_chemical_formula_structural   V85Zn86O256
_chemical_formula_sum   'V85 Zn86 O256'
_cell_volume   4843.17751792
_cell_formula_units_Z   1
loop_
 _symmetry_equiv_pos_site_id
 _symmetry_equiv_pos_as_xyz
  1  'x, y, z'
loop_
 _atom_site_type_symbol
 _atom_site_label
 _atom_site_symmetry_multiplicity
 _atom_site_fract_x
 _atom_site_fract_y
 _atom_site_fract_z
 _atom_site_occupancy
  V  V0  1  0.75033051  0.00118242  0.25364642  1
  V  V1  1  0.25030435  0.12260403  0.87205835  1
  V  V2  1  0.62458884  -0.00035432  0.12652055  1
  V  V3  1  0.25689396  0.62406998  0.37552961  1
  V  V4  1  0.37485980  -0.00481893  0.87553725  1
  V  V5  1  0.37479806  0.49829416  0.87095652  1
  V  V6  1  0.50305229  0.74548724  0.74258159  1
  V  V7  1  0.49854540  0.12482688  0.12505060  1
  V  V8  1  0.87097703  0.62524346  0.76263895  1
  V  V9  1  0.12089694  0.24941199  0.87442121  1
  V  V10  1  0.87566262  0.12713828  0.25350132  1
  V  V11  1  0.49629044  0.87297637  0.38486205  1
  V  V12  1  0.12799893  0.26109343  0.37059986  1
  V  V13  1  0.37335516  0.62687937  0.24239543  1
  V  V14  1  0.75429570  0.87484347  0.11846661  1
  V  V15  1  0.87447038  -0.00430675  0.38306322  1
  V  V16  1  0.26374074  0.75258236  0.00192566  1
  V  V17  1  -0.00202329  0.87903948  0.89392845  1
  V  V18  1  0.62266838  0.50474618  0.12426660  1
  V  V19  1  0.37315921  0.37529533  -0.00163372  1
  V  V20  1  0.49674575  0.50819495  0.52279410  1
  V  V21  1  0.75070111  0.75074933  0.49000720  1
  V  V22  1  -0.00279036  0.38095314  0.87448577  1
  V  V23  1  0.87248084  0.62800403  0.25587347  1
  V  V24  1  0.24516601  0.37112873  0.62291951  1
  V  V25  1  0.24792294  0.24910393  -0.00002493  1
  V  V26  1  0.62777319  0.37729781  0.74602779  1
  V  V27  1  0.26598245  0.87097595  0.12195045  1
  V  V28  1  0.24848992  0.49963210  0.74836834  1
  V  V29  1  0.00531023  0.00538475  0.49945326  1
  V  V30  1  0.24341320  0.37215811  0.13082190  1
  V  V31  1  0.39950459  0.35946783  0.52194866  1
  V  V32  1  -0.00322694  0.62718686  0.62453405  1
  V  V33  1  0.12457941  -0.00659013  0.12245656  1
  V  V34  1  0.74668038  0.50809909  0.25497132  1
  V  V35  1  -0.00454124  0.49109816  0.49760749  1
  V  V36  1  0.75529327  0.38186585  0.61233050  1
  V  V37  1  0.86841863  0.49507731  0.37948872  1
  V  V38  1  0.62553254  0.88456196  0.74350712  1
  V  V39  1  0.12177801  0.50271338  0.62390191  1
  V  V40  1  -0.00040029  0.75651104  0.75028747  1
  V  V41  1  0.37985989  0.62010707  0.74021274  1
  V  V42  1  0.49377822  0.75250892  0.24288288  1
  V  V43  1  0.74986436  0.88244567  0.61850036  1
  V  V44  1  -0.00198291  0.50248362  0.00116499  1
  V  V45  1  0.38863516  0.13780690  0.74261239  1
  V  V46  1  0.00456983  0.86722575  0.38301493  1
  V  V47  1  0.25216646  0.87416762  0.62586729  1
  V  V48  1  0.37401010  -0.00313513  0.38351238  1
  V  V49  1  -0.00778860  0.24973197  0.74873937  1
  V  V50  1  0.62519643  0.12440384  -0.00006901  1
  V  V51  1  0.87180184  0.25192612  0.60445722  1
  V  V52  1  0.25125308  -0.00260165  0.25021729  1
  V  V53  1  0.87776584  0.75356114  0.12154795  1
  V  V54  1  0.75496571  0.50238544  0.76384336  1
  V  V55  1  0.24828330  0.24544081  0.50458891  1
  V  V56  1  0.24159615  0.12152337  0.38059052  1
  V  V57  1  -0.00064908  0.11962494  0.12554658  1
  V  V58  1  0.87236112  0.75391755  0.61915490  1
  V  V59  1  0.74941019  0.37822929  0.12650178  1
  V  V60  1  0.63596694  0.62558473  -0.00565733  1
  V  V61  1  0.63622536  0.74596860  0.86922136  1
  V  V62  1  0.24903514  0.75390509  0.49513039  1
  V  V63  1  0.87397870  -0.00208334  0.88720561  1
  V  V64  1  0.49720958  -0.00493379  0.00003711  1
  V  V65  1  0.87427527  0.37844473  -0.00349856  1
  V  V66  1  0.75076078  0.24829403  0.00115029  1
  V  V67  1  0.50148605  0.00834665  0.51206065  1
  V  V68  1  0.25305091  0.49412796  0.25685099  1
  V  V69  1  0.12333800  0.62813343  0.49011010  1
  V  V70  1  0.62522352  0.87398690  0.25392914  1
  V  V71  1  0.61942279  0.25172113  0.87344918  1
  V  V72  1  0.62390974  0.25048979  0.38666464  1
  V  V73  1  0.49934416  0.50228751  -0.00218153  1
  V  V74  1  0.50103686  0.25007303  0.25218938  1
  V  V75  1  0.49115584  0.39256566  0.36990432  1
  V  V76  1  0.00915333  0.74953742  0.25176127  1
  V  V77  1  0.12727905  0.00652679  0.62341059  1
  V  V78  1  0.24799309  0.62630711  0.87457584  1
  V  V79  1  0.63066787  0.61907259  0.50487041  1
  V  V80  1  0.49829946  0.87068455  0.87804650  1
  V  V81  1  0.37700065  0.74960584  0.61685453  1
  V  V82  1  0.12250500  0.49828337  0.13234985  1
  V  V83  1  0.11780067  0.11832628  -0.00225171  1
  V  V84  1  0.37420680  0.24890084  0.12510198  1
  Zn  Zn85  1  0.49456089  0.63318492  0.11876051  1
  Zn  Zn86  1  0.62366789  0.37737953  0.24943702  1
  Zn  Zn87  1  0.12055960  0.37589733  0.74976177  1
  Zn  Zn88  1  0.75835627  0.75038371  -0.00704952  1
  Zn  Zn89  1  0.00906462  0.25499458  0.24569496  1
  Zn  Zn90  1  0.75167947  0.12320242  0.87149063  1
  Zn  Zn91  1  0.00121083  0.62590522  0.12617818  1
  Zn  Zn92  1  0.12514437  0.87559192  0.75137614  1
  Zn  Zn93  1  0.87516935  0.12050044  0.74818795  1
  Zn  Zn94  1  0.62770655  0.74238021  0.37195470  1
  Zn  Zn95  1  0.37413442  0.12485019  0.25265416  1
  Zn  Zn96  1  0.12607795  0.62683536  0.00223765  1
  Zn  Zn97  1  0.12952954  0.86845745  0.25302266  1
  Zn  Zn98  1  0.87790964  0.25057902  0.12765542  1
  Zn  Zn99  1  0.25062181  -0.00112562  0.74939784  1
  Zn  Zn100  1  0.00309823  0.12788951  0.62216775  1
  Zn  Zn101  1  0.75075548  0.13679957  0.38374620  1
  Zn  Zn102  1  0.12582655  0.75323410  0.87679398  1
  Zn  Zn103  1  0.75350008  0.00282092  0.74640487  1
  Zn  Zn104  1  0.63474588  0.11632305  0.52846107  1
  Zn  Zn105  1  -0.00212021  0.37589767  0.36718248  1
  Zn  Zn106  1  0.49821703  0.37129692  0.87148729  1
  Zn  Zn107  1  0.18763150  0.18180210  0.18988008  1
  Zn  Zn108  1  0.18516188  0.18730733  0.69062909  1
  Zn  Zn109  1  0.19039722  0.68511055  0.18367978  1
  Zn  Zn110  1  0.18593924  0.68798562  0.68634178  1
  Zn  Zn111  1  0.68747579  0.18808832  0.19105749  1
  Zn  Zn112  1  0.69405913  0.18925784  0.68880205  1
  Zn  Zn113  1  0.68608697  0.68922729  0.18430017  1
  Zn  Zn114  1  0.68827539  0.68462471  0.68038557  1
  Zn  Zn115  1  0.31722540  0.31236998  0.31799388  1
  Zn  Zn116  1  0.30878802  0.31187144  0.80977488  1
  Zn  Zn117  1  0.31388167  0.81127224  0.31389369  1
  Zn  Zn118  1  0.31481688  0.80994645  0.80890276  1
  Zn  Zn119  1  0.81132435  0.31561108  0.31255360  1
  Zn  Zn120  1  0.81009324  0.31339741  0.81419556  1
  Zn  Zn121  1  0.81753765  0.81604622  0.31026796  1
  Zn  Zn122  1  0.81645520  0.81929450  0.80772800  1
  Zn  Zn123  1  0.19266151  0.43714542  0.44174688  1
  Zn  Zn124  1  0.18392536  0.43814169  0.93969924  1
  Zn  Zn125  1  0.18487778  0.93309125  0.43953143  1
  Zn  Zn126  1  0.18710221  0.93324740  0.93814957  1
  Zn  Zn127  1  0.67627282  0.43837241  0.43501561  1
  Zn  Zn128  1  0.68786676  0.43824274  0.93583497  1
  Zn  Zn129  1  0.68480823  0.94034254  0.44064940  1
  Zn  Zn130  1  0.68588603  0.93525891  0.93459851  1
  Zn  Zn131  1  0.31188970  0.06045327  0.05966109  1
  Zn  Zn132  1  0.31650626  0.06290341  0.56405338  1
  Zn  Zn133  1  0.31034196  0.56140401  0.06310470  1
  Zn  Zn134  1  0.31425481  0.55759652  0.55950967  1
  Zn  Zn135  1  0.81336084  0.06111445  0.06360572  1
  Zn  Zn136  1  0.81630384  0.06738263  0.55896109  1
  Zn  Zn137  1  0.81603783  0.56496643  0.06619153  1
  Zn  Zn138  1  0.81026157  0.56356758  0.56657517  1
  Zn  Zn139  1  0.43294298  0.43987584  0.18531934  1
  Zn  Zn140  1  0.44478572  0.41624403  0.68136238  1
  Zn  Zn141  1  0.43810327  0.93872781  0.19307043  1
  Zn  Zn142  1  0.43279596  0.93583268  0.69198618  1
  Zn  Zn143  1  0.93531234  0.43599424  0.19083991  1
  Zn  Zn144  1  0.93144590  0.43749225  0.68681657  1
  Zn  Zn145  1  0.93910712  0.93653016  0.19256918  1
  Zn  Zn146  1  0.93428047  0.93880880  0.68717493  1
  Zn  Zn147  1  0.06391833  0.06108217  0.31176683  1
  Zn  Zn148  1  0.05796401  0.05819916  0.80829859  1
  Zn  Zn149  1  0.06249352  0.56093763  0.31229466  1
  Zn  Zn150  1  0.05982238  0.56480781  0.81188228  1
  Zn  Zn151  1  0.56103682  0.06412344  0.31745881  1
  Zn  Zn152  1  0.56331111  0.06428413  0.81213651  1
  Zn  Zn153  1  0.56490201  0.57131155  0.31287254  1
  Zn  Zn154  1  0.56514544  0.55981668  0.80837832  1
  Zn  Zn155  1  0.43449718  0.18558596  0.43723144  1
  Zn  Zn156  1  0.43637291  0.18431635  0.93551514  1
  Zn  Zn157  1  0.43919487  0.68336991  0.43267046  1
  Zn  Zn158  1  0.43990533  0.68410026  0.92968823  1
  Zn  Zn159  1  0.94347572  0.18438244  0.43384851  1
  Zn  Zn160  1  0.93569536  0.18635263  0.93799342  1
  Zn  Zn161  1  0.93436352  0.68324931  0.43643355  1
  Zn  Zn162  1  0.94037365  0.68987820  0.93835796  1
  Zn  Zn163  1  0.06159746  0.30979775  0.06390507  1
  Zn  Zn164  1  0.06422266  0.30964157  0.55802499  1
  Zn  Zn165  1  0.07193603  0.80720596  0.06393427  1
  Zn  Zn166  1  0.06574715  0.81440283  0.56274524  1
  Zn  Zn167  1  0.56240251  0.31501846  0.06164077  1
  Zn  Zn168  1  0.56803979  0.27172822  0.59432887  1
  Zn  Zn169  1  0.56633249  0.81118934  0.06078985  1
  Zn  Zn170  1  0.56733899  0.80951838  0.56123603  1
  O  O171  1  0.12104728  0.11526819  0.11831528  1
  O  O172  1  0.12498629  0.11114276  0.62714212  1
  O  O173  1  0.12380129  0.61233206  0.12260595  1
  O  O174  1  0.11803598  0.61885962  0.61692090  1
  O  O175  1  0.61964836  0.11860214  0.12097032  1
  O  O176  1  0.60650132  0.16965784  0.62312707  1
  O  O177  1  0.61981340  0.62154154  0.11365956  1
  O  O178  1  0.61767392  0.63471675  0.60502495  1
  O  O179  1  0.39029829  0.36819437  0.38964026  1
  O  O180  1  0.37452574  0.38013692  0.87995529  1
  O  O181  1  0.38425986  0.88376458  0.37088146  1
  O  O182  1  0.38581471  0.88172008  0.86740182  1
  O  O183  1  0.87393873  0.39049280  0.37356251  1
  O  O184  1  0.88138096  0.37225902  0.88896150  1
  O  O185  1  0.89128522  0.88562826  0.36682919  1
  O  O186  1  0.88776304  0.88234332  0.87567165  1
  O  O187  1  0.25343867  0.00165947  0.37148974  1
  O  O188  1  0.25712058  0.00497055  0.87619592  1
  O  O189  1  0.24574117  0.50734573  0.36715089  1
  O  O190  1  0.25417214  0.50567453  0.87026750  1
  O  O191  1  0.75978736  -0.00564912  0.36863380  1
  O  O192  1  0.76299126  -0.00422265  0.87421497  1
  O  O193  1  0.75131248  0.49590176  0.36339604  1
  O  O194  1  0.75353820  0.50026271  0.86352285  1
  O  O195  1  0.24262068  0.49048782  0.13080893  1
  O  O196  1  0.23504729  0.49867624  0.62676447  1
  O  O197  1  0.24626218  0.99394079  0.13181571  1
  O  O198  1  0.24538920  0.99080246  0.62344895  1
  O  O199  1  0.74499584  0.49563314  0.13176403  1
  O  O200  1  0.75694445  0.48573629  0.63499758  1
  O  O201  1  0.74516438  0.99403554  0.13265633  1
  O  O202  1  0.76083346  0.98562076  0.62338343  1
  O  O203  1  -0.00451580  0.36735328  0.25272615  1
  O  O204  1  -0.00183817  0.37285760  0.75973063  1
  O  O205  1  0.00483126  0.86627358  0.25938277  1
  O  O206  1  -0.00040871  0.86320320  0.75078179  1
  O  O207  1  0.49556029  0.36909510  0.25546130  1
  O  O208  1  0.52264606  0.37978070  0.75536140  1
  O  O209  1  0.50696407  0.87076490  0.25712094  1
  O  O210  1  0.50727987  0.86751490  0.75618552  1
  O  O211  1  0.49698960  0.13196204  0.24324496  1
  O  O212  1  0.48781924  0.12583878  0.75595218  1
  O  O213  1  0.49060210  0.63461458  0.24761320  1
  O  O214  1  0.49173749  0.63249819  0.75323105  1
  O  O215  1  0.99377626  0.12773605  0.24414564  1
  O  O216  1  0.99720141  0.13521962  0.74559062  1
  O  O217  1  0.99289282  0.63278096  0.25090006  1
  O  O218  1  0.99247799  0.63481812  0.74586456  1
  O  O219  1  0.36782600  0.25390320  0.00378582  1
  O  O220  1  0.36324788  0.25635159  0.49748757  1
  O  O221  1  0.36327198  0.74301416  -0.00560307  1
  O  O222  1  0.36890171  0.73973160  0.51127026  1
  O  O223  1  0.86748663  0.25701359  0.00452199  1
  O  O224  1  0.88013371  0.25095994  0.50581330  1
  O  O225  1  0.87495186  0.74394895  0.01640083  1
  O  O226  1  0.86563564  0.74081521  0.50851460  1
  O  O227  1  0.13825546  0.25145497  0.48791500  1
  O  O228  1  0.12955622  0.24037163  0.99498149  1
  O  O229  1  0.13566921  0.73864163  0.50638668  1
  O  O230  1  0.13911290  0.74452216  0.99533104  1
  O  O231  1  0.61694408  0.25972077  0.48489981  1
  O  O232  1  0.63266934  0.24648956  0.99683555  1
  O  O233  1  0.63340835  0.74230921  0.49413063  1
  O  O234  1  0.62656892  0.74131076  0.98861591  1
  O  O235  1  0.49389131  0.24686142  0.12966123  1
  O  O236  1  0.46858379  0.32301279  0.59864159  1
  O  O237  1  0.50372794  0.75288688  0.13774408  1
  O  O238  1  0.49169679  0.75752548  0.63444968  1
  O  O239  1  1.00040393  0.23448458  0.12613438  1
  O  O240  1  0.98981958  0.25489313  0.62982252  1
  O  O241  1  0.99533101  0.75096034  0.13366491  1
  O  O242  1  0.99365602  0.74758228  0.63015012  1
  O  O243  1  0.01857007  0.25043962  0.37741617  1
  O  O244  1  0.00161414  0.25930208  0.87045003  1
  O  O245  1  -0.00649929  0.76084512  0.37030456  1
  O  O246  1  -0.00026175  0.76274413  0.86914794  1
  O  O247  1  0.50416938  0.25568548  0.36703245  1
  O  O248  1  0.51497060  0.25231653  0.88522900  1
  O  O249  1  0.49892876  0.75861054  0.36466750  1
  O  O250  1  0.50605082  0.75511753  0.86287907  1
  O  O251  1  0.25591926  0.13266035  0.49317488  1
  O  O252  1  0.24170098  0.12862767  0.99008677  1
  O  O253  1  0.24537881  0.62827040  0.49258650  1
  O  O254  1  0.25130121  0.63177078  0.99155482  1
  O  O255  1  0.74180687  0.11728533  0.49433735  1
  O  O256  1  0.74430214  0.13360727  1.00172262  1
  O  O257  1  0.73842145  0.63089841  0.50375048  1
  O  O258  1  0.73956117  0.62599651  1.00276360  1
  O  O259  1  0.25363921  0.36903849  0.00697825  1
  O  O260  1  0.25778195  0.36691786  0.50752106  1
  O  O261  1  0.25134980  0.86136964  0.00517905  1
  O  O262  1  0.24775070  0.86067657  0.50542754  1
  O  O263  1  0.75633125  0.37217884  0.00568021  1
  O  O264  1  0.74236956  0.38537551  0.51425478  1
  O  O265  1  0.74134133  0.87202543  0.01530656  1
  O  O266  1  0.74252711  0.86502326  0.50740558  1
  O  O267  1  0.13529629  0.50249968  0.24001453  1
  O  O268  1  0.12755631  0.50107600  0.73983902  1
  O  O269  1  0.13725551  0.99824371  0.24261303  1
  O  O270  1  0.12769296  0.99597505  0.73972804  1
  O  O271  1  0.63052168  0.50301962  0.24267120  1
  O  O272  1  0.63965693  0.48898420  0.75379311  1
  O  O273  1  0.62840812  0.99387968  0.24736489  1
  O  O274  1  0.62771241  0.98777159  0.75485245  1
  O  O275  1  0.36435494  0.00010140  0.26024041  1
  O  O276  1  0.37282918  0.00798611  0.76285433  1
  O  O277  1  0.36023486  0.50777361  0.24542326  1
  O  O278  1  0.37051313  0.50376348  0.75159843  1
  O  O279  1  0.87219798  0.01001013  0.25856727  1
  O  O280  1  0.87473115  0.00048336  0.76200458  1
  O  O281  1  0.86551091  0.50905271  0.25457664  1
  O  O282  1  0.86559187  0.50969468  0.74920482  1
  O  O283  1  0.13052978  0.36307895  0.37554833  1
  O  O284  1  0.11495672  0.36775004  0.87636161  1
  O  O285  1  0.10964628  0.87638467  0.37108536  1
  O  O286  1  0.11056066  0.87617171  0.87266128  1
  O  O287  1  0.60887585  0.36966853  0.36771005  1
  O  O288  1  0.62555181  0.36874253  0.86945490  1
  O  O289  1  0.61817425  0.87499217  0.36367508  1
  O  O290  1  0.61805860  0.86586118  0.86528956  1
  O  O291  1  0.37937479  0.13118442  0.12549236  1
  O  O292  1  0.37036277  0.12202732  0.64448226  1
  O  O293  1  0.37461398  0.62210697  0.13689277  1
  O  O294  1  0.36789855  0.63058217  0.63478049  1
  O  O295  1  0.88402631  0.12271134  0.13240555  1
  O  O296  1  0.87957592  0.14173208  0.62472324  1
  O  O297  1  0.87853887  0.63310374  0.13770961  1
  O  O298  1  0.88065001  0.63465809  0.63236981  1
  O  O299  1  0.25281063  0.25385111  0.12219323  1
  O  O300  1  0.23914696  0.25864036  0.61761029  1
  O  O301  1  0.25008731  0.75608911  0.11208302  1
  O  O302  1  0.25650967  0.75395688  0.61835388  1
  O  O303  1  0.74873718  0.25915557  0.11685089  1
  O  O304  1  0.76758690  0.26331199  0.62696814  1
  O  O305  1  0.75888129  0.75873791  0.12551520  1
  O  O306  1  0.75695769  0.75590026  0.61545235  1
  O  O307  1  0.24429097  0.24229303  0.38031999  1
  O  O308  1  0.24084564  0.24251280  0.87972046  1
  O  O309  1  0.25335710  0.74139336  0.38503816  1
  O  O310  1  0.25115732  0.74318897  0.88187047  1
  O  O311  1  0.72874998  0.25605521  0.36636701  1
  O  O312  1  0.74437352  0.25062718  0.89004308  1
  O  O313  1  0.75371809  0.75661287  0.38611753  1
  O  O314  1  0.73999534  0.75829372  0.87403664  1
  O  O315  1  0.01125346  0.12635358  0.00649254  1
  O  O316  1  0.00124350  0.10998122  0.50099121  1
  O  O317  1  0.00327757  0.61581614  0.00128156  1
  O  O318  1  0.00834343  0.61969798  0.50366838  1
  O  O319  1  0.50555496  0.11806462  0.00614048  1
  O  O320  1  0.49666836  0.11072785  0.49939465  1
  O  O321  1  0.50498883  0.61535047  -0.00158909  1
  O  O322  1  0.50128797  0.61128497  0.49807222  1
  O  O323  1  0.50432699  0.39983095  0.48070985  1
  O  O324  1  0.49358102  0.38698338  0.99873637  1
  O  O325  1  0.50596226  0.87969356  0.48764526  1
  O  O326  1  0.50681060  0.87723290  0.98600938  1
  O  O327  1  1.00500909  0.38882444  0.49437723  1
  O  O328  1  0.99276875  0.37921568  0.99617504  1
  O  O329  1  1.00263405  0.87949791  0.48771964  1
  O  O330  1  1.00307601  0.87065243  0.99190566  1
  O  O331  1  0.49329187  0.49146415  0.35772119  1
  O  O332  1  0.49264970  0.49881764  0.88134618  1
  O  O333  1  0.49065194  0.99318628  0.37887553  1
  O  O334  1  0.49497126  0.99076341  0.87913473  1
  O  O335  1  0.99114577  0.50060262  0.38189849  1
  O  O336  1  1.00627262  0.48871049  0.88393394  1
  O  O337  1  0.99731127  0.99203409  0.38068684  1
  O  O338  1  0.99168736  0.98662807  0.87490255  1
  O  O339  1  0.01052637  0.00887069  0.13215090  1
  O  O340  1  0.00768995  -0.00342037  0.61576276  1
  O  O341  1  0.00714129  0.49964969  0.12053562  1
  O  O342  1  0.00526684  0.50439842  0.61912130  1
  O  O343  1  0.50439830  0.00353182  0.12099236  1
  O  O344  1  0.49066613  -0.00905000  0.60951675  1
  O  O345  1  0.50447866  0.50204986  0.11536195  1
  O  O346  1  0.50154950  0.50105397  0.62094419  1
  O  O347  1  0.25763436  0.38115099  0.24313547  1
  O  O348  1  0.24218297  0.38220283  0.74393017  1
  O  O349  1  0.24904797  0.87884056  0.24270493  1
  O  O350  1  0.24725658  0.87523106  0.74143715  1
  O  O351  1  0.74824070  0.38489638  0.23977833  1
  O  O352  1  0.74935450  0.38730432  0.74871114  1
  O  O353  1  0.74199015  0.87978479  0.24330132  1
  O  O354  1  0.74114542  0.87480964  0.73916436  1
  O  O355  1  0.25289867  0.11313478  0.25726551  1
  O  O356  1  0.25073920  0.12419902  0.76408753  1
  O  O357  1  0.25465563  0.62003993  0.25673680  1
  O  O358  1  0.25605529  0.61940112  0.75479090  1
  O  O359  1  0.75700940  0.11830938  0.25414532  1
  O  O360  1  0.75563548  0.12127946  0.75368655  1
  O  O361  1  0.75617102  0.61786906  0.24485495  1
  O  O362  1  0.75536689  0.61123132  0.74260857  1
  O  O363  1  0.36345924  0.11555058  0.37294056  1
  O  O364  1  0.36595707  0.11840226  0.87046063  1
  O  O365  1  0.36300866  0.62514454  0.36458594  1
  O  O366  1  0.36512225  0.61952603  0.86254766  1
  O  O367  1  0.87433905  0.11740768  0.36849472  1
  O  O368  1  0.87580866  0.11040786  0.87638888  1
  O  O369  1  0.87531596  0.61570640  0.36232147  1
  O  O370  1  0.87633151  0.63300522  0.86201673  1
  O  O371  1  0.13707336  0.37834227  0.12137422  1
  O  O372  1  0.12878876  0.38481191  0.62338040  1
  O  O373  1  0.13430774  0.88381041  0.12683650  1
  O  O374  1  0.13717742  0.88046609  0.62640920  1
  O  O375  1  0.63514602  0.38427020  0.12351820  1
  O  O376  1  0.64188401  0.36338927  0.64135791  1
  O  O377  1  0.62989039  0.88019667  0.13582949  1
  O  O378  1  0.63501925  0.86907567  0.63354882  1
  O  O379  1  0.12965073  0.24492510  0.26618352  1
  O  O380  1  0.11067913  0.25290378  0.75570008  1
  O  O381  1  0.11326878  0.74678756  0.24557229  1
  O  O382  1  0.11431637  0.74983284  0.75381900  1
  O  O383  1  0.61031076  0.25486294  0.24783587  1
  O  O384  1  0.64119725  0.26654140  0.76521479  1
  O  O385  1  0.61903888  0.75772719  0.25256908  1
  O  O386  1  0.61931184  0.75230273  0.75258459  1
  O  O387  1  0.38490063  0.24846005  0.24514279  1
  O  O388  1  0.37461050  0.23791453  0.75625932  1
  O  O389  1  0.38174340  0.74148189  0.25126017  1
  O  O390  1  0.38279257  0.74034913  0.74025939  1
  O  O391  1  0.87226390  0.23666553  0.24925913  1
  O  O392  1  0.88507020  0.25127130  0.75030201  1
  O  O393  1  0.88350045  0.74451402  0.24354220  1
  O  O394  1  0.87962420  0.74420852  0.74202810  1
  O  O395  1  0.39110018  0.48829052  0.50845249  1
  O  O396  1  0.38067117  0.49666789  0.99391386  1
  O  O397  1  0.38195894  0.99921371  0.48984519  1
  O  O398  1  0.38257360  1.00478790  0.98602036  1
  O  O399  1  0.88310543  0.51171932  0.49095093  1
  O  O400  1  0.88815039  0.49356840  1.00685335  1
  O  O401  1  0.88497383  1.00004114  0.48824277  1
  O  O402  1  0.87339681  0.99900918  0.98753066  1
  O  O403  1  0.13244998  0.00700389  0.01045533  1
  O  O404  1  0.11734483  -0.00646317  0.50937056  1
  O  O405  1  0.11453368  0.49863313  0.01177185  1
  O  O406  1  0.11875528  0.50778834  0.50576888  1
  O  O407  1  0.61859807  0.00404846  0.00503187  1
  O  O408  1  0.60700543  0.00300129  0.49780323  1
  O  O409  1  0.61825914  0.50672137  0.00143364  1
  O  O410  1  0.61309621  0.51142615  0.49922915  1
  O  O411  1  0.36378815  0.36937936  0.11797921  1
  O  O412  1  0.34876101  0.39073105  0.62423287  1
  O  O413  1  0.36517959  0.88167404  0.12538630  1
  O  O414  1  0.36231205  0.86382526  0.62998385  1
  O  O415  1  0.86366062  0.37464780  0.11565947  1
  O  O416  1  0.86615484  0.36676155  0.62285549  1
  O  O417  1  0.86607033  0.86785883  0.13402369  1
  O  O418  1  0.86737515  0.86102021  0.62825950  1
  O  O419  1  0.13777692  0.12850436  0.37351200  1
  O  O420  1  0.12786862  0.12537940  0.88141039  1
  O  O421  1  0.13397332  0.62117968  0.38489112  1
  O  O422  1  0.13912711  0.62374349  0.87472078  1
  O  O423  1  0.62174664  0.14391495  0.37276306  1
  O  O424  1  0.62878058  0.13259027  0.88215826  1
  O  O425  1  0.61866012  0.62882782  0.39288836  1
  O  O426  1  0.62053476  0.63472407  0.88063996  1
