# generated using pymatgen
data_V85Zn86O256
_symmetry_space_group_name_H-M   'P 1'
_cell_length_a   16.92560670
_cell_length_b   16.92860856
_cell_length_c   16.92733268
_cell_angle_alpha   90.01244131
_cell_angle_beta   89.88687739
_cell_angle_gamma   89.97647740
_symmetry_Int_Tables_number   1
_chemical_formula_structural   V85Zn86O256
_chemical_formula_sum   'V85 Zn86 O256'
_cell_volume   4850.12737175
_cell_formula_units_Z   1
loop_
 _symmetry_equiv_pos_site_id
 _symmetry_equiv_pos_as_xyz
  1  'x, y, z'
loop_
 _atom_site_type_symbol
 _atom_site_label
 _atom_site_symmetry_multiplicity
 _atom_site_fract_x
 _atom_site_fract_y
 _atom_site_fract_z
 _atom_site_occupancy
  V  V0  1  0.87610605  0.75078823  0.62381876  1
  V  V1  1  0.25456342  0.37515469  0.12827892  1
  V  V2  1  0.12866681  0.75019026  0.87462825  1
  V  V3  1  0.00225542  0.61687652  0.62562829  1
  V  V4  1  0.87313114  0.37378328  0.00272955  1
  V  V5  1  0.50241460  0.87762565  0.87314099  1
  V  V6  1  0.74283103  0.37079079  0.13248395  1
  V  V7  1  0.00436998  0.25154488  0.74777442  1
  V  V8  1  0.37815751  0.50049881  0.37162549  1
  V  V9  1  0.87223574  -0.00079887  0.86887365  1
  V  V10  1  0.00026292  0.75371261  0.74971067  1
  V  V11  1  0.50392030  0.25529801  0.73977679  1
  V  V12  1  0.74878964  0.13053809  0.86814175  1
  V  V13  1  0.51037359  0.25085165  0.24838151  1
  V  V14  1  0.87281170  0.74841073  0.12624345  1
  V  V15  1  0.26349852  -0.00330482  0.75009335  1
  V  V16  1  0.11911624  0.12516691  0.00236593  1
  V  V17  1  0.88344176  0.87725024  0.49414181  1
  V  V18  1  0.87679325  0.12214448  0.74796568  1
  V  V19  1  0.50550042  0.75564026  0.75034260  1
  V  V20  1  0.50860586  0.37393989  0.36995237  1
  V  V21  1  0.12849627  0.25990680  0.37830008  1
  V  V22  1  0.62638520  0.73560424  0.87892840  1
  V  V23  1  0.50163398  0.49901778  0.49998473  1
  V  V24  1  0.75028950  0.75192088  0.49785436  1
  V  V25  1  0.00250538  0.62576696  0.12944736  1
  V  V26  1  0.50273091  0.36741478  0.88746717  1
  V  V27  1  0.74544685  0.73425574  -0.00147774  1
  V  V28  1  0.74091252  0.49474226  0.25492036  1
  V  V29  1  0.37551711  0.25069171  0.12496152  1
  V  V30  1  0.88497979  0.00039791  0.36512657  1
  V  V31  1  0.13050831  0.62459061  0.00191164  1
  V  V32  1  0.37554462  0.62071025  0.75190683  1
  V  V33  1  0.62706325  0.49718299  0.62687498  1
  V  V34  1  0.62739431  0.62622556  0.50093313  1
  V  V35  1  0.24507849  0.00897499  0.25962049  1
  V  V36  1  0.49904886  0.12320088  0.12383404  1
  V  V37  1  0.00045723  0.37515286  0.87463172  1
  V  V38  1  0.12933747  0.25124124  0.86871778  1
  V  V39  1  0.37594246  0.13485721  0.73685500  1
  V  V40  1  0.12639398  0.49941376  0.12878208  1
  V  V41  1  0.74510627  0.87231332  0.12460795  1
  V  V42  1  0.37695788  0.36971074  0.50617211  1
  V  V43  1  0.37074852  0.88091450  -0.00433844  1
  V  V44  1  0.24257989  0.88365408  0.12312872  1
  V  V45  1  0.88211087  0.23551284  0.12513517  1
  V  V46  1  0.74813392  0.00280545  0.24821338  1
  V  V47  1  0.25277636  0.50222867  0.25194903  1
  V  V48  1  0.37344468  0.76319315  0.62413039  1
  V  V49  1  0.00343873  0.49525320  0.49282417  1
  V  V50  1  0.25354845  0.76441358  0.50405014  1
  V  V51  1  0.49453731  0.00123373  -0.00565312  1
  V  V52  1  0.74662204  0.12154035  0.37565752  1
  V  V53  1  0.00478647  0.12145400  0.62189790  1
  V  V54  1  0.87799366  0.25044864  0.62318052  1
  V  V55  1  0.49895332  0.63373806  0.14191280  1
  V  V56  1  0.62409130  0.12308388  -0.00688838  1
  V  V57  1  0.50378992  0.51385437  0.00251830  1
  V  V58  1  0.86790233  0.50681086  0.87904903  1
  V  V59  1  0.74339949  0.25118042  -0.00215531  1
  V  V60  1  0.24563260  0.38770109  0.62852409  1
  V  V61  1  0.37751723  0.49822023  0.88048609  1
  V  V62  1  0.12910421  0.61977025  0.50383694  1
  V  V63  1  0.20923004  0.56498665  0.82062804  1
  V  V64  1  0.87380806  0.62117281  0.25315295  1
  V  V65  1  0.51217044  -0.00530698  0.49696605  1
  V  V66  1  0.88110491  0.37100334  0.49071267  1
  V  V67  1  0.25423219  0.25379802  -0.00027901  1
  V  V68  1  0.86998318  0.87474116  -0.00145995  1
  V  V69  1  0.13184006  0.12072828  0.48998029  1
  V  V70  1  0.49990957  0.62644819  0.62559008  1
  V  V71  1  0.74938899  0.50549254  0.75434122  1
  V  V72  1  -0.00101429  0.49894231  0.00487590  1
  V  V73  1  0.25550200  0.24558404  0.50422912  1
  V  V74  1  0.13142910  0.87824293  0.74758905  1
  V  V75  1  0.25142490  0.74683888  -0.00274512  1
  V  V76  1  0.74496001  0.88108144  0.63676450  1
  V  V77  1  0.61867671  0.75617069  0.37069706  1
  V  V78  1  0.13469141  -0.00182485  0.62191243  1
  V  V79  1  -0.00542147  0.24569083  0.25950543  1
  V  V80  1  0.74432151  0.24480722  0.50137284  1
  V  V81  1  0.25852823  0.12236999  0.87319918  1
  V  V82  1  0.12206526  0.75724679  0.37373730  1
  V  V83  1  0.25556470  0.62687696  0.37585172  1
  V  V84  1  0.37332395  0.12374467  0.26088385  1
  Zn  Zn85  1  0.47229202  0.76160034  0.26655410  1
  Zn  Zn86  1  0.87835712  0.49382105  0.37180555  1
  Zn  Zn87  1  0.12952949  0.39323233  0.74795987  1
  Zn  Zn88  1  0.62363988  0.50111439  0.12588384  1
  Zn  Zn89  1  -0.00656683  0.75574362  0.25872226  1
  Zn  Zn90  1  0.39098135  -0.03342393  0.38688357  1
  Zn  Zn91  1  0.62879100  0.37367359  0.75805073  1
  Zn  Zn92  1  -0.00727844  0.00574139  0.00275516  1
  Zn  Zn93  1  0.62606466  0.24677737  0.37562019  1
  Zn  Zn94  1  0.36899922  0.74679057  0.13021117  1
  Zn  Zn95  1  0.86976617  0.62919256  0.75494354  1
  Zn  Zn96  1  0.11537711  0.88533089  0.25503968  1
  Zn  Zn97  1  0.75147456  0.62206638  0.37649080  1
  Zn  Zn98  1  0.61164994  0.88061319  0.25382495  1
  Zn  Zn99  1  0.00976782  -0.00751580  0.49286386  1
  Zn  Zn100  1  0.11427876  0.00777339  0.12756573  1
  Zn  Zn101  1  0.11771668  0.37743933  0.25629255  1
  Zn  Zn102  1  -0.00060963  0.87701310  0.87720402  1
  Zn  Zn103  1  0.62265648  -0.00348519  0.12116058  1
  Zn  Zn104  1  0.51934603  0.12780543  0.61211070  1
  Zn  Zn105  1  0.63040767  0.00561960  0.65996787  1
  Zn  Zn106  1  0.75340707  0.37589847  0.62622490  1
  Zn  Zn107  1  0.18374446  0.18945843  0.19077746  1
  Zn  Zn108  1  0.19276584  0.18831699  0.68144246  1
  Zn  Zn109  1  0.19506432  0.68921587  0.18973329  1
  Zn  Zn110  1  0.18615404  0.69143035  0.68192387  1
  Zn  Zn111  1  0.68965886  0.18005097  0.18368254  1
  Zn  Zn112  1  0.68702434  0.19318202  0.69004557  1
  Zn  Zn113  1  0.68417630  0.68172023  0.18659093  1
  Zn  Zn114  1  0.68749592  0.68915849  0.68945004  1
  Zn  Zn115  1  0.31502048  0.31199628  0.31607593  1
  Zn  Zn116  1  0.31790847  0.31693244  0.80943034  1
  Zn  Zn117  1  0.30497443  0.81756021  0.30827391  1
  Zn  Zn118  1  0.31580554  0.81164815  0.81268041  1
  Zn  Zn119  1  0.81454349  0.30774790  0.31155512  1
  Zn  Zn120  1  0.81309468  0.31612722  0.81162316  1
  Zn  Zn121  1  0.80982493  0.81571846  0.31154743  1
  Zn  Zn122  1  0.80984976  0.80854833  0.81577445  1
  Zn  Zn123  1  0.18978850  0.43691712  0.44185106  1
  Zn  Zn124  1  0.18468980  0.42990623  0.94561747  1
  Zn  Zn125  1  0.21530470  0.92961425  0.43381373  1
  Zn  Zn126  1  0.18755290  0.94026536  0.93235309  1
  Zn  Zn127  1  0.69213786  0.43368691  0.44000277  1
  Zn  Zn128  1  0.68407540  0.43910156  0.94038873  1
  Zn  Zn129  1  0.69231098  0.93609705  0.44066163  1
  Zn  Zn130  1  0.66549393  0.95793073  0.87741481  1
  Zn  Zn131  1  0.31018582  0.06479088  0.06427428  1
  Zn  Zn132  1  0.31871664  0.05928260  0.55832960  1
  Zn  Zn133  1  0.31890335  0.56287918  0.06175320  1
  Zn  Zn134  1  0.31659898  0.56457022  0.56138416  1
  Zn  Zn135  1  0.80851577  0.05866963  0.05828530  1
  Zn  Zn136  1  0.81073647  0.05967900  0.56010303  1
  Zn  Zn137  1  0.81147246  0.55814597  0.07044035  1
  Zn  Zn138  1  0.81531566  0.56155172  0.56312486  1
  Zn  Zn139  1  0.43812396  0.43749091  0.18702713  1
  Zn  Zn140  1  0.43576366  0.43624057  0.68921686  1
  Zn  Zn141  1  0.43179457  0.93615003  0.18571573  1
  Zn  Zn142  1  0.44558644  0.94311874  0.68096443  1
  Zn  Zn143  1  0.93419641  0.43010180  0.19029373  1
  Zn  Zn144  1  0.93644875  0.43622138  0.68860356  1
  Zn  Zn145  1  0.94276091  0.93715105  0.18371419  1
  Zn  Zn146  1  0.94017490  0.93697037  0.68394257  1
  Zn  Zn147  1  0.06055282  0.07159154  0.30871433  1
  Zn  Zn148  1  0.06347222  0.06176323  0.81462598  1
  Zn  Zn149  1  0.06559605  0.56670356  0.31477731  1
  Zn  Zn150  1  0.04358342  0.56733747  0.81727499  1
  Zn  Zn151  1  0.56238824  0.05953696  0.31610583  1
  Zn  Zn152  1  0.55619586  0.07020565  0.81072986  1
  Zn  Zn153  1  0.56496289  0.56810763  0.31436461  1
  Zn  Zn154  1  0.55965756  0.56116709  0.81198272  1
  Zn  Zn155  1  0.44146484  0.18149452  0.44124500  1
  Zn  Zn156  1  0.43465360  0.18872164  0.93607853  1
  Zn  Zn157  1  0.43641581  0.68965562  0.44229041  1
  Zn  Zn158  1  0.43240824  0.68761025  0.93619830  1
  Zn  Zn159  1  0.93787835  0.17858102  0.43649317  1
  Zn  Zn160  1  0.93510816  0.19100690  0.93555141  1
  Zn  Zn161  1  0.93898317  0.68404431  0.43906592  1
  Zn  Zn162  1  0.93988965  0.68858378  0.94111192  1
  Zn  Zn163  1  0.06464594  0.31098342  0.06455898  1
  Zn  Zn164  1  0.06904465  0.31383212  0.56355720  1
  Zn  Zn165  1  0.05814579  0.81440909  0.06471950  1
  Zn  Zn166  1  0.06807614  0.81173470  0.56183166  1
  Zn  Zn167  1  0.56284274  0.31410442  0.06065780  1
  Zn  Zn168  1  0.56455980  0.31459257  0.56237426  1
  Zn  Zn169  1  0.56153683  0.81036357  0.05955620  1
  Zn  Zn170  1  0.56379346  0.82188197  0.56064426  1
  O  O171  1  0.13051290  0.13220795  0.10448924  1
  O  O172  1  0.12271465  0.11770484  0.61665958  1
  O  O173  1  0.12099900  0.61928625  0.12408054  1
  O  O174  1  0.11484354  0.63025132  0.61665537  1
  O  O175  1  0.61843268  0.12129265  0.11041610  1
  O  O176  1  0.63091339  0.11743674  0.63495544  1
  O  O177  1  0.60615493  0.62036307  0.12850125  1
  O  O178  1  0.62040092  0.61717929  0.62098638  1
  O  O179  1  0.38447428  0.38217977  0.38426950  1
  O  O180  1  0.38799194  0.38943791  0.86915866  1
  O  O181  1  0.31814177  0.88316997  0.39557882  1
  O  O182  1  0.38509513  0.86719553  0.88820645  1
  O  O183  1  0.87803172  0.37130796  0.38734735  1
  O  O184  1  0.88096115  0.38282411  0.88293358  1
  O  O185  1  0.86967502  0.88722023  0.38236534  1
  O  O186  1  0.87247035  0.88259827  0.87959251  1
  O  O187  1  0.23687571  0.01611189  0.35859816  1
  O  O188  1  0.24654697  0.01172973  0.86267789  1
  O  O189  1  0.25768467  0.50373701  0.37121537  1
  O  O190  1  0.25900784  0.49554095  0.88387756  1
  O  O191  1  0.75700903  0.00304513  0.36761253  1
  O  O192  1  0.76416424  0.01512583  0.87756631  1
  O  O193  1  0.75539166  0.49956992  0.36928104  1
  O  O194  1  0.75718243  0.49553864  0.87029017  1
  O  O195  1  0.25046903  0.49456801  0.13293766  1
  O  O196  1  0.25396428  0.48692890  0.61910224  1
  O  O197  1  0.24184374  0.99693367  0.12819834  1
  O  O198  1  0.24100136  1.00519352  0.63395304  1
  O  O199  1  0.74685327  0.48883071  0.13485131  1
  O  O200  1  0.74373791  0.49890620  0.63162845  1
  O  O201  1  0.74884683  0.99066344  0.13010157  1
  O  O202  1  0.75340541  0.98457971  0.62475535  1
  O  O203  1  0.00373673  0.35506708  0.24079969  1
  O  O204  1  0.00746934  0.37114809  0.75480850  1
  O  O205  1  0.00523840  0.86625887  0.24405935  1
  O  O206  1  0.00569493  0.86498441  0.75155526  1
  O  O207  1  0.49424022  0.36451057  0.25807068  1
  O  O208  1  0.49964358  0.36602893  0.75760942  1
  O  O209  1  0.49941230  0.86977508  0.24362074  1
  O  O210  1  0.48907811  0.86306395  0.75926949  1
  O  O211  1  0.49295747  0.13035817  0.24408250  1
  O  O212  1  0.49101495  0.14231380  0.75417962  1
  O  O213  1  0.49759828  0.63193078  0.24465130  1
  O  O214  1  0.49337260  0.63474660  0.74609293  1
  O  O215  1  1.00759467  0.14697475  0.24037235  1
  O  O216  1  0.99796722  0.13193951  0.74324346  1
  O  O217  1  0.99323032  0.62804524  0.24568008  1
  O  O218  1  0.99649562  0.63709110  0.74153660  1
  O  O219  1  0.36777158  0.24437135  0.01451511  1
  O  O220  1  0.36905030  0.25920266  0.49270887  1
  O  O221  1  0.36537965  0.75676407  0.00320139  1
  O  O222  1  0.36951391  0.74916969  0.51495014  1
  O  O223  1  0.86750956  0.25384927  0.00893418  1
  O  O224  1  0.87479685  0.25307961  0.50644753  1
  O  O225  1  0.86724586  0.75217387  0.00476533  1
  O  O226  1  0.87021488  0.75380944  0.50460556  1
  O  O227  1  0.13220772  0.24272086  0.49533740  1
  O  O228  1  0.13216595  0.24493375  0.98889378  1
  O  O229  1  0.13007871  0.73820999  0.49356180  1
  O  O230  1  0.12825590  0.74358033  0.99272844  1
  O  O231  1  0.64105769  0.25586264  0.49930546  1
  O  O232  1  0.63668561  0.24324948  1.00478747  1
  O  O233  1  0.63223991  0.74741233  0.49568454  1
  O  O234  1  0.63076831  0.74781505  0.98853614  1
  O  O235  1  0.49306691  0.24720598  0.12927837  1
  O  O236  1  0.50241771  0.25028351  0.63580542  1
  O  O237  1  0.49804089  0.73885526  0.12488361  1
  O  O238  1  0.49392210  0.74811367  0.63169358  1
  O  O239  1  0.98507730  0.25157079  0.12367052  1
  O  O240  1  0.99814722  0.24327246  0.62852424  1
  O  O241  1  0.99156131  0.73801777  0.12355275  1
  O  O242  1  0.99475442  0.74432838  0.63089858  1
  O  O243  1  0.00327148  0.24593400  0.36541278  1
  O  O244  1  0.00843250  0.25615770  0.86860787  1
  O  O245  1  0.01845200  0.74081423  0.37756149  1
  O  O246  1  0.00755736  0.74815077  0.86504360  1
  O  O247  1  0.50253512  0.25663922  0.36599737  1
  O  O248  1  0.49429673  0.26512286  0.87278500  1
  O  O249  1  0.51350904  0.74549560  0.37786253  1
  O  O250  1  0.50581323  0.75259649  0.86922077  1
  O  O251  1  0.24358402  0.13352642  0.50729138  1
  O  O252  1  0.24482917  0.13560550  0.99142681  1
  O  O253  1  0.24417717  0.62950903  0.49615290  1
  O  O254  1  0.24395000  0.63410370  1.00711199  1
  O  O255  1  0.75888832  0.13410056  0.49012268  1
  O  O256  1  0.74276623  0.13146909  0.99221425  1
  O  O257  1  0.74621568  0.63385190  0.50173815  1
  O  O258  1  0.75472295  0.63496045  1.00731481  1
  O  O259  1  0.24955501  0.36104644  0.00983638  1
  O  O260  1  0.25851253  0.37056524  0.50838356  1
  O  O261  1  0.25347486  0.87243630  0.00121931  1
  O  O262  1  0.22724378  0.85799919  0.52428034  1
  O  O263  1  0.75301347  0.36725900  0.00569909  1
  O  O264  1  0.76348221  0.36543084  0.50344170  1
  O  O265  1  0.76152501  0.86109758  0.00764515  1
  O  O266  1  0.76283451  0.86671174  0.50842280  1
  O  O267  1  0.13241923  0.49717359  0.24658382  1
  O  O268  1  0.13487674  0.51069582  0.76821510  1
  O  O269  1  0.13184713  1.00691525  0.24574374  1
  O  O270  1  0.13391570  0.99508209  0.74474927  1
  O  O271  1  0.63724055  0.50197411  0.25158544  1
  O  O272  1  0.63067525  0.49959592  0.74392212  1
  O  O273  1  0.63299035  0.99801185  0.24457560  1
  O  O274  1  0.62315307  0.99032914  0.77487539  1
  O  O275  1  0.36201486  0.00639723  0.25409528  1
  O  O276  1  0.36712181  0.00869396  0.74432027  1
  O  O277  1  0.36940887  0.49582170  0.26401369  1
  O  O278  1  0.38077872  0.51294956  0.75774018  1
  O  O279  1  0.86829382  -0.00833100  0.26126682  1
  O  O280  1  0.88227800  0.00968238  0.75498681  1
  O  O281  1  0.86849013  0.50495932  0.25142415  1
  O  O282  1  0.86871212  0.50113662  0.76043980  1
  O  O283  1  0.12341306  0.36427222  0.38001608  1
  O  O284  1  0.12116128  0.36731926  0.87148280  1
  O  O285  1  0.13074410  0.85956316  0.37855781  1
  O  O286  1  0.12052548  0.87177893  0.86415694  1
  O  O287  1  0.61186861  0.37301348  0.38071629  1
  O  O288  1  0.60661868  0.38084284  0.87522990  1
  O  O289  1  0.63269036  0.85853174  0.37531815  1
  O  O290  1  0.60598768  0.86011092  0.88406729  1
  O  O291  1  0.38171835  0.13249994  0.13068871  1
  O  O292  1  0.37632731  0.12864459  0.63617734  1
  O  O293  1  0.39384554  0.62595701  0.12064733  1
  O  O294  1  0.38383569  0.62858592  0.63261204  1
  O  O295  1  0.87005212  0.13770391  0.11735272  1
  O  O296  1  0.88221830  0.13284656  0.62698844  1
  O  O297  1  0.88149718  0.62637692  0.13643782  1
  O  O298  1  0.88268502  0.63758188  0.62449064  1
  O  O299  1  0.25510087  0.25619975  0.12112321  1
  O  O300  1  0.24728946  0.26201363  0.61010147  1
  O  O301  1  0.24512108  0.75982051  0.11207736  1
  O  O302  1  0.26718023  0.74166376  0.61970746  1
  O  O303  1  0.75855754  0.25316594  0.12062468  1
  O  O304  1  0.76179292  0.25204824  0.61875771  1
  O  O305  1  0.75233782  0.75287339  0.12028879  1
  O  O306  1  0.75776682  0.75409007  0.61719759  1
  O  O307  1  0.24157412  0.25640381  0.38878654  1
  O  O308  1  0.24685351  0.24980791  0.88121558  1
  O  O309  1  0.24154364  0.74021080  0.38652876  1
  O  O310  1  0.24448421  0.75464228  0.88770942  1
  O  O311  1  0.75237468  0.24049018  0.38166009  1
  O  O312  1  0.75932444  0.24474566  0.88732649  1
  O  O313  1  0.74565796  0.74812467  0.38729127  1
  O  O314  1  0.73505894  0.75004680  0.88119182  1
  O  O315  1  0.01677880  0.13089737  -0.01010358  1
  O  O316  1  0.01125369  0.11921982  0.50663855  1
  O  O317  1  0.00828722  0.61774344  0.00765760  1
  O  O318  1  0.00722564  0.61728229  0.50748412  1
  O  O319  1  0.50464304  0.12050865  -0.00011326  1
  O  O320  1  0.50429567  0.11271836  0.50006534  1
  O  O321  1  0.49903311  0.61518580  0.00149678  1
  O  O322  1  0.50648767  0.61815086  0.50602530  1
  O  O323  1  0.49426851  0.37965044  0.49474462  1
  O  O324  1  0.49768744  0.38080949  0.99104091  1
  O  O325  1  0.49577791  0.89181550  0.50680321  1
  O  O326  1  0.49046319  0.88243537  0.99745726  1
  O  O327  1  0.99547384  0.38537718  0.50980696  1
  O  O328  1  0.99535704  0.37968944  0.99679757  1
  O  O329  1  0.98838228  0.87372878  0.50494144  1
  O  O330  1  0.98224837  0.86958060  0.99634985  1
  O  O331  1  0.49554782  0.49532284  0.37749320  1
  O  O332  1  0.49587563  0.49531846  0.88576787  1
  O  O333  1  0.49950322  0.99757946  0.38542234  1
  O  O334  1  0.49486351  0.99245964  0.88600828  1
  O  O335  1  0.99899335  0.50471035  0.38860693  1
  O  O336  1  0.99148611  0.49267505  0.88543707  1
  O  O337  1  0.98887907  1.00443415  0.37303151  1
  O  O338  1  0.98721510  0.99999205  0.87969285  1
  O  O339  1  0.00161485  0.00191100  0.11482387  1
  O  O340  1  0.01485677  0.00508948  0.62306750  1
  O  O341  1  0.00403095  0.50526185  0.12330954  1
  O  O342  1  -0.00629719  0.51305474  0.62100270  1
  O  O343  1  0.49940113  0.00613928  0.11178225  1
  O  O344  1  0.51417756  0.00553516  0.62062734  1
  O  O345  1  0.49875435  0.50674628  0.11703530  1
  O  O346  1  0.50805234  0.50454546  0.62172768  1
  O  O347  1  0.24798040  0.38509400  0.24677293  1
  O  O348  1  0.25166537  0.37297369  0.73338339  1
  O  O349  1  0.23914264  0.89345958  0.23945165  1
  O  O350  1  0.24434944  0.88453955  0.75645082  1
  O  O351  1  0.75625812  0.38079463  0.24393759  1
  O  O352  1  0.74842267  0.38695866  0.74749382  1
  O  O353  1  0.74580410  0.88340517  0.24055149  1
  O  O354  1  0.75733183  0.86890022  0.73484955  1
  O  O355  1  0.25859127  0.11544114  0.23781500  1
  O  O356  1  0.25780062  0.12248238  0.75440046  1
  O  O357  1  0.24676820  0.61069511  0.26007843  1
  O  O358  1  0.25746461  0.62835794  0.75056280  1
  O  O359  1  0.75169770  0.11033823  0.25307881  1
  O  O360  1  0.76075454  0.13840309  0.76290764  1
  O  O361  1  0.75773037  0.61363839  0.24985647  1
  O  O362  1  0.75273040  0.61158123  0.74614761  1
  O  O363  1  0.37368041  0.13402456  0.35999862  1
  O  O364  1  0.36250634  0.13126282  0.86673980  1
  O  O365  1  0.36359093  0.61680048  0.38471854  1
  O  O366  1  0.37444213  0.61350111  0.86688744  1
  O  O367  1  0.86709124  0.10729402  0.37561140  1
  O  O368  1  0.86991141  0.12062063  0.86961383  1
  O  O369  1  0.87406326  0.62390078  0.36352487  1
  O  O370  1  0.88327397  0.61066297  0.87525315  1
  O  O371  1  0.13823791  0.38069739  0.12562772  1
  O  O372  1  0.13957123  0.37914197  0.62807129  1
  O  O373  1  0.13457878  0.87871400  0.11923353  1
  O  O374  1  0.11955209  0.88257241  0.63971790  1
  O  O375  1  0.63867613  0.37443430  0.12313245  1
  O  O376  1  0.62714761  0.38848692  0.62706097  1
  O  O377  1  0.63667369  0.87419489  0.12117949  1
  O  O378  1  0.64287959  0.87321753  0.62734436  1
  O  O379  1  0.12011344  0.25384316  0.26145458  1
  O  O380  1  0.12490454  0.24847984  0.75925704  1
  O  O381  1  0.13049015  0.74737084  0.26785423  1
  O  O382  1  0.12130715  0.75739063  0.75368971  1
  O  O383  1  0.61300236  0.24373715  0.24693317  1
  O  O384  1  0.60937129  0.25596174  0.75308723  1
  O  O385  1  0.63119991  0.74828906  0.26778950  1
  O  O386  1  0.61588828  0.74671656  0.76147835  1
  O  O387  1  0.37925678  0.24455463  0.24011617  1
  O  O388  1  0.38842503  0.24637354  0.75227558  1
  O  O389  1  0.36120840  0.74843729  0.24521677  1
  O  O390  1  0.38042158  0.73983472  0.74313725  1
  O  O391  1  0.88454929  0.24975263  0.23847528  1
  O  O392  1  0.88335315  0.24613925  0.74166984  1
  O  O393  1  0.87125059  0.74048163  0.24441504  1
  O  O394  1  0.88303529  0.74938771  0.74379309  1
  O  O395  1  0.38249926  0.49366019  0.49021819  1
  O  O396  1  0.38866816  0.50124064  0.99203262  1
  O  O397  1  0.39324345  1.00562786  0.49865307  1
  O  O398  1  0.37948273  0.99332352  1.00185036  1
  O  O399  1  0.88373020  0.48966634  0.49971947  1
  O  O400  1  0.87720898  0.49385131  0.99687192  1
  O  O401  1  0.87926322  0.99160371  0.48961828  1
  O  O402  1  0.87191037  0.99034828  0.99036844  1
  O  O403  1  0.12568891  0.01861137  -0.00667065  1
  O  O404  1  0.13201553  0.00387509  0.50471921  1
  O  O405  1  0.12104525  0.50503939  0.00859530  1
  O  O406  1  0.11968102  0.51094944  0.49776746  1
  O  O407  1  0.61498447  0.00838511  -0.00754724  1
  O  O408  1  0.61606516  -0.00515146  0.49790503  1
  O  O409  1  0.60829670  0.49720267  0.00449675  1
  O  O410  1  0.62269187  0.50450469  0.50738689  1
  O  O411  1  0.36302947  0.36774853  0.13034076  1
  O  O412  1  0.36953197  0.37986146  0.61222383  1
  O  O413  1  0.35870101  0.87552801  0.11246094  1
  O  O414  1  0.37516554  0.86078517  0.63570646  1
  O  O415  1  0.86349998  0.36721829  0.11782322  1
  O  O416  1  0.87839927  0.36153482  0.61916049  1
  O  O417  1  0.86383173  0.86741003  0.11884250  1
  O  O418  1  0.87184753  0.86433805  0.61898200  1
  O  O419  1  0.12024746  0.13637653  0.38722167  1
  O  O420  1  0.13629646  0.13433804  0.87866496  1
  O  O421  1  0.13798974  0.62879871  0.38353567  1
  O  O422  1  0.13327900  0.62604651  0.87785996  1
  O  O423  1  0.64216163  0.12707589  0.36895078  1
  O  O424  1  0.63379813  0.12882529  0.88456062  1
  O  O425  1  0.62991414  0.63490308  0.38487476  1
  O  O426  1  0.61946237  0.63674419  0.87522446  1
