# generated using pymatgen
data_V85Zn86O256
_symmetry_space_group_name_H-M   'P 1'
_cell_length_a   16.92341513
_cell_length_b   16.91152925
_cell_length_c   16.91573750
_cell_angle_alpha   89.95268809
_cell_angle_beta   89.94494258
_cell_angle_gamma   90.02473467
_symmetry_Int_Tables_number   1
_chemical_formula_structural   V85Zn86O256
_chemical_formula_sum   'V85 Zn86 O256'
_cell_volume   4841.29377346
_cell_formula_units_Z   1
loop_
 _symmetry_equiv_pos_site_id
 _symmetry_equiv_pos_as_xyz
  1  'x, y, z'
loop_
 _atom_site_type_symbol
 _atom_site_label
 _atom_site_symmetry_multiplicity
 _atom_site_fract_x
 _atom_site_fract_y
 _atom_site_fract_z
 _atom_site_occupancy
  V  V0  1  0.62456223  0.37745960  0.74741967  1
  V  V1  1  0.00350484  0.38483810  0.87670630  1
  V  V2  1  0.00924551  0.75420382  0.74656592  1
  V  V3  1  -0.00248531  0.87631647  0.87444991  1
  V  V4  1  0.62610073  0.50649017  0.62063941  1
  V  V5  1  0.24828808  0.12191828  0.37522912  1
  V  V6  1  0.75582637  0.75376133  0.00062301  1
  V  V7  1  0.62327088  0.87376980  0.25257792  1
  V  V8  1  0.37711442  0.61544676  0.75433459  1
  V  V9  1  0.37203136  -0.00992937  0.38194620  1
  V  V10  1  0.12448708  0.25336411  0.87110147  1
  V  V11  1  0.12011922  0.61488584  0.00345807  1
  V  V12  1  0.64067953  0.50353117  0.12429307  1
  V  V13  1  0.62716230  0.87586822  0.75051554  1
  V  V14  1  0.12261032  0.24952576  0.36830306  1
  V  V15  1  0.50761108  0.49799944  0.49064985  1
  V  V16  1  0.75002188  0.00165961  0.25256633  1
  V  V17  1  0.83261187  0.18542393  0.69396372  1
  V  V18  1  0.74627382  0.61745699  0.37250339  1
  V  V19  1  0.37403079  0.62169249  0.24897169  1
  V  V20  1  0.37361594  0.12347304  0.25000582  1
  V  V21  1  0.00000494  0.12700117  0.63149347  1
  V  V22  1  0.37350303  0.38576317  -0.00192526  1
  V  V23  1  0.12150494  0.75323448  0.37317690  1
  V  V24  1  0.24626353  -0.00520013  0.23555500  1
  V  V25  1  0.87415987  0.24742861  0.12388182  1
  V  V26  1  0.37462618  0.25595380  0.12473226  1
  V  V27  1  0.00329022  0.25645357  0.74764078  1
  V  V28  1  0.37419979  -0.00072173  0.87500338  1
  V  V29  1  0.37749740  0.48693950  0.37148428  1
  V  V30  1  0.87620175  -0.00126092  0.87498524  1
  V  V31  1  0.87532989  0.62007818  0.25133942  1
  V  V32  1  0.87450179  0.38608128  0.00782337  1
  V  V33  1  0.75415676  0.87630603  0.61802136  1
  V  V34  1  0.49552834  0.38594050  0.87460866  1
  V  V35  1  -0.00572086  0.87176828  0.37517829  1
  V  V36  1  0.75401698  0.00225720  0.74783403  1
  V  V37  1  0.24470652  -0.00875782  0.75346690  1
  V  V38  1  0.23460587  0.49520137  0.24804391  1
  V  V39  1  0.62377583  0.74412540  0.38183355  1
  V  V40  1  -0.00778240  -0.00751064  0.50178153  1
  V  V41  1  0.75560313  0.49901456  0.74695126  1
  V  V42  1  0.75455115  0.87476698  0.12268626  1
  V  V43  1  0.75708711  0.12940821  0.87717825  1
  V  V44  1  0.24768597  0.25089463  -0.00121337  1
  V  V45  1  0.12224723  0.87408433  0.23754794  1
  V  V46  1  0.37511482  0.74920920  0.61904902  1
  V  V47  1  0.88151356  0.75524733  0.61791941  1
  V  V48  1  0.62625007  0.12622675  0.00136629  1
  V  V49  1  0.62581388  0.12418763  0.49781640  1
  V  V50  1  0.75079953  0.13379256  0.37611559  1
  V  V51  1  0.24679331  0.75238909  0.00708885  1
  V  V52  1  0.75210231  0.62766643  0.87451611  1
  V  V53  1  0.88570191  0.75172139  0.12900007  1
  V  V54  1  0.50013215  0.74728037  0.25084264  1
  V  V55  1  0.37289493  0.25402891  0.62495355  1
  V  V56  1  0.62982766  0.37752787  0.23952268  1
  V  V57  1  0.62318250  0.25325895  0.87873282  1
  V  V58  1  0.12319016  0.12388273  0.50153947  1
  V  V59  1  0.61600455  0.25829113  0.37894309  1
  V  V60  1  0.00413503  0.60817043  0.12792428  1
  V  V61  1  0.00483542  0.37989648  0.37336744  1
  V  V62  1  0.87576422  0.49898742  0.38616279  1
  V  V63  1  0.49953792  -0.00059445  0.00182078  1
  V  V64  1  0.12272317  -0.01022255  0.63057540  1
  V  V65  1  0.12703551  0.75509524  0.87549821  1
  V  V66  1  0.23241091  0.37810992  0.12750212  1
  V  V67  1  0.50004785  0.75007335  0.75120698  1
  V  V68  1  0.87421669  0.35434125  0.50416225  1
  V  V69  1  0.24704406  0.12391279  0.87414566  1
  V  V70  1  0.87886456  0.62709087  0.74733811  1
  V  V71  1  0.25286497  0.86990746  0.62121051  1
  V  V72  1  0.11979355  0.12202191  0.01112038  1
  V  V73  1  0.23464588  0.38059988  0.62519620  1
  V  V74  1  0.50175129  0.12779656  0.12736535  1
  V  V75  1  0.37002475  0.87545498  0.00283810  1
  V  V76  1  0.49582557  0.12365612  0.62508957  1
  V  V77  1  0.88524175  0.12469206  0.24761097  1
  V  V78  1  0.25146462  0.62392255  0.37557745  1
  V  V79  1  0.11910987  0.61454520  0.49638967  1
  V  V80  1  0.00429744  0.61114371  0.62049730  1
  V  V81  1  0.25624184  0.61794601  0.87754214  1
  V  V82  1  -0.00200779  0.00090407  0.01016313  1
  V  V83  1  0.75193335  0.74484685  0.49923260  1
  V  V84  1  0.37458612  0.75332381  0.12661227  1
  Zn  Zn85  1  0.50092992  0.50538928  0.00159445  1
  Zn  Zn86  1  0.49511783  0.25999212  0.25573541  1
  Zn  Zn87  1  0.62505203  0.00060300  0.12666937  1
  Zn  Zn88  1  0.50180219  0.62431703  0.62099228  1
  Zn  Zn89  1  0.50142295  0.87576115  0.87613354  1
  Zn  Zn90  1  0.74787529  0.25846924  0.00985795  1
  Zn  Zn91  1  0.87192305  -0.00507458  0.37773223  1
  Zn  Zn92  1  0.62138511  -0.00227868  0.62261054  1
  Zn  Zn93  1  0.37765339  0.37167571  0.49795685  1
  Zn  Zn94  1  0.25348844  0.75201779  0.49842679  1
  Zn  Zn95  1  0.24087568  0.49160620  0.74987024  1
  Zn  Zn96  1  0.75423704  0.36177133  0.62136588  1
  Zn  Zn97  1  0.00420542  0.25201758  0.24330597  1
  Zn  Zn98  1  0.24995188  0.25040560  0.49950506  1
  Zn  Zn99  1  0.49288833  0.86779074  0.38301273  1
  Zn  Zn100  1  0.62513080  0.62743282  0.00068907  1
  Zn  Zn101  1  0.49428622  -0.00784714  0.50496551  1
  Zn  Zn102  1  0.50116252  0.62139362  0.12203530  1
  Zn  Zn103  1  0.49498429  0.25140747  0.75186734  1
  Zn  Zn104  1  0.62653668  0.75223622  0.87767504  1
  Zn  Zn105  1  0.37379275  0.12431750  0.75032582  1
  Zn  Zn106  1  0.88372095  0.50492379  0.87775662  1
  Zn  Zn107  1  0.18900031  0.18696713  0.18748171  1
  Zn  Zn108  1  0.18882263  0.18651785  0.68818979  1
  Zn  Zn109  1  0.18439604  0.68796885  0.18877022  1
  Zn  Zn110  1  0.18130435  0.65941828  0.69427167  1
  Zn  Zn111  1  0.68996001  0.19281745  0.19141359  1
  Zn  Zn112  1  0.66885573  0.18730948  0.68966113  1
  Zn  Zn113  1  0.69139075  0.68667891  0.19024483  1
  Zn  Zn114  1  0.68902614  0.68911786  0.68717239  1
  Zn  Zn115  1  0.30565027  0.31057324  0.30900883  1
  Zn  Zn116  1  0.31143107  0.31519957  0.80780323  1
  Zn  Zn117  1  0.30630544  0.81231650  0.30872545  1
  Zn  Zn118  1  0.31252762  0.80958853  0.81145257  1
  Zn  Zn119  1  0.81247026  0.31254606  0.31194291  1
  Zn  Zn120  1  0.81149747  0.32142649  0.82318461  1
  Zn  Zn121  1  0.81294973  0.80739797  0.30839800  1
  Zn  Zn122  1  0.81754214  0.81432621  0.80938188  1
  Zn  Zn123  1  0.19078220  0.43454181  0.43955242  1
  Zn  Zn124  1  0.18674185  0.43739000  0.93846666  1
  Zn  Zn125  1  0.18462970  0.93708677  0.43809745  1
  Zn  Zn126  1  0.18336878  0.93611960  0.94258979  1
  Zn  Zn127  1  0.69279675  0.43262464  0.43957257  1
  Zn  Zn128  1  0.69113291  0.44105650  0.93769605  1
  Zn  Zn129  1  0.68349278  0.93656708  0.43764754  1
  Zn  Zn130  1  0.68880309  0.93965337  0.93844039  1
  Zn  Zn131  1  0.31227215  0.06660912  0.06058347  1
  Zn  Zn132  1  0.30910285  0.06252298  0.56473837  1
  Zn  Zn133  1  0.30776991  0.56377641  0.06651816  1
  Zn  Zn134  1  0.31619355  0.56092648  0.55961722  1
  Zn  Zn135  1  0.81512133  0.06318198  0.06331139  1
  Zn  Zn136  1  0.80930746  0.05985590  0.55501757  1
  Zn  Zn137  1  0.81511107  0.56581731  0.06188827  1
  Zn  Zn138  1  0.81421091  0.56390372  0.56229743  1
  Zn  Zn139  1  0.44523165  0.43864767  0.18759340  1
  Zn  Zn140  1  0.43751324  0.43859115  0.68351273  1
  Zn  Zn141  1  0.43664489  0.93623609  0.19021045  1
  Zn  Zn142  1  0.43481327  0.93560859  0.68812230  1
  Zn  Zn143  1  0.93331775  0.43673114  0.19381610  1
  Zn  Zn144  1  0.93845146  0.43296030  0.68573641  1
  Zn  Zn145  1  0.93620313  0.93585066  0.19193358  1
  Zn  Zn146  1  0.93637623  0.93733820  0.69236121  1
  Zn  Zn147  1  0.06398503  0.05606037  0.31274610  1
  Zn  Zn148  1  0.06198841  0.06630449  0.81284230  1
  Zn  Zn149  1  0.05689725  0.56388361  0.31221208  1
  Zn  Zn150  1  0.06990365  0.56649655  0.80962354  1
  Zn  Zn151  1  0.55996127  0.06257077  0.31377531  1
  Zn  Zn152  1  0.56338465  0.06210185  0.81191831  1
  Zn  Zn153  1  0.56407487  0.55887896  0.30706051  1
  Zn  Zn154  1  0.56652036  0.56480125  0.81208358  1
  Zn  Zn155  1  0.43587785  0.18288152  0.44035629  1
  Zn  Zn156  1  0.43623916  0.19032341  0.93848963  1
  Zn  Zn157  1  0.43951071  0.67888391  0.43889659  1
  Zn  Zn158  1  0.43961643  0.68806920  0.93773181  1
  Zn  Zn159  1  0.94090270  0.18363945  0.43415411  1
  Zn  Zn160  1  0.93819197  0.19091041  0.94014643  1
  Zn  Zn161  1  0.93817991  0.68889839  0.43635235  1
  Zn  Zn162  1  0.93781561  0.68815534  0.94202805  1
  Zn  Zn163  1  0.05425109  0.30907491  0.05848969  1
  Zn  Zn164  1  0.05766530  0.31179246  0.55654802  1
  Zn  Zn165  1  0.05871095  0.81489117  0.05733091  1
  Zn  Zn166  1  0.06823923  0.80924930  0.55778357  1
  Zn  Zn167  1  0.56099226  0.31769742  0.06395581  1
  Zn  Zn168  1  0.56073293  0.31454562  0.56075948  1
  Zn  Zn169  1  0.56368592  0.81102959  0.06372267  1
  Zn  Zn170  1  0.56191941  0.81285420  0.56298051  1
  O  O171  1  0.12717875  0.13005805  0.11064677  1
  O  O172  1  0.11832564  0.11626595  0.61939392  1
  O  O173  1  0.11089900  0.63091844  0.12058596  1
  O  O174  1  0.11613157  0.63925724  0.60185091  1
  O  O175  1  0.61719405  0.12658354  0.12252579  1
  O  O176  1  0.61530628  0.12286411  0.61517559  1
  O  O177  1  0.62765012  0.61379184  0.12688844  1
  O  O178  1  0.62613812  0.61001782  0.63113516  1
  O  O179  1  0.37060022  0.38389998  0.37252769  1
  O  O180  1  0.38397889  0.36828621  0.88372275  1
  O  O181  1  0.37121609  0.88664859  0.37084454  1
  O  O182  1  0.37565154  0.88197056  0.88352866  1
  O  O183  1  0.88004980  0.37969056  0.38341045  1
  O  O184  1  0.88645147  0.38166406  0.88412140  1
  O  O185  1  0.88975038  0.87302318  0.36550195  1
  O  O186  1  0.88329500  0.88518645  0.87367290  1
  O  O187  1  0.25672048  0.00275662  0.36899150  1
  O  O188  1  0.25194989  0.00127015  0.87040749  1
  O  O189  1  0.25805579  0.50374284  0.36837986  1
  O  O190  1  0.24552441  0.51427148  0.87227436  1
  O  O191  1  0.75010753  0.00391395  0.36539015  1
  O  O192  1  0.75600217  0.00921960  0.87052167  1
  O  O193  1  0.75631973  0.51110477  0.38180238  1
  O  O194  1  0.75253658  0.50930821  0.86220612  1
  O  O195  1  0.25186271  0.49026346  0.13540850  1
  O  O196  1  0.25552438  0.48268071  0.62050189  1
  O  O197  1  0.25461547  1.00181967  0.13702213  1
  O  O198  1  0.24279335  0.99342016  0.63307400  1
  O  O199  1  0.74047867  0.50284976  0.12422203  1
  O  O200  1  0.74634401  0.49997463  0.63446444  1
  O  O201  1  0.74969758  0.99326148  0.13531465  1
  O  O202  1  0.74949592  0.99180212  0.62854412  1
  O  O203  1  -0.00648212  0.37099870  0.26872820  1
  O  O204  1  -0.00226607  0.36350471  0.75727715  1
  O  O205  1  0.01596731  0.88484825  0.25858352  1
  O  O206  1  -0.00101456  0.86690644  0.76164901  1
  O  O207  1  0.51912157  0.37403896  0.25057972  1
  O  O208  1  0.50705355  0.37608058  0.75652249  1
  O  O209  1  0.50751959  0.86752541  0.25539846  1
  O  O210  1  0.50985297  0.86914747  0.75041946  1
  O  O211  1  0.49368625  0.12517958  0.23831192  1
  O  O212  1  0.50106867  0.12762177  0.73795263  1
  O  O213  1  0.49163014  0.63079636  0.24807884  1
  O  O214  1  0.49417777  0.63183796  0.75019152  1
  O  O215  1  0.98800971  0.12285552  0.25713555  1
  O  O216  1  0.99916843  0.13344696  0.73930057  1
  O  O217  1  0.99493635  0.62590109  0.23653236  1
  O  O218  1  0.99496371  0.63555548  0.74121235  1
  O  O219  1  0.36714968  0.25655156  0.00764831  1
  O  O220  1  0.37236039  0.24990397  0.50845173  1
  O  O221  1  0.36898279  0.75697321  0.00657334  1
  O  O222  1  0.37435648  0.74086351  0.51428458  1
  O  O223  1  0.87273525  0.25824177  0.00740627  1
  O  O224  1  0.87567485  0.25532314  0.49746673  1
  O  O225  1  0.86342456  0.74721491  0.01073849  1
  O  O226  1  0.86987306  0.74984261  0.51045411  1
  O  O227  1  0.12202157  0.23573158  0.49119526  1
  O  O228  1  0.12754714  0.24226286  0.99056489  1
  O  O229  1  0.13129263  0.74364159  0.48531782  1
  O  O230  1  0.13186818  0.74652393  0.99599685  1
  O  O231  1  0.61952873  0.23957220  0.48948281  1
  O  O232  1  0.62718628  0.24742059  0.99454655  1
  O  O233  1  0.63321987  0.75033534  0.48828968  1
  O  O234  1  0.63985463  0.75085469  0.99925960  1
  O  O235  1  0.49134009  0.24474447  0.12589892  1
  O  O236  1  0.49205360  0.24292786  0.62581339  1
  O  O237  1  0.49259594  0.74757817  0.13269765  1
  O  O238  1  0.49558439  0.74596075  0.63370302  1
  O  O239  1  0.98409022  0.25244851  0.12874782  1
  O  O240  1  1.00450760  0.24165604  0.63465632  1
  O  O241  1  0.98750120  0.74974530  0.12055529  1
  O  O242  1  0.99660961  0.75040943  0.63014677  1
  O  O243  1  0.00688446  0.25682626  0.37210912  1
  O  O244  1  0.00705810  0.25625671  0.86823359  1
  O  O245  1  0.00984003  0.75736199  0.37641522  1
  O  O246  1  0.00490750  0.75635465  0.87052684  1
  O  O247  1  0.51223058  0.24053253  0.37295782  1
  O  O248  1  0.51104994  0.25639270  0.87542229  1
  O  O249  1  0.50746476  0.74618351  0.37061831  1
  O  O250  1  0.50374627  0.75438716  0.86378975  1
  O  O251  1  0.23833457  0.12394325  0.49531970  1
  O  O252  1  0.24224377  0.13060574  0.99349387  1
  O  O253  1  0.24218665  0.62370895  0.48821393  1
  O  O254  1  0.24492942  0.63325989  0.99547344  1
  O  O255  1  0.74022638  0.12125732  0.48859507  1
  O  O256  1  0.74266190  0.12665434  0.99286153  1
  O  O257  1  0.75456839  0.63780575  0.49296789  1
  O  O258  1  0.75070792  0.63366648  0.99092084  1
  O  O259  1  0.25592097  0.36988984  0.00538049  1
  O  O260  1  0.25514872  0.36996155  0.51005155  1
  O  O261  1  0.26106435  0.86915585  -0.00051817  1
  O  O262  1  0.24404600  0.87440943  0.51573385  1
  O  O263  1  0.76993846  0.37413487  -0.01047609  1
  O  O264  1  0.76782984  0.37304647  0.50209474  1
  O  O265  1  0.74693517  0.87248538  0.01457914  1
  O  O266  1  0.74460687  0.86574819  0.51092280  1
  O  O267  1  0.13585973  0.50208339  0.25666902  1
  O  O268  1  0.14690533  0.55155851  0.73273348  1
  O  O269  1  0.13730379  0.99033344  0.25142059  1
  O  O270  1  0.13130000  1.00380271  0.74202555  1
  O  O271  1  0.62497425  0.48953555  0.23682310  1
  O  O272  1  0.63202580  0.49168773  0.74410554  1
  O  O273  1  0.63081963  0.99189355  0.25052048  1
  O  O274  1  0.63426059  0.99345166  0.74773897  1
  O  O275  1  0.36262696  0.00183041  0.25575775  1
  O  O276  1  0.36633080  0.00117643  0.75932956  1
  O  O277  1  0.37176152  0.50474614  0.25546768  1
  O  O278  1  0.37016133  0.51290735  0.74616744  1
  O  O279  1  0.86652145  0.00696733  0.25311759  1
  O  O280  1  0.86827785  0.00059868  0.76283677  1
  O  O281  1  0.87814112  0.51170372  0.26309109  1
  O  O282  1  0.86939404  0.50574882  0.74991239  1
  O  O283  1  0.11301268  0.36562939  0.38464300  1
  O  O284  1  0.11805280  0.36471274  0.88154456  1
  O  O285  1  0.11872284  0.86915340  0.36868649  1
  O  O286  1  0.11893715  0.86205521  0.87847825  1
  O  O287  1  0.62477905  0.36023785  0.37805369  1
  O  O288  1  0.62078361  0.37050350  0.86960016  1
  O  O289  1  0.62814705  0.86482945  0.36376421  1
  O  O290  1  0.62763563  0.87509172  0.86245557  1
  O  O291  1  0.38020632  0.13583787  0.12791655  1
  O  O292  1  0.37927108  0.13286365  0.62569974  1
  O  O293  1  0.37422272  0.63638588  0.13077094  1
  O  O294  1  0.37485661  0.63183141  0.63536234  1
  O  O295  1  0.87138221  0.13178346  0.13613651  1
  O  O296  1  0.88180763  0.12098769  0.62498572  1
  O  O297  1  0.88547040  0.62815766  0.13098300  1
  O  O298  1  0.88589881  0.63384209  0.62632199  1
  O  O299  1  0.25724719  0.25716517  0.12106462  1
  O  O300  1  0.25572118  0.25627691  0.62366153  1
  O  O301  1  0.25613953  0.74554934  0.11431437  1
  O  O302  1  0.25709949  0.75558446  0.62694272  1
  O  O303  1  0.76460915  0.25020138  0.12603899  1
  O  O304  1  0.76036720  0.24237013  0.64203286  1
  O  O305  1  0.75760839  0.75620911  0.12017358  1
  O  O306  1  0.75827339  0.75420652  0.61776263  1
  O  O307  1  0.24159116  0.24112044  0.37673575  1
  O  O308  1  0.24245439  0.24681054  0.87791816  1
  O  O309  1  0.24519441  0.74018397  0.37578869  1
  O  O310  1  0.24393151  0.74786057  0.88716873  1
  O  O311  1  0.73695997  0.23793667  0.37023659  1
  O  O312  1  0.73867118  0.24512072  0.87584158  1
  O  O313  1  0.74573811  0.74300965  0.38193124  1
  O  O314  1  0.75441985  0.74635456  0.88194216  1
  O  O315  1  0.00637034  0.11139076  -0.00735306  1
  O  O316  1  0.00421155  0.11728561  0.51102097  1
  O  O317  1  0.00631144  0.62873708  0.01503766  1
  O  O318  1  0.01075216  0.62741299  0.50345112  1
  O  O319  1  0.50389595  0.12239815  0.01048999  1
  O  O320  1  0.50460071  0.11870701  0.51038783  1
  O  O321  1  0.50699542  0.62455238  0.00175039  1
  O  O322  1  0.49906764  0.60533874  0.50394537  1
  O  O323  1  0.49573934  0.39137767  0.50364684  1
  O  O324  1  0.49026001  0.37594623  0.99210051  1
  O  O325  1  0.50765765  0.88039396  0.49415886  1
  O  O326  1  0.48941987  0.87908804  1.00003620  1
  O  O327  1  0.98633772  0.36989178  0.48686228  1
  O  O328  1  0.98735624  0.37210413  0.98875871  1
  O  O329  1  1.00720824  0.88199260  0.49058201  1
  O  O330  1  1.00356361  0.88853452  0.98624791  1
  O  O331  1  0.49455459  0.50314334  0.38255053  1
  O  O332  1  0.50731653  0.48895488  0.87829644  1
  O  O333  1  0.47994584  1.00015819  0.37104647  1
  O  O334  1  0.49312206  1.00012441  0.88249325  1
  O  O335  1  0.99437896  0.48730899  0.37438435  1
  O  O336  1  1.00576530  0.48903675  0.86490262  1
  O  O337  1  0.99968209  0.99130278  0.38563439  1
  O  O338  1  0.99291117  0.99416739  0.87409583  1
  O  O339  1  -0.00854720  -0.00567509  0.10853112  1
  O  O340  1  0.00544239  0.00325683  0.62276183  1
  O  O341  1  -0.00065706  0.50962245  0.12859669  1
  O  O342  1  0.00014708  0.51221886  0.62944985  1
  O  O343  1  0.49912082  0.00879419  0.12056479  1
  O  O344  1  0.49862129  0.00841093  0.62552391  1
  O  O345  1  0.51315882  0.50200425  0.12055015  1
  O  O346  1  0.50971807  0.50104231  0.61682527  1
  O  O347  1  0.24966976  0.38232615  0.23900707  1
  O  O348  1  0.24874804  0.37608090  0.73349275  1
  O  O349  1  0.23861559  0.88656656  0.25041792  1
  O  O350  1  0.25135408  0.88482837  0.74290896  1
  O  O351  1  0.72867671  0.37361547  0.26355212  1
  O  O352  1  0.74459524  0.38358134  0.74873870  1
  O  O353  1  0.74390551  0.88071631  0.24394214  1
  O  O354  1  0.74560770  0.87857399  0.74015229  1
  O  O355  1  0.25252920  0.11274144  0.25386446  1
  O  O356  1  0.24992698  0.11190620  0.75679752  1
  O  O357  1  0.25266561  0.61855060  0.25857266  1
  O  O358  1  0.26914344  0.64530161  0.76676316  1
  O  O359  1  0.75375129  0.11655984  0.25723807  1
  O  O360  1  0.75508271  0.12547100  0.75289422  1
  O  O361  1  0.76033667  0.62756918  0.26195755  1
  O  O362  1  0.75884470  0.62149992  0.75419894  1
  O  O363  1  0.36726984  0.11725911  0.36765688  1
  O  O364  1  0.36673135  0.11716031  0.87753463  1
  O  O365  1  0.36599527  0.61734491  0.36882242  1
  O  O366  1  0.36815184  0.62841772  0.86984405  1
  O  O367  1  0.86560492  0.12225117  0.36901992  1
  O  O368  1  0.86223158  0.12301785  0.87892786  1
  O  O369  1  0.87179458  0.61954163  0.37004472  1
  O  O370  1  0.86874740  0.62490807  0.86948734  1
  O  O371  1  0.13393041  0.36769465  0.11772048  1
  O  O372  1  0.13559988  0.37143634  0.61741296  1
  O  O373  1  0.12007627  0.86982399  0.13860022  1
  O  O374  1  0.12878403  0.88503807  0.62491056  1
  O  O375  1  0.63051390  0.38161122  0.13163588  1
  O  O376  1  0.63121051  0.38012910  0.63238234  1
  O  O377  1  0.63213184  0.87453607  0.13801907  1
  O  O378  1  0.63465923  0.87468988  0.63571614  1
  O  O379  1  0.12350400  0.24213719  0.26371976  1
  O  O380  1  0.11727687  0.24342419  0.76180369  1
  O  O381  1  0.13329988  0.76508889  0.25891937  1
  O  O382  1  0.11488404  0.74312938  0.75839513  1
  O  O383  1  0.62069893  0.25776114  0.26041809  1
  O  O384  1  0.62042384  0.26389748  0.75900300  1
  O  O385  1  0.62177885  0.75516379  0.25860565  1
  O  O386  1  0.61872596  0.75759460  0.74999546  1
  O  O387  1  0.37532880  0.24398771  0.24183807  1
  O  O388  1  0.37618114  0.24446780  0.74178020  1
  O  O389  1  0.37723631  0.74549877  0.24366020  1
  O  O390  1  0.38677630  0.74718964  0.74310204  1
  O  O391  1  0.87523913  0.24114149  0.24549575  1
  O  O392  1  0.88325428  0.25092616  0.75877602  1
  O  O393  1  0.87190220  0.73514790  0.24061221  1
  O  O394  1  0.88528175  0.74663435  0.73888274  1
  O  O395  1  0.38437359  0.49765110  0.48786148  1
  O  O396  1  0.37361428  0.48842362  1.00464091  1
  O  O397  1  0.37089681  1.00416269  0.48475568  1
  O  O398  1  0.37775941  0.99307131  0.99664501  1
  O  O399  1  0.87554004  0.49926993  0.48895226  1
  O  O400  1  0.87643655  0.49044878  0.99878331  1
  O  O401  1  0.88781302  0.99855292  0.49809471  1
  O  O402  1  0.88580665  1.00670567  0.98736468  1
  O  O403  1  0.11000731  0.00739705  -0.00426043  1
  O  O404  1  0.11612546  0.00765292  0.50781604  1
  O  O405  1  0.12920401  0.51559957  -0.00062087  1
  O  O406  1  0.12590955  0.51574690  0.49142379  1
  O  O407  1  0.61805902  0.00698878  0.00328489  1
  O  O408  1  0.62233888  0.01253894  0.49978904  1
  O  O409  1  0.62780006  0.50062635  0.01270857  1
  O  O410  1  0.61740806  0.49365423  0.50572428  1
  O  O411  1  0.37332355  0.36651227  0.11842369  1
  O  O412  1  0.37241750  0.36239888  0.62518791  1
  O  O413  1  0.37747837  0.86243186  0.12009761  1
  O  O414  1  0.36526430  0.86373812  0.63038707  1
  O  O415  1  0.87924720  0.37226170  0.11320695  1
  O  O416  1  0.87672458  0.37385955  0.60872947  1
  O  O417  1  0.86538925  0.86520767  0.13518146  1
  O  O418  1  0.86696099  0.86735176  0.62964420  1
  O  O419  1  0.12761316  0.12702749  0.38279110  1
  O  O420  1  0.13008589  0.13266693  0.88203978  1
  O  O421  1  0.12800357  0.63214226  0.37942864  1
  O  O422  1  0.12983842  0.63850094  0.88687863  1
  O  O423  1  0.62929174  0.13090136  0.37940247  1
  O  O424  1  0.63357078  0.13344861  0.87783721  1
  O  O425  1  0.63438270  0.63193941  0.36689189  1
  O  O426  1  0.64107655  0.62965339  0.87316213  1
