# generated using pymatgen
data_V85Zn86O256
_symmetry_space_group_name_H-M   'P 1'
_cell_length_a   16.92076890
_cell_length_b   16.92249737
_cell_length_c   16.91568802
_cell_angle_alpha   89.97513055
_cell_angle_beta   89.95285707
_cell_angle_gamma   90.07719408
_symmetry_Int_Tables_number   1
_chemical_formula_structural   V85Zn86O256
_chemical_formula_sum   'V85 Zn86 O256'
_cell_volume   4843.65981559
_cell_formula_units_Z   1
loop_
 _symmetry_equiv_pos_site_id
 _symmetry_equiv_pos_as_xyz
  1  'x, y, z'
loop_
 _atom_site_type_symbol
 _atom_site_label
 _atom_site_symmetry_multiplicity
 _atom_site_fract_x
 _atom_site_fract_y
 _atom_site_fract_z
 _atom_site_occupancy
  V  V0  1  0.25317805  0.13091370  0.87676082  1
  V  V1  1  0.74480123  0.37341577  0.62342285  1
  V  V2  1  0.87753479  0.24425736  0.12689639  1
  V  V3  1  0.87754463  0.87998065  -0.00088132  1
  V  V4  1  0.50257375  0.37505410  0.37507493  1
  V  V5  1  0.24698224  0.62610127  0.38860587  1
  V  V6  1  0.50433622  0.12180120  0.60901022  1
  V  V7  1  0.25032550  0.37222845  0.62356765  1
  V  V8  1  0.12739716  0.86956904  0.75791555  1
  V  V9  1  0.01213347  0.75338961  0.24557854  1
  V  V10  1  0.62339407  0.49497653  0.63546461  1
  V  V11  1  0.37583085  0.37122730  0.00854217  1
  V  V12  1  0.62336277  -0.00533978  0.12963147  1
  V  V13  1  0.50324828  0.50190116  0.49948191  1
  V  V14  1  0.50162948  0.37440558  0.87198360  1
  V  V15  1  0.12606841  0.50638187  0.62193744  1
  V  V16  1  0.24948958  0.86994262  0.61739490  1
  V  V17  1  0.87428944  0.49458919  0.38119078  1
  V  V18  1  0.74737733  0.75268807  -0.00432489  1
  V  V19  1  0.25236072  0.00034808  0.74821835  1
  V  V20  1  0.87593803  0.25804627  0.61974412  1
  V  V21  1  0.23719253  0.87227042  0.13325623  1
  V  V22  1  0.11591048  0.01864212  0.12560153  1
  V  V23  1  -0.00948095  0.12200944  0.62586281  1
  V  V24  1  0.62397935  0.63025569  -0.00401361  1
  V  V25  1  0.12498216  -0.00041439  0.62245541  1
  V  V26  1  0.12939571  0.25406272  0.38019313  1
  V  V27  1  0.74942269  0.62459786  0.87072195  1
  V  V28  1  0.24979211  0.49940276  0.75306998  1
  V  V29  1  0.12060540  0.50163933  0.12464323  1
  V  V30  1  0.87661858  0.74495819  0.12467216  1
  V  V31  1  0.75228566  -0.00124966  0.74863594  1
  V  V32  1  0.62526273  0.50010424  0.12684627  1
  V  V33  1  0.00626122  0.37741632  0.87781810  1
  V  V34  1  0.38024354  0.00641937  0.37006662  1
  V  V35  1  0.87452765  0.37771641  0.00011631  1
  V  V36  1  0.36406721  0.87264823  -0.00080212  1
  V  V37  1  0.12919562  0.75316593  0.39671449  1
  V  V38  1  0.49883529  0.62638255  0.12845221  1
  V  V39  1  0.00105725  0.74807877  0.75669109  1
  V  V40  1  0.50445490  0.25312615  0.74543344  1
  V  V41  1  0.37086729  0.75217799  0.12507276  1
  V  V42  1  0.37352910  0.49949882  0.87549101  1
  V  V43  1  0.87196239  0.12550157  0.25389373  1
  V  V44  1  0.62239405  0.00073568  0.61305969  1
  V  V45  1  0.50856556  0.76163853  0.24961655  1
  V  V46  1  0.24496625  0.63841005  0.88112756  1
  V  V47  1  0.12017034  0.63835428  0.00177003  1
  V  V48  1  0.08358274  0.19114280  0.93085350  1
  V  V49  1  0.49971655  0.49958401  0.00059538  1
  V  V50  1  0.38209217  0.88000692  0.49640874  1
  V  V51  1  0.62432564  0.12490473  0.00133422  1
  V  V52  1  0.87393423  0.74362044  0.62215993  1
  V  V53  1  0.63294697  0.75730472  0.38056978  1
  V  V54  1  0.62137557  0.86362756  0.75331154  1
  V  V55  1  0.50237107  0.63113388  0.62799301  1
  V  V56  1  0.00062257  0.50031132  0.49992781  1
  V  V57  1  0.50116838  0.85973344  0.87216742  1
  V  V58  1  0.00391879  0.24829011  0.24946867  1
  V  V59  1  0.49962153  -0.00139810  -0.00236043  1
  V  V60  1  0.62628426  0.25407272  0.86946686  1
  V  V61  1  0.13100757  0.13014750  0.50171567  1
  V  V62  1  0.24915568  0.12541018  0.36817186  1
  V  V63  1  0.75122685  0.50189419  0.25387655  1
  V  V64  1  0.37163403  0.37370483  0.49818771  1
  V  V65  1  0.75044573  0.37335823  0.12669540  1
  V  V66  1  0.62516538  0.37196293  0.25296293  1
  V  V67  1  0.74808918  -0.00256146  0.25205985  1
  V  V68  1  0.74919182  0.86886841  0.62008489  1
  V  V69  1  0.12688560  0.37044885  0.75344201  1
  V  V70  1  0.75072554  0.23763815  0.49527675  1
  V  V71  1  0.75022181  0.12395234  0.86799860  1
  V  V72  1  -0.00241641  0.24539037  0.74930976  1
  V  V73  1  0.48539254  0.12757218  0.12714787  1
  V  V74  1  0.37874703  -0.00085256  0.87306289  1
  V  V75  1  0.25464819  0.24726031  0.00866578  1
  V  V76  1  0.37310497  0.74823884  0.61659652  1
  V  V77  1  0.48551898  0.24760238  0.24737610  1
  V  V78  1  0.88109400  0.62433668  0.24957204  1
  V  V79  1  0.87397277  0.00342076  0.37648687  1
  V  V80  1  0.37858834  0.12466604  0.74629984  1
  V  V81  1  0.37795484  0.63228004  0.75220555  1
  V  V82  1  0.62705706  0.23568313  0.37728150  1
  V  V83  1  0.87585896  0.86777061  0.49571230  1
  V  V84  1  0.37033640  0.24812237  0.61974488  1
  Zn  Zn85  1  0.24388860  -0.00176957  0.25135630  1
  Zn  Zn86  1  0.00720596  0.87799057  0.37020787  1
  Zn  Zn87  1  0.25197923  0.50425109  0.24948211  1
  Zn  Zn88  1  0.00549046  0.87631835  0.87898151  1
  Zn  Zn89  1  0.25240453  0.37581437  0.13193064  1
  Zn  Zn90  1  0.87502747  0.49939418  0.87173167  1
  Zn  Zn91  1  0.12592261  0.38074217  0.25392490  1
  Zn  Zn92  1  0.50582190  0.88277855  0.37566908  1
  Zn  Zn93  1  -0.00152687  0.37231615  0.38105489  1
  Zn  Zn94  1  0.75371081  0.63142604  0.38235143  1
  Zn  Zn95  1  0.63151802  0.62886184  0.50051971  1
  Zn  Zn96  1  0.00666176  0.62819725  0.62329595  1
  Zn  Zn97  1  0.00375191  0.01069825  -0.00176024  1
  Zn  Zn98  1  0.75032914  0.48750405  0.75352476  1
  Zn  Zn99  1  0.37277056  0.62727352  0.25392741  1
  Zn  Zn100  1  0.87779454  0.62050983  0.75103143  1
  Zn  Zn101  1  0.74567149  0.87319330  0.12642588  1
  Zn  Zn102  1  -0.00151589  0.50796740  0.00171024  1
  Zn  Zn103  1  0.87872682  0.00164711  0.87177810  1
  Zn  Zn104  1  0.74624852  0.25121415  0.00022392  1
  Zn  Zn105  1  0.00023159  -0.00014022  0.49611822  1
  Zn  Zn106  1  0.37445176  0.50429408  0.37304655  1
  Zn  Zn107  1  0.18916050  0.19008082  0.18997462  1
  Zn  Zn108  1  0.18643551  0.18714426  0.68880242  1
  Zn  Zn109  1  0.19194532  0.68216345  0.18687097  1
  Zn  Zn110  1  0.19074241  0.68873579  0.69046545  1
  Zn  Zn111  1  0.68602921  0.18400411  0.18941465  1
  Zn  Zn112  1  0.68707299  0.18508405  0.68383292  1
  Zn  Zn113  1  0.69010569  0.68737523  0.18861739  1
  Zn  Zn114  1  0.68704453  0.68698364  0.68436779  1
  Zn  Zn115  1  0.30733261  0.31709254  0.31505355  1
  Zn  Zn116  1  0.31511952  0.31015017  0.81491758  1
  Zn  Zn117  1  0.31136148  0.80975360  0.31339520  1
  Zn  Zn118  1  0.31496183  0.81261003  0.80699598  1
  Zn  Zn119  1  0.81242544  0.31262062  0.31555222  1
  Zn  Zn120  1  0.81516612  0.31099778  0.80850409  1
  Zn  Zn121  1  0.81542727  0.81657096  0.30879190  1
  Zn  Zn122  1  0.81278053  0.81140022  0.81257854  1
  Zn  Zn123  1  0.18727193  0.44055933  0.43833843  1
  Zn  Zn124  1  0.18785312  0.43944327  0.94236013  1
  Zn  Zn125  1  0.19069926  0.93672504  0.43728791  1
  Zn  Zn126  1  0.18709620  0.94505684  0.94177690  1
  Zn  Zn127  1  0.69030271  0.43354010  0.44345879  1
  Zn  Zn128  1  0.68697012  0.43838801  0.93804681  1
  Zn  Zn129  1  0.69237458  0.93430269  0.43439462  1
  Zn  Zn130  1  0.68653745  0.93584251  0.93616752  1
  Zn  Zn131  1  0.30531381  0.05666221  0.06149755  1
  Zn  Zn132  1  0.31287708  0.06135437  0.55633554  1
  Zn  Zn133  1  0.30919018  0.56302415  0.06328825  1
  Zn  Zn134  1  0.31340216  0.56026629  0.56212324  1
  Zn  Zn135  1  0.81004707  0.06257121  0.06237191  1
  Zn  Zn136  1  0.81121081  0.05882309  0.56140377  1
  Zn  Zn137  1  0.81177959  0.56326460  0.06263818  1
  Zn  Zn138  1  0.81041812  0.56093244  0.55971206  1
  Zn  Zn139  1  0.43641826  0.43949908  0.19190993  1
  Zn  Zn140  1  0.43780704  0.43861460  0.68766837  1
  Zn  Zn141  1  0.43279635  0.94055998  0.18750916  1
  Zn  Zn142  1  0.44146602  0.93598437  0.68466623  1
  Zn  Zn143  1  0.94217549  0.43553639  0.18966889  1
  Zn  Zn144  1  0.93682381  0.43818317  0.68816338  1
  Zn  Zn145  1  0.93995021  0.93602208  0.18413656  1
  Zn  Zn146  1  0.93677654  0.93273413  0.68782448  1
  Zn  Zn147  1  0.06044562  0.06368454  0.30728888  1
  Zn  Zn148  1  0.05867546  0.05379057  0.80598546  1
  Zn  Zn149  1  0.06444994  0.56967604  0.31504074  1
  Zn  Zn150  1  0.06341771  0.56217617  0.81369498  1
  Zn  Zn151  1  0.55969578  0.06399831  0.30867318  1
  Zn  Zn152  1  0.56628817  0.05984946  0.80512430  1
  Zn  Zn153  1  0.56339697  0.56827770  0.31386069  1
  Zn  Zn154  1  0.56238070  0.56592774  0.81309587  1
  Zn  Zn155  1  0.43617358  0.18952050  0.43340310  1
  Zn  Zn156  1  0.43801543  0.18789743  0.93771334  1
  Zn  Zn157  1  0.43965148  0.68922975  0.43663694  1
  Zn  Zn158  1  0.43316171  0.68719926  0.94170647  1
  Zn  Zn159  1  0.94016904  0.18564615  0.43841963  1
  Zn  Zn160  1  0.91986814  0.19153518  0.93495235  1
  Zn  Zn161  1  0.94315874  0.68283629  0.43624515  1
  Zn  Zn162  1  0.93543118  0.69011671  0.93581210  1
  Zn  Zn163  1  0.06096009  0.31845698  0.06953706  1
  Zn  Zn164  1  0.06180396  0.31699944  0.56147168  1
  Zn  Zn165  1  0.05805339  0.81114413  0.06267000  1
  Zn  Zn166  1  0.05615340  0.81536687  0.56645405  1
  Zn  Zn167  1  0.56105891  0.31023348  0.06361865  1
  Zn  Zn168  1  0.56467028  0.31099476  0.55934614  1
  Zn  Zn169  1  0.55950603  0.81357768  0.05951284  1
  Zn  Zn170  1  0.56147105  0.81368987  0.56222225  1
  O  O171  1  0.12801329  0.11755264  0.12367585  1
  O  O172  1  0.12070224  0.11813572  0.61989356  1
  O  O173  1  0.13135107  0.61816660  0.10903984  1
  O  O174  1  0.12986463  0.60953832  0.63283592  1
  O  O175  1  0.61863842  0.11759309  0.11561919  1
  O  O176  1  0.61574994  0.11433547  0.62701354  1
  O  O177  1  0.62032276  0.61987755  0.11739788  1
  O  O178  1  0.61666594  0.61792105  0.62410774  1
  O  O179  1  0.38269379  0.37680699  0.38444685  1
  O  O180  1  0.38226358  0.38062113  0.88123779  1
  O  O181  1  0.37445384  0.88346002  0.38154298  1
  O  O182  1  0.37961312  0.87827094  0.87938460  1
  O  O183  1  0.87842141  0.39041024  0.36849946  1
  O  O184  1  0.88406142  0.37121565  0.88400826  1
  O  O185  1  0.87800823  0.88028989  0.38239115  1
  O  O186  1  0.87076293  0.87699207  0.88925701  1
  O  O187  1  0.25586276  0.00756076  0.37278382  1
  O  O188  1  0.25749150  0.01075796  0.87021081  1
  O  O189  1  0.24944736  0.51496209  0.37606330  1
  O  O190  1  0.25675745  0.50534620  0.87031616  1
  O  O191  1  0.76295459  -0.00320246  0.36680133  1
  O  O192  1  0.74542243  0.00735887  0.86598943  1
  O  O193  1  0.75698679  0.49775118  0.36945425  1
  O  O194  1  0.75018912  0.50795146  0.87317486  1
  O  O195  1  0.23769896  0.49871268  0.12479290  1
  O  O196  1  0.24597300  0.49300118  0.63271197  1
  O  O197  1  0.24033882  0.98836618  0.12759812  1
  O  O198  1  0.24431509  0.99500006  0.62919920  1
  O  O199  1  0.74526431  0.49368935  0.13253706  1
  O  O200  1  0.74032366  0.48997913  0.62521261  1
  O  O201  1  0.73968509  1.00077175  0.13097943  1
  O  O202  1  0.74554343  0.98845154  0.63001711  1
  O  O203  1  0.00292859  0.36220455  0.25605154  1
  O  O204  1  0.00644043  0.36777081  0.75914313  1
  O  O205  1  -0.00758154  0.85693968  0.25297781  1
  O  O206  1  0.01161169  0.86900065  0.74968210  1
  O  O207  1  0.50718962  0.36794856  0.25411016  1
  O  O208  1  0.49393312  0.36149083  0.75489742  1
  O  O209  1  0.49770851  0.86404663  0.24900129  1
  O  O210  1  0.51218009  0.87830260  0.75670890  1
  O  O211  1  0.50030822  0.13476834  0.23878853  1
  O  O212  1  0.49479476  0.13471141  0.74348157  1
  O  O213  1  0.49858808  0.63575616  0.24094619  1
  O  O214  1  0.48956562  0.61985525  0.74196631  1
  O  O215  1  0.98733343  0.13871785  0.25250358  1
  O  O216  1  1.00960210  0.13387312  0.73827266  1
  O  O217  1  0.98830834  0.63694119  0.25391783  1
  O  O218  1  1.00039975  0.63293143  0.74735432  1
  O  O219  1  0.36765939  0.25934397  -0.00587989  1
  O  O220  1  0.38014536  0.25945705  0.50971251  1
  O  O221  1  0.38155240  0.76010279  0.01447644  1
  O  O222  1  0.37803780  0.75716829  0.51091161  1
  O  O223  1  0.86936045  0.26113980  0.00936380  1
  O  O224  1  0.86408821  0.24599458  0.50562899  1
  O  O225  1  0.86840757  0.75479840  0.00745771  1
  O  O226  1  0.88376087  0.75606095  0.50729351  1
  O  O227  1  0.12068046  0.24209399  0.49454638  1
  O  O228  1  0.13250120  0.25477890  0.99762497  1
  O  O229  1  0.12057946  0.74950471  0.49513401  1
  O  O230  1  0.12508483  0.73738005  1.00234256  1
  O  O231  1  0.63744136  0.25226910  0.49083622  1
  O  O232  1  0.62439364  0.24145613  0.99159059  1
  O  O233  1  0.61927966  0.75096801  0.48419067  1
  O  O234  1  0.63284225  0.74121189  1.00631882  1
  O  O235  1  0.50351356  0.24054726  0.13483539  1
  O  O236  1  0.49418572  0.24481947  0.63000764  1
  O  O237  1  0.49673986  0.74742052  0.13373851  1
  O  O238  1  0.49398662  0.73745035  0.62225091  1
  O  O239  1  0.98958292  0.25564808  0.13472349  1
  O  O240  1  0.99359944  0.24496679  0.62891842  1
  O  O241  1  0.99159557  0.74993437  0.13652037  1
  O  O242  1  0.99099777  0.74837446  0.63467460  1
  O  O243  1  0.01108945  0.24984598  0.37103064  1
  O  O244  1  0.00758278  0.25017258  0.87040178  1
  O  O245  1  0.01574420  0.74829792  0.36687299  1
  O  O246  1  -0.00508944  0.75625674  0.86098006  1
  O  O247  1  0.50823431  0.25491984  0.36839258  1
  O  O248  1  0.50698280  0.25244060  0.86591390  1
  O  O249  1  0.50667111  0.75329261  0.36182852  1
  O  O250  1  0.49446857  0.76031801  0.87693892  1
  O  O251  1  0.23672334  0.12186058  0.49262076  1
  O  O252  1  0.25478050  0.13338135  0.99027791  1
  O  O253  1  0.25252156  0.62407604  0.48897508  1
  O  O254  1  0.24383081  0.62389407  0.98662493  1
  O  O255  1  0.74905926  0.13841666  0.50580178  1
  O  O256  1  0.73696354  0.12625336  0.99263276  1
  O  O257  1  0.74457746  0.62219273  0.49532170  1
  O  O258  1  0.74237486  0.63017346  0.99305781  1
  O  O259  1  0.26028118  0.36553043  -0.00275040  1
  O  O260  1  0.26454122  0.38227286  0.50583625  1
  O  O261  1  0.26042774  0.87877710  0.00656397  1
  O  O262  1  0.26007228  0.87893468  0.51287582  1
  O  O263  1  0.75690585  0.37400290  0.00712174  1
  O  O264  1  0.74933412  0.36225376  0.51474169  1
  O  O265  1  0.75326638  0.86735049  0.00234823  1
  O  O266  1  0.76316549  0.87593432  0.50863760  1
  O  O267  1  0.12225489  0.50649332  0.23639982  1
  O  O268  1  0.12918299  0.48803134  0.74526062  1
  O  O269  1  0.12488057  1.00233685  0.23392895  1
  O  O270  1  0.13231760  0.99312290  0.73733242  1
  O  O271  1  0.62950346  0.49449425  0.24617648  1
  O  O272  1  0.62571173  0.50171455  0.73924080  1
  O  O273  1  0.63420304  1.00712749  0.24168613  1
  O  O274  1  0.63415198  0.98957948  0.73960400  1
  O  O275  1  0.36845290  -0.00354177  0.26599769  1
  O  O276  1  0.37127081  0.00419679  0.75245056  1
  O  O277  1  0.37441762  0.50746892  0.25506381  1
  O  O278  1  0.36958850  0.50962379  0.75424935  1
  O  O279  1  0.87212669  0.00797192  0.25303685  1
  O  O280  1  0.85776682  -0.01018279  0.75024164  1
  O  O281  1  0.87313450  0.50724942  0.25389088  1
  O  O282  1  0.86903104  0.50240272  0.75191310  1
  O  O283  1  0.12342919  0.36667227  0.37669884  1
  O  O284  1  0.11667581  0.37811492  0.86849025  1
  O  O285  1  0.12570083  0.85975925  0.38058434  1
  O  O286  1  0.13157061  0.88196123  0.86079465  1
  O  O287  1  0.61932122  0.36957795  0.37073858  1
  O  O288  1  0.61965730  0.36153191  0.88036689  1
  O  O289  1  0.62218311  0.86396470  0.37473486  1
  O  O290  1  0.61661645  0.87757118  0.86223862  1
  O  O291  1  0.38661756  0.11893604  0.11545006  1
  O  O292  1  0.38008718  0.13124440  0.62578256  1
  O  O293  1  0.38176439  0.63542285  0.12201608  1
  O  O294  1  0.37917200  0.63060253  0.63114590  1
  O  O295  1  0.86991519  0.13924485  0.12871715  1
  O  O296  1  0.88700726  0.13064517  0.62004091  1
  O  O297  1  0.87081729  0.63624638  0.13075340  1
  O  O298  1  0.87185961  0.63657691  0.62789482  1
  O  O299  1  0.24829736  0.25269843  0.11248622  1
  O  O300  1  0.26263475  0.25434617  0.63050767  1
  O  O301  1  0.25855749  0.76103176  0.12808384  1
  O  O302  1  0.25967449  0.75853652  0.62904666  1
  O  O303  1  0.75504474  0.25820807  0.12607491  1
  O  O304  1  0.75664776  0.25086532  0.61721106  1
  O  O305  1  0.75647334  0.75107361  0.11554409  1
  O  O306  1  0.75665390  0.76143268  0.62944062  1
  O  O307  1  0.23778895  0.24293060  0.37465533  1
  O  O308  1  0.25136193  0.23765459  0.88032826  1
  O  O309  1  0.23684557  0.74424572  0.37525699  1
  O  O310  1  0.25489677  0.73679047  0.87114842  1
  O  O311  1  0.74463318  0.25331253  0.38769747  1
  O  O312  1  0.74223651  0.24392556  0.87329041  1
  O  O313  1  0.73540559  0.75282283  0.36427178  1
  O  O314  1  0.75336929  0.74261282  0.88853381  1
  O  O315  1  0.01139761  0.13642392  -0.01802825  1
  O  O316  1  0.01152838  0.12122911  0.50930806  1
  O  O317  1  0.01579498  0.62578659  -0.01010519  1
  O  O318  1  -0.00118349  0.60866897  0.50657486  1
  O  O319  1  0.50876915  0.12079280  0.00332858  1
  O  O320  1  0.49870683  0.13096254  0.51031007  1
  O  O321  1  0.50646396  0.62209129  0.00717221  1
  O  O322  1  0.50220426  0.61720487  0.50817633  1
  O  O323  1  0.49210845  0.38052826  0.49629116  1
  O  O324  1  0.49416108  0.37797790  0.99373041  1
  O  O325  1  0.48652513  0.87432026  0.49907087  1
  O  O326  1  0.49241869  0.88064895  0.99032283  1
  O  O327  1  1.00005129  0.39135876  0.49996679  1
  O  O328  1  0.99278818  0.37324050  0.99126724  1
  O  O329  1  0.98831435  0.88037372  0.49923928  1
  O  O330  1  0.99017924  0.87488973  0.99734513  1
  O  O331  1  0.50113851  0.49536637  0.38371517  1
  O  O332  1  0.49536928  0.49506340  0.88053049  1
  O  O333  1  0.48568660  1.00079795  0.37065111  1
  O  O334  1  0.49475494  0.99573574  0.87759038  1
  O  O335  1  0.99659388  0.50138962  0.38530127  1
  O  O336  1  0.99738836  0.48918587  0.87805466  1
  O  O337  1  0.98928147  0.99754629  0.37321876  1
  O  O338  1  0.99621434  0.99551442  0.87803999  1
  O  O339  1  0.01075671  0.00255716  0.12163983  1
  O  O340  1  0.00724421  0.00656351  0.62679218  1
  O  O341  1  0.01378204  0.49714964  0.12066676  1
  O  O342  1  0.00873625  0.49985578  0.61903550  1
  O  O343  1  0.50459843  0.00691495  0.12057837  1
  O  O344  1  0.50880335  0.00980219  0.62775471  1
  O  O345  1  0.50523421  0.50697029  0.12018377  1
  O  O346  1  0.50493306  0.50759435  0.62060374  1
  O  O347  1  0.24485820  0.38325024  0.24942110  1
  O  O348  1  0.24404906  0.37730953  0.74792557  1
  O  O349  1  0.25226030  0.87550231  0.23589376  1
  O  O350  1  0.24636274  0.88021812  0.73968836  1
  O  O351  1  0.74443641  0.38078679  0.24560418  1
  O  O352  1  0.75333635  0.36885041  0.73206568  1
  O  O353  1  0.75697762  0.89203339  0.24325389  1
  O  O354  1  0.73868874  0.87804989  0.74573372  1
  O  O355  1  0.24762211  0.12413981  0.26420886  1
  O  O356  1  0.25761748  0.12073828  0.75484044  1
  O  O357  1  0.25362968  0.62507996  0.26278255  1
  O  O358  1  0.25581086  0.61959566  0.76169114  1
  O  O359  1  0.76328594  0.11591648  0.24515170  1
  O  O360  1  0.74179744  0.11342992  0.75629868  1
  O  O361  1  0.76098031  0.61822343  0.25320624  1
  O  O362  1  0.74567131  0.62808661  0.76473909  1
  O  O363  1  0.36594392  0.11379946  0.38255266  1
  O  O364  1  0.37086354  0.12042277  0.86755840  1
  O  O365  1  0.36216436  0.62942389  0.37681808  1
  O  O366  1  0.36756319  0.62131087  0.87049786  1
  O  O367  1  0.87761688  0.11705240  0.36691997  1
  O  O368  1  0.85546777  0.12192286  0.87520334  1
  O  O369  1  0.87464397  0.61495622  0.36686413  1
  O  O370  1  0.86383390  0.62156440  0.87564583  1
  O  O371  1  0.12910051  0.38920357  0.12691214  1
  O  O372  1  0.13238451  0.38181561  0.63239576  1
  O  O373  1  0.13714229  0.87241507  0.12129727  1
  O  O374  1  0.13255825  0.88177819  0.62866611  1
  O  O375  1  0.63021401  0.37945526  0.13097741  1
  O  O376  1  0.62974112  0.38273637  0.62337435  1
  O  O377  1  0.62271702  0.89095448  0.11838219  1
  O  O378  1  0.63007179  0.87742274  0.63245791  1
  O  O379  1  0.11779086  0.25025871  0.25871300  1
  O  O380  1  0.11545387  0.26285050  0.74262338  1
  O  O381  1  0.11235173  0.74553188  0.24594855  1
  O  O382  1  0.11699682  0.75980188  0.74308459  1
  O  O383  1  0.62334133  0.25620544  0.25858202  1
  O  O384  1  0.61625423  0.24502355  0.75708007  1
  O  O385  1  0.61357164  0.74896166  0.25335257  1
  O  O386  1  0.62553484  0.76473427  0.74627673  1
  O  O387  1  0.38676839  0.25514342  0.25702279  1
  O  O388  1  0.38253983  0.24439164  0.74114798  1
  O  O389  1  0.38641199  0.75127788  0.23985175  1
  O  O390  1  0.37321214  0.73813869  0.73924965  1
  O  O391  1  0.87831378  0.24494372  0.24605790  1
  O  O392  1  0.89067104  0.25036099  0.74182703  1
  O  O393  1  0.87860798  0.74264673  0.24321229  1
  O  O394  1  0.88228627  0.74975447  0.74134878  1
  O  O395  1  0.38841405  0.49257307  0.50172568  1
  O  O396  1  0.38090132  0.49450096  0.99460529  1
  O  O397  1  0.37064891  0.99175440  0.48546951  1
  O  O398  1  0.38004457  0.99149387  0.99331339  1
  O  O399  1  0.88594273  0.50064461  0.49293309  1
  O  O400  1  0.87709615  0.48819546  1.00133206  1
  O  O401  1  0.87599052  0.99361711  0.49153042  1
  O  O402  1  0.87857995  0.99400032  1.00040280  1
  O  O403  1  0.12250759  -0.00175610  0.01770048  1
  O  O404  1  0.12439299  0.00426257  0.51087981  1
  O  O405  1  0.12308952  0.50784906  0.00933483  1
  O  O406  1  0.11575635  0.49682413  0.51034632  1
  O  O407  1  0.61857078  0.00712778  0.00397492  1
  O  O408  1  0.63099126  -0.00905027  0.51361545  1
  O  O409  1  0.61848506  0.50630327  0.00710404  1
  O  O410  1  0.61291658  0.49717280  0.50929249  1
  O  O411  1  0.37610837  0.37936297  0.11162417  1
  O  O412  1  0.37147795  0.36731845  0.62006825  1
  O  O413  1  0.36710883  0.87177799  0.11718471  1
  O  O414  1  0.37036647  0.86816863  0.62083112  1
  O  O415  1  0.87019614  0.36826268  0.12019406  1
  O  O416  1  0.87153698  0.36177610  0.62524892  1
  O  O417  1  0.87258006  0.86533435  0.11454074  1
  O  O418  1  0.86805801  0.86523522  0.61866888  1
  O  O419  1  0.12979700  0.12944893  0.38274841  1
  O  O420  1  0.13438111  0.12400439  0.86760185  1
  O  O421  1  0.13649139  0.63844512  0.37567640  1
  O  O422  1  0.13794999  0.62053716  0.88459303  1
  O  O423  1  0.62278539  0.13644240  0.37189802  1
  O  O424  1  0.62903327  0.13324677  0.88012617  1
  O  O425  1  0.62593044  0.64155725  0.37543680  1
  O  O426  1  0.62930062  0.62125786  0.88908697  1
