# generated using pymatgen
data_V85Zn86O256
_symmetry_space_group_name_H-M   'P 1'
_cell_length_a   16.92791148
_cell_length_b   16.92706266
_cell_length_c   16.93033767
_cell_angle_alpha   90.04555437
_cell_angle_beta   89.95465786
_cell_angle_gamma   89.96243943
_symmetry_Int_Tables_number   1
_chemical_formula_structural   V85Zn86O256
_chemical_formula_sum   'V85 Zn86 O256'
_cell_volume   4851.21178286
_cell_formula_units_Z   1
loop_
 _symmetry_equiv_pos_site_id
 _symmetry_equiv_pos_as_xyz
  1  'x, y, z'
loop_
 _atom_site_type_symbol
 _atom_site_label
 _atom_site_symmetry_multiplicity
 _atom_site_fract_x
 _atom_site_fract_y
 _atom_site_fract_z
 _atom_site_occupancy
  V  V0  1  0.37328382  0.49211911  0.88264451  1
  V  V1  1  0.87623464  0.87439671  0.00304106  1
  V  V2  1  0.38531027  0.25532835  0.62588269  1
  V  V3  1  0.25226288  0.87648603  0.12503763  1
  V  V4  1  -0.00143461  0.75182878  0.24976496  1
  V  V5  1  0.74892042  0.87494356  0.12579309  1
  V  V6  1  0.74386897  0.75633799  0.50050659  1
  V  V7  1  0.61983553  0.62838950  0.49933620  1
  V  V8  1  -0.00509642  0.62194622  0.62424805  1
  V  V9  1  0.37756786  0.87342003  0.00009807  1
  V  V10  1  0.50256526  0.73896749  0.74967410  1
  V  V11  1  0.63275284  0.86767534  0.74954408  1
  V  V12  1  0.49987801  0.86272844  0.37430135  1
  V  V13  1  0.25462780  0.49392753  0.24890801  1
  V  V14  1  0.74296032  0.24659906  0.00191639  1
  V  V15  1  0.38291940  0.13026645  0.74976719  1
  V  V16  1  0.00008230  0.00987681  0.00371173  1
  V  V17  1  0.50072856  0.49013333  0.00196247  1
  V  V18  1  0.25764774  0.61929069  0.37396038  1
  V  V19  1  0.62291744  0.12513309  0.50094634  1
  V  V20  1  0.87019114  0.37411001  -0.01062851  1
  V  V21  1  0.12049133  0.37329143  0.75078418  1
  V  V22  1  0.49934179  0.63123345  0.12297120  1
  V  V23  1  0.62201523  0.24957160  0.86016309  1
  V  V24  1  -0.00369112  0.87830772  0.37741945  1
  V  V25  1  0.25212226  0.37681565  0.62273020  1
  V  V26  1  0.50974195  0.00212445  -0.00088846  1
  V  V27  1  0.75588501  0.49647011  0.25578453  1
  V  V28  1  0.37402086  0.25746775  0.11766486  1
  V  V29  1  0.12668165  0.13029367  0.00162040  1
  V  V30  1  0.37649363  -0.00404214  0.37553200  1
  V  V31  1  0.12410779  0.62301411  0.00413933  1
  V  V32  1  0.74826673  0.25362163  0.49952898  1
  V  V33  1  0.74613767  0.62998815  0.37488400  1
  V  V34  1  0.62597658  0.50327118  0.12080008  1
  V  V35  1  0.74291632  0.12132488  0.87613699  1
  V  V36  1  0.31935790  0.91516361  0.55975027  1
  V  V37  1  0.25278014  0.75063063  0.00032961  1
  V  V38  1  0.12724161  0.75146860  0.87483389  1
  V  V39  1  0.13216452  0.88097198  0.73868629  1
  V  V40  1  0.75045144  0.13065585  0.36977932  1
  V  V41  1  0.37992090  0.37942776  0.48500477  1
  V  V42  1  0.12375037  0.87689948  0.25008853  1
  V  V43  1  0.50589725  0.12760596  0.12168338  1
  V  V44  1  0.25057259  0.50066562  0.74966716  1
  V  V45  1  -0.00786604  0.49953107  -0.00631179  1
  V  V46  1  0.49780046  0.25421317  0.25215316  1
  V  V47  1  0.63403468  -0.00658441  0.62542618  1
  V  V48  1  0.00342527  0.87564404  0.87668456  1
  V  V49  1  -0.06209135  0.17550692  0.18269314  1
  V  V50  1  0.74843599  0.00127374  0.25195328  1
  V  V51  1  0.25150284  0.00164575  0.25042174  1
  V  V52  1  0.00096756  0.00277425  0.51429048  1
  V  V53  1  0.24923642  0.25409683  0.49428244  1
  V  V54  1  0.62038350  0.86154165  0.25331438  1
  V  V55  1  0.62003685  0.25345874  0.37527210  1
  V  V56  1  0.61517842  0.50038279  0.62609976  1
  V  V57  1  0.12324374  0.00576781  0.12676471  1
  V  V58  1  0.50169700  0.37108578  0.85883614  1
  V  V59  1  0.87614910  0.00539980  0.37588900  1
  V  V60  1  0.87038743  0.61674115  0.76173308  1
  V  V61  1  0.24986753  0.12595254  0.87225972  1
  V  V62  1  0.87489789  0.37966913  0.48760489  1
  V  V63  1  0.37618016  -0.00101379  0.87293042  1
  V  V64  1  0.25367822  0.62395972  0.87519215  1
  V  V65  1  0.74280532  0.50003025  0.76100977  1
  V  V66  1  0.87641860  0.62277511  0.25548615  1
  V  V67  1  0.50135249  -0.00578031  0.50255741  1
  V  V68  1  0.25188952  0.75055458  0.50534078  1
  V  V69  1  0.12345775  0.50093650  0.62384403  1
  V  V70  1  0.87444667  0.00293058  0.87396272  1
  V  V71  1  0.49838470  0.50008138  0.47889491  1
  V  V72  1  0.38024538  0.74078102  0.62377852  1
  V  V73  1  0.74579506  0.73847420  -0.00483410  1
  V  V74  1  0.12020934  0.12567727  0.51261017  1
  V  V75  1  0.62467275  0.37725995  0.25347181  1
  V  V76  1  0.12568928  0.75012562  0.37621947  1
  V  V77  1  0.75668836  0.37124730  0.12710140  1
  V  V78  1  0.12328670  0.62473966  0.49956716  1
  V  V79  1  0.88026382  0.24816870  0.62724958  1
  V  V80  1  -0.00634968  0.49918386  0.48523719  1
  V  V81  1  0.74576018  0.37938645  0.62647230  1
  V  V82  1  0.00019232  0.74757803  0.75042267  1
  V  V83  1  0.10918889  0.25336919  0.36936958  1
  V  V84  1  0.86703576  0.75256645  0.62509074  1
  Zn  Zn85  1  0.00357561  0.23852495  0.74949244  1
  Zn  Zn86  1  0.25496583  0.25676845  -0.00684538  1
  Zn  Zn87  1  0.87905232  0.11821091  0.74282058  1
  Zn  Zn88  1  0.75201328  -0.00609870  0.74648726  1
  Zn  Zn89  1  0.62639401  0.73530380  0.87771597  1
  Zn  Zn90  1  0.38055840  0.75313956  0.13656897  1
  Zn  Zn91  1  0.87463499  0.74989957  0.12778800  1
  Zn  Zn92  1  0.37653722  0.12571276  0.25109992  1
  Zn  Zn93  1  0.86895475  0.87872957  0.50692671  1
  Zn  Zn94  1  0.38234411  0.62703811  0.25604745  1
  Zn  Zn95  1  0.62538367  0.00431129  0.12472282  1
  Zn  Zn96  1  -0.00896401  0.37554523  0.86816872  1
  Zn  Zn97  1  0.25285982  -0.00290964  0.73378053  1
  Zn  Zn98  1  0.12287966  0.49171100  0.12404237  1
  Zn  Zn99  1  0.12000483  0.24990424  0.87333724  1
  Zn  Zn100  1  0.38091768  0.61974377  0.74842779  1
  Zn  Zn101  1  0.11050674  0.37439401  0.24758242  1
  Zn  Zn102  1  0.24824078  0.12536719  0.37450579  1
  Zn  Zn103  1  0.50376376  0.86809345  0.87575138  1
  Zn  Zn104  1  0.24721009  0.37686497  0.11462521  1
  Zn  Zn105  1  0.50683571  0.12891612  0.63010642  1
  Zn  Zn106  1  -0.00044397  0.62500338  0.12532753  1
  Zn  Zn107  1  0.18656457  0.18824235  0.18800440  1
  Zn  Zn108  1  0.19600624  0.19080753  0.68845600  1
  Zn  Zn109  1  0.19362528  0.68759203  0.18839856  1
  Zn  Zn110  1  0.18902049  0.68910570  0.68699389  1
  Zn  Zn111  1  0.68978532  0.18912311  0.18841366  1
  Zn  Zn112  1  0.69447340  0.18360492  0.68768595  1
  Zn  Zn113  1  0.68824760  0.68537585  0.18191096  1
  Zn  Zn114  1  0.68621083  0.68038248  0.68626178  1
  Zn  Zn115  1  0.31137852  0.31277214  0.30926943  1
  Zn  Zn116  1  0.31247505  0.31361268  0.81267038  1
  Zn  Zn117  1  0.31523600  0.81106136  0.31578892  1
  Zn  Zn118  1  0.31546305  0.81188421  0.80952224  1
  Zn  Zn119  1  0.93044605  0.31375260  0.30592002  1
  Zn  Zn120  1  0.80648702  0.31328982  0.81021502  1
  Zn  Zn121  1  0.81160678  0.81377515  0.31643925  1
  Zn  Zn122  1  0.81462095  0.81106135  0.81373428  1
  Zn  Zn123  1  0.18453605  0.43730008  0.43385159  1
  Zn  Zn124  1  0.18561975  0.43461090  0.94022354  1
  Zn  Zn125  1  0.18042201  0.94261463  0.43518379  1
  Zn  Zn126  1  0.18920562  0.94080747  0.93506305  1
  Zn  Zn127  1  0.68822934  0.43987722  0.43569484  1
  Zn  Zn128  1  0.68167931  0.43452222  0.93763697  1
  Zn  Zn129  1  0.68398168  0.93596696  0.43423652  1
  Zn  Zn130  1  0.68760771  0.92853736  0.93353657  1
  Zn  Zn131  1  0.31759707  0.06722750  0.06240592  1
  Zn  Zn132  1  0.31376823  0.08020670  0.56031163  1
  Zn  Zn133  1  0.31518185  0.56026401  0.06430650  1
  Zn  Zn134  1  0.31559607  0.56198465  0.55892187  1
  Zn  Zn135  1  0.80735809  0.06287580  0.05883418  1
  Zn  Zn136  1  0.81040597  0.06519982  0.55832664  1
  Zn  Zn137  1  0.81736771  0.55986809  0.06905019  1
  Zn  Zn138  1  0.80933889  0.56314798  0.56270249  1
  Zn  Zn139  1  0.43711127  0.43919189  0.19309207  1
  Zn  Zn140  1  0.43560052  0.43878669  0.68658707  1
  Zn  Zn141  1  0.44013640  0.93794292  0.18750987  1
  Zn  Zn142  1  0.45027774  0.93651962  0.69470655  1
  Zn  Zn143  1  0.93854443  0.44008636  0.17861113  1
  Zn  Zn144  1  0.93247045  0.43602432  0.68274825  1
  Zn  Zn145  1  0.93488448  0.94861472  0.18823066  1
  Zn  Zn146  1  0.93921083  0.93367080  0.69171975  1
  Zn  Zn147  1  0.06254899  0.06946174  0.31822346  1
  Zn  Zn148  1  0.06170105  0.06294472  0.80796451  1
  Zn  Zn149  1  0.06878943  0.56203475  0.30813265  1
  Zn  Zn150  1  0.06258765  0.56077177  0.81514736  1
  Zn  Zn151  1  0.56248625  0.06233918  0.31126197  1
  Zn  Zn152  1  0.56413478  0.06052453  0.81210544  1
  Zn  Zn153  1  0.56755044  0.56952461  0.30771032  1
  Zn  Zn154  1  0.56593328  0.56378338  0.81958922  1
  Zn  Zn155  1  0.43748375  0.18458793  0.43758168  1
  Zn  Zn156  1  0.44299506  0.18704057  0.93714582  1
  Zn  Zn157  1  0.43550898  0.68658838  0.44344499  1
  Zn  Zn158  1  0.44372732  0.68063372  0.93942213  1
  Zn  Zn159  1  0.93493775  0.18476759  0.44503634  1
  Zn  Zn160  1  0.93515910  0.19320919  0.93654541  1
  Zn  Zn161  1  0.93255414  0.68764305  0.43647134  1
  Zn  Zn162  1  0.93617840  0.68888130  0.93865996  1
  Zn  Zn163  1  0.05630597  0.31158124  0.06753665  1
  Zn  Zn164  1  0.06046632  0.31652861  0.55945121  1
  Zn  Zn165  1  0.06434210  0.81403278  0.06415737  1
  Zn  Zn166  1  0.05808777  0.81168249  0.56256682  1
  Zn  Zn167  1  0.56603805  0.31405858  0.06076410  1
  Zn  Zn168  1  0.56225165  0.32000243  0.56079445  1
  Zn  Zn169  1  0.56643778  0.81521871  0.06239179  1
  Zn  Zn170  1  0.56049029  0.81228277  0.56520552  1
  O  O171  1  0.13352764  0.11650705  0.11427200  1
  O  O172  1  0.13223310  0.13146711  0.61105692  1
  O  O173  1  0.12485377  0.62951801  0.11113984  1
  O  O174  1  0.11588089  0.62181430  0.61993833  1
  O  O175  1  0.61165367  0.12458115  0.12955885  1
  O  O176  1  0.62523992  0.11851304  0.61880558  1
  O  O177  1  0.61579924  0.61370480  0.12791762  1
  O  O178  1  0.63055185  0.61276449  0.60890747  1
  O  O179  1  0.37355219  0.37168043  0.38623536  1
  O  O180  1  0.38903332  0.37865707  0.87111156  1
  O  O181  1  0.38425924  0.88742893  0.37168163  1
  O  O182  1  0.37681772  0.88332880  0.88106877  1
  O  O183  1  0.86857030  0.36767562  0.38916234  1
  O  O184  1  0.86875145  0.37568803  0.88504796  1
  O  O185  1  0.87875717  0.88654347  0.38045783  1
  O  O186  1  0.88014513  0.88370918  0.88298875  1
  O  O187  1  0.25721115  -0.00104568  0.36778720  1
  O  O188  1  0.26380592  0.00932787  0.87578130  1
  O  O189  1  0.24352585  0.50811640  0.36449469  1
  O  O190  1  0.25748838  0.50296668  0.87066209  1
  O  O191  1  0.75441340  0.00678307  0.37116845  1
  O  O192  1  0.75592485  0.00499276  0.87708153  1
  O  O193  1  0.74475215  0.51209286  0.36428994  1
  O  O194  1  0.74288989  0.49351982  0.85953535  1
  O  O195  1  0.24826058  0.49997708  0.13624629  1
  O  O196  1  0.24497106  0.49683227  0.62816030  1
  O  O197  1  0.24788720  0.99621065  0.13193130  1
  O  O198  1  0.26670355  0.98944350  0.61526781  1
  O  O199  1  0.74173905  0.49476371  0.13232158  1
  O  O200  1  0.74091375  0.49460321  0.62844351  1
  O  O201  1  0.74707024  0.99074404  0.13220901  1
  O  O202  1  0.73872700  1.00211125  0.62416702  1
  O  O203  1  -0.00290673  0.38510504  0.25408218  1
  O  O204  1  0.00826063  0.37721501  0.74647001  1
  O  O205  1  0.00263787  0.87157068  0.25651380  1
  O  O206  1  0.01054452  0.86868173  0.75814829  1
  O  O207  1  0.50876660  0.36309265  0.24640299  1
  O  O208  1  0.50030499  0.37567169  0.76018210  1
  O  O209  1  0.51305622  0.87887066  0.25617374  1
  O  O210  1  0.51264722  0.86127157  0.75424018  1
  O  O211  1  0.50056181  0.13709905  0.24452817  1
  O  O212  1  0.48724624  0.12135399  0.74939351  1
  O  O213  1  0.49892577  0.61618333  0.23019112  1
  O  O214  1  0.50015160  0.63424416  0.75010045  1
  O  O215  1  1.00094047  0.11502284  0.23752805  1
  O  O216  1  0.99199035  0.12483089  0.74994117  1
  O  O217  1  0.99413189  0.63384366  0.25175063  1
  O  O218  1  0.99012132  0.62480471  0.74386028  1
  O  O219  1  0.37769013  0.24458408  0.01474696  1
  O  O220  1  0.36915467  0.25658159  0.50366873  1
  O  O221  1  0.37251675  0.76217598  -0.00169111  1
  O  O222  1  0.36579464  0.75262887  0.50982337  1
  O  O223  1  0.85551150  0.25885664  -0.00751611  1
  O  O224  1  0.86758166  0.25691551  0.50870722  1
  O  O225  1  0.87201304  0.76216421  0.00418527  1
  O  O226  1  0.86521058  0.75041534  0.50825251  1
  O  O227  1  0.12889222  0.24510512  0.49476017  1
  O  O228  1  0.12421501  0.23722119  0.99741827  1
  O  O229  1  0.12975304  0.74468059  0.49707976  1
  O  O230  1  0.13086683  0.74577063  0.99331617  1
  O  O231  1  0.62611460  0.24793764  0.49289199  1
  O  O232  1  0.63672246  0.25571984  0.98779864  1
  O  O233  1  0.63060584  0.74011787  0.50685141  1
  O  O234  1  0.64252463  0.75513038  1.00079931  1
  O  O235  1  0.49424435  0.24659991  0.12992438  1
  O  O236  1  0.48913117  0.25123737  0.61792374  1
  O  O237  1  0.50234828  0.73447302  0.11510224  1
  O  O238  1  0.49046981  0.75061688  0.63285121  1
  O  O239  1  0.98972975  0.23675109  0.11952588  1
  O  O240  1  0.98262433  0.25700319  0.62362705  1
  O  O241  1  1.00053511  0.75178502  0.13950503  1
  O  O242  1  0.99411882  0.73779642  0.63074601  1
  O  O243  1  0.00590660  0.24806485  0.37851308  1
  O  O244  1  0.00157126  0.25717788  0.86916780  1
  O  O245  1  0.00359745  0.75573322  0.36717929  1
  O  O246  1  0.00535397  0.75525707  0.86918050  1
  O  O247  1  0.51114678  0.24456141  0.36839437  1
  O  O248  1  0.50988931  0.25926010  0.87671918  1
  O  O249  1  0.49406637  0.76359363  0.38262142  1
  O  O250  1  0.50111026  0.74806981  0.86607943  1
  O  O251  1  0.23916837  0.13618040  0.49585946  1
  O  O252  1  0.24462364  0.12729990  0.99076099  1
  O  O253  1  0.24344134  0.63011377  0.49473129  1
  O  O254  1  0.24459847  0.62905528  0.99448519  1
  O  O255  1  0.74141622  0.13135617  0.48946569  1
  O  O256  1  0.74935550  0.13143329  0.98707673  1
  O  O257  1  0.74315437  0.63036780  0.49132700  1
  O  O258  1  0.75995423  0.64148366  1.01135032  1
  O  O259  1  0.25160072  0.36964603  -0.00005223  1
  O  O260  1  0.25634883  0.37214678  0.50342371  1
  O  O261  1  0.25827883  0.87274800  0.00366311  1
  O  O262  1  0.24705804  0.86836137  0.49692327  1
  O  O263  1  0.75195549  0.37039683  0.00680312  1
  O  O264  1  0.75450272  0.37291754  0.50517614  1
  O  O265  1  0.75898654  0.87295280  0.00947402  1
  O  O266  1  0.74778717  0.86055224  0.49435942  1
  O  O267  1  0.13761913  0.49868821  0.24499261  1
  O  O268  1  0.13053690  0.49604486  0.74258263  1
  O  O269  1  0.13235065  0.99590335  0.24856614  1
  O  O270  1  0.13095171  0.98520100  0.75335030  1
  O  O271  1  0.63182820  0.49343161  0.24320228  1
  O  O272  1  0.63653033  0.50619831  0.73997330  1
  O  O273  1  0.63638264  0.99237051  0.25119868  1
  O  O274  1  0.62568429  0.98936264  0.74278324  1
  O  O275  1  0.36877817  0.00075489  0.25749683  1
  O  O276  1  0.37515186  0.00432401  0.75773905  1
  O  O277  1  0.36034496  0.50530012  0.24926668  1
  O  O278  1  0.36805111  0.49997126  0.75909985  1
  O  O279  1  0.85877474  -0.00668252  0.26190675  1
  O  O280  1  0.87094722  -0.00473719  0.76024540  1
  O  O281  1  0.86276533  0.50852669  0.24378266  1
  O  O282  1  0.86452990  0.51061792  0.74463576  1
  O  O283  1  0.12592467  0.35593197  0.37779839  1
  O  O284  1  0.12578249  0.37572130  0.85832754  1
  O  O285  1  0.11683614  0.87025202  0.36905935  1
  O  O286  1  0.12154949  0.86881930  0.87193955  1
  O  O287  1  0.63075645  0.36809890  0.36225301  1
  O  O288  1  0.61275537  0.36403340  0.87297364  1
  O  O289  1  0.61663375  0.87644017  0.36151439  1
  O  O290  1  0.62358674  0.86252584  0.86546509  1
  O  O291  1  0.38788859  0.13358506  0.12952739  1
  O  O292  1  0.38036669  0.13695570  0.63178153  1
  O  O293  1  0.38896935  0.62716004  0.12335307  1
  O  O294  1  0.36982415  0.63637039  0.62838299  1
  O  O295  1  0.87662538  0.11306118  0.12949810  1
  O  O296  1  0.86392681  0.14406391  0.62295323  1
  O  O297  1  0.87774326  0.63055853  0.14099230  1
  O  O298  1  0.88080533  0.63170399  0.63093301  1
  O  O299  1  0.26704807  0.24649801  0.12685964  1
  O  O300  1  0.25988306  0.25661718  0.61176038  1
  O  O301  1  0.25114939  0.75883314  0.11585327  1
  O  O302  1  0.25514662  0.74911382  0.61297332  1
  O  O303  1  0.74160428  0.25926611  0.11574757  1
  O  O304  1  0.75232478  0.25980430  0.61862565  1
  O  O305  1  0.75228150  0.76235285  0.11930273  1
  O  O306  1  0.75731609  0.74110692  0.61474631  1
  O  O307  1  0.24796252  0.24923370  0.38584626  1
  O  O308  1  0.24802485  0.23673040  0.87237613  1
  O  O309  1  0.24450830  0.74547779  0.38795244  1
  O  O310  1  0.24785673  0.74396082  0.88038607  1
  O  O311  1  0.73555647  0.24122977  0.38124168  1
  O  O312  1  0.73794646  0.24361899  0.87658056  1
  O  O313  1  0.75313142  0.73856524  0.38347810  1
  O  O314  1  0.75611994  0.75279176  0.89308064  1
  O  O315  1  0.00773637  0.11462510  -0.00862178  1
  O  O316  1  0.01154292  0.11959636  0.50260151  1
  O  O317  1  0.00670765  0.62085569  -0.00050901  1
  O  O318  1  0.00136625  0.62191028  0.50747182  1
  O  O319  1  0.49676648  0.11416645  0.00778518  1
  O  O320  1  0.50544376  0.11192088  0.50129223  1
  O  O321  1  0.49798218  0.60759457  0.01210226  1
  O  O322  1  0.50600094  0.61146755  0.49618648  1
  O  O323  1  0.49392466  0.39017273  0.49822396  1
  O  O324  1  0.50266256  0.38530790  0.99241039  1
  O  O325  1  0.50821179  0.88703784  0.49050711  1
  O  O326  1  0.49279851  0.88111280  0.99909283  1
  O  O327  1  0.98902355  0.38805722  0.50416244  1
  O  O328  1  0.98676180  0.38109444  0.99879844  1
  O  O329  1  0.99999524  0.88360990  0.49291758  1
  O  O330  1  0.99417315  0.88004779  0.99559224  1
  O  O331  1  0.50347254  0.50133398  0.38053975  1
  O  O332  1  0.49498771  0.48761645  0.87804942  1
  O  O333  1  0.49343181  0.99510459  0.38249226  1
  O  O334  1  0.49101137  0.99862949  0.88178961  1
  O  O335  1  1.00258371  0.51092083  0.38716084  1
  O  O336  1  1.00356823  0.49559281  0.88782204  1
  O  O337  1  0.99108982  0.99889596  0.38233006  1
  O  O338  1  0.99330042  0.99372578  0.88409622  1
  O  O339  1  0.00931456  -0.00885077  0.11219799  1
  O  O340  1  -0.00515524  -0.00520752  0.61334684  1
  O  O341  1  0.00372488  0.50668773  0.10924796  1
  O  O342  1  0.00237162  0.51096449  0.62002216  1
  O  O343  1  0.50103685  0.00845830  0.11728011  1
  O  O344  1  0.50990919  0.00149182  0.61721184  1
  O  O345  1  0.50611077  0.50017190  0.11882227  1
  O  O346  1  0.51287351  0.49489098  0.62321276  1
  O  O347  1  0.24766959  0.38735157  0.24962211  1
  O  O348  1  0.24434921  0.38197194  0.74224267  1
  O  O349  1  0.24506842  0.88528594  0.24699597  1
  O  O350  1  0.23681094  0.87503652  0.75268550  1
  O  O351  1  0.74262755  0.38448072  0.24194917  1
  O  O352  1  0.75478944  0.39140856  0.74028820  1
  O  O353  1  0.74107460  0.87921085  0.24617169  1
  O  O354  1  0.73822081  0.87230230  0.75298447  1
  O  O355  1  0.25115674  0.11210235  0.25262088  1
  O  O356  1  0.26104731  0.11805943  0.75424833  1
  O  O357  1  0.24812199  0.61534242  0.25945280  1
  O  O358  1  0.24918275  0.61793407  0.75877283  1
  O  O359  1  0.74232647  0.11696650  0.26233637  1
  O  O360  1  0.75686932  0.11943626  0.76340185  1
  O  O361  1  0.75464208  0.62133603  0.25593428  1
  O  O362  1  0.76215354  0.61334463  0.74523310  1
  O  O363  1  0.37245314  0.11060792  0.37532879  1
  O  O364  1  0.37142755  0.12073959  0.86883715  1
  O  O365  1  0.36068318  0.62630663  0.37947363  1
  O  O366  1  0.36908367  0.61388268  0.87400417  1
  O  O367  1  0.86439481  0.11428746  0.38332482  1
  O  O368  1  0.86824432  0.11122504  0.87927316  1
  O  O369  1  0.86638123  0.62766578  0.36311196  1
  O  O370  1  0.87859572  0.62657027  0.85978420  1
  O  O371  1  0.12871781  0.37242615  0.12923058  1
  O  O372  1  0.13103746  0.38096899  0.63046107  1
  O  O373  1  0.13273338  0.88365238  0.13050693  1
  O  O374  1  0.12067019  0.86865164  0.64063784  1
  O  O375  1  0.63153249  0.38117612  0.13529688  1
  O  O376  1  0.63723066  0.38388999  0.61919750  1
  O  O377  1  0.63081159  0.87925956  0.13649220  1
  O  O378  1  0.62148587  0.88273011  0.63426070  1
  O  O379  1  0.12822086  0.24901397  0.26675851  1
  O  O380  1  0.12484106  0.25970586  0.74696735  1
  O  O381  1  0.11986074  0.75633848  0.25550501  1
  O  O382  1  0.11982111  0.75500040  0.75659185  1
  O  O383  1  0.61973929  0.25761239  0.25651317  1
  O  O384  1  0.62875365  0.24828483  0.76086124  1
  O  O385  1  0.62962391  0.76302651  0.24720868  1
  O  O386  1  0.61956855  0.75201246  0.74553688  1
  O  O387  1  0.38335038  0.24748951  0.24468812  1
  O  O388  1  0.36874340  0.24304555  0.73821430  1
  O  O389  1  0.36702021  0.74108935  0.24841727  1
  O  O390  1  0.38356117  0.74709948  0.74280741  1
  O  O391  1  0.88013993  0.23204376  0.24689453  1
  O  O392  1  0.87099859  0.25354631  0.73419838  1
  O  O393  1  0.88338782  0.74638159  0.25180115  1
  O  O394  1  0.87841210  0.73882163  0.74461406  1
  O  O395  1  0.39025276  0.49484983  0.50170818  1
  O  O396  1  0.38146700  0.49970414  0.98821626  1
  O  O397  1  0.37866911  0.99258616  0.49884659  1
  O  O398  1  0.38159963  0.99060885  0.99409022  1
  O  O399  1  0.88138480  0.49299000  0.50383878  1
  O  O400  1  0.88071683  0.49223275  1.00188296  1
  O  O401  1  0.88129900  0.99857601  0.49535338  1
  O  O402  1  0.88159833  0.99087740  0.99604565  1
  O  O403  1  0.11903727  0.00845876  0.00374027  1
  O  O404  1  0.11719139  0.01659324  0.49617996  1
  O  O405  1  0.11828848  0.50985262  -0.00004114  1
  O  O406  1  0.11678075  0.50494385  0.50555924  1
  O  O407  1  0.61273098  -0.00886865  -0.00010716  1
  O  O408  1  0.61944269  0.00326695  0.50578856  1
  O  O409  1  0.61879470  0.49309949  0.01359173  1
  O  O410  1  0.61293918  0.50353837  0.50256169  1
  O  O411  1  0.37580892  0.35966209  0.13087462  1
  O  O412  1  0.36999612  0.37123772  0.61671680  1
  O  O413  1  0.37132608  0.87452563  0.11707883  1
  O  O414  1  0.38011380  0.86604614  0.62823039  1
  O  O415  1  0.85963428  0.38031345  0.11425767  1
  O  O416  1  0.86275534  0.36781360  0.61618658  1
  O  O417  1  0.86730390  0.87671297  0.11938066  1
  O  O418  1  0.88079769  0.85707308  0.62628743  1
  O  O419  1  0.12687916  0.13922173  0.38576769  1
  O  O420  1  0.13574184  0.12127434  0.88085016  1
  O  O421  1  0.13272549  0.63308866  0.38151768  1
  O  O422  1  0.13160049  0.63123569  0.88357813  1
  O  O423  1  0.62957888  0.13097403  0.38072231  1
  O  O424  1  0.62915602  0.13611098  0.87140327  1
  O  O425  1  0.63217037  0.62423977  0.38627231  1
  O  O426  1  0.63530910  0.62452470  0.87665479  1
