# generated using pymatgen
data_V85Zn86O256
_symmetry_space_group_name_H-M   'P 1'
_cell_length_a   16.94551850
_cell_length_b   16.95833292
_cell_length_c   16.95040490
_cell_angle_alpha   89.90859319
_cell_angle_beta   89.98738389
_cell_angle_gamma   90.09082033
_symmetry_Int_Tables_number   1
_chemical_formula_structural   V85Zn86O256
_chemical_formula_sum   'V85 Zn86 O256'
_cell_volume   4870.98718353
_cell_formula_units_Z   1
loop_
 _symmetry_equiv_pos_site_id
 _symmetry_equiv_pos_as_xyz
  1  'x, y, z'
loop_
 _atom_site_type_symbol
 _atom_site_label
 _atom_site_symmetry_multiplicity
 _atom_site_fract_x
 _atom_site_fract_y
 _atom_site_fract_z
 _atom_site_occupancy
  V  V0  1  0.74883391  0.37674371  0.12737160  1
  V  V1  1  0.87608448  0.12783200  0.75128077  1
  V  V2  1  0.24032972  -0.00687352  0.25257602  1
  V  V3  1  0.50423015  0.75410779  0.24619538  1
  V  V4  1  0.37805176  0.37756986  0.51275741  1
  V  V5  1  0.62477159  0.00928755  0.62215659  1
  V  V6  1  0.12628630  0.25129125  0.89175096  1
  V  V7  1  0.37177444  0.87423896  -0.00024150  1
  V  V8  1  0.49396670  0.74504856  0.74742019  1
  V  V9  1  0.49296283  0.24428474  0.74648082  1
  V  V10  1  0.25911205  0.25106677  0.51208457  1
  V  V11  1  0.87315117  0.50590692  0.87649548  1
  V  V12  1  0.87545567  0.88055357  0.50293626  1
  V  V13  1  0.16312502  0.29443603  0.35598505  1
  V  V14  1  0.62603789  0.62279684  -0.00577651  1
  V  V15  1  0.62345531  0.50861476  0.61285289  1
  V  V16  1  0.74408570  0.50387552  0.75718966  1
  V  V17  1  0.49835997  0.62791594  0.61137360  1
  V  V18  1  0.75553560  0.51383420  0.24940424  1
  V  V19  1  0.75374356  0.12533843  0.87611787  1
  V  V20  1  0.00274204  0.12585704  0.62194141  1
  V  V21  1  0.00256008  0.25689412  0.74921832  1
  V  V22  1  0.62727537  0.50133326  0.12472579  1
  V  V23  1  0.00289618  0.62449519  0.62687972  1
  V  V24  1  0.00858436  0.75203998  0.75153968  1
  V  V25  1  0.62592681  0.87562408  0.74827854  1
  V  V26  1  0.00221956  0.49740328  0.00251269  1
  V  V27  1  0.24399057  0.87125633  0.12925211  1
  V  V28  1  0.48220951  0.47884391  0.01636939  1
  V  V29  1  0.49939604  0.87476388  0.87216230  1
  V  V30  1  0.14293095  0.37468476  0.74505291  1
  V  V31  1  -0.00646977  0.37277207  0.36801132  1
  V  V32  1  0.62463797  0.24333596  0.37851902  1
  V  V33  1  -0.00021861  0.12403831  0.12602756  1
  V  V34  1  0.87634499  0.51392581  0.37226219  1
  V  V35  1  0.24521244  0.87669293  0.63198646  1
  V  V36  1  0.00767631  0.87475251  0.87559993  1
  V  V37  1  -0.01045815  0.62659346  0.12674204  1
  V  V38  1  0.36930737  0.49487057  0.37100900  1
  V  V39  1  0.25621939  0.74925594  0.50118808  1
  V  V40  1  0.75246058  0.74817046  0.00852111  1
  V  V41  1  0.37326804  0.49972945  0.86801289  1
  V  V42  1  0.81691261  -0.05446921  0.31646995  1
  V  V43  1  0.00862884  0.87736468  0.36722090  1
  V  V44  1  0.87414493  0.37696675  0.50023911  1
  V  V45  1  0.74784801  0.37812027  0.62668214  1
  V  V46  1  0.85816820  0.12795912  0.25578539  1
  V  V47  1  0.25010136  0.62460330  0.86402860  1
  V  V48  1  0.37993377  0.00001803  0.36504057  1
  V  V49  1  0.14071269  0.49691789  0.62858041  1
  V  V50  1  0.87711250  0.24880485  0.12717829  1
  V  V51  1  0.74633540  0.24976654  0.00032577  1
  V  V52  1  0.50755456  0.87389002  0.37093836  1
  V  V53  1  0.13590395  0.49430181  0.14113119  1
  V  V54  1  0.74190026  0.74455560  0.50510105  1
  V  V55  1  -0.00714411  0.74459230  0.24583833  1
  V  V56  1  0.00111749  0.49987179  0.50305040  1
  V  V57  1  0.87040749  0.62791943  0.75328152  1
  V  V58  1  0.50124523  0.00040858  -0.00014263  1
  V  V59  1  0.87241920  0.37759945  -0.00021464  1
  V  V60  1  0.75289772  -0.00064960  0.74901890  1
  V  V61  1  0.36726835  0.00147325  0.86337915  1
  V  V62  1  0.00002710  0.00201847  0.49219593  1
  V  V63  1  0.36943091  0.61676230  0.24495678  1
  V  V64  1  0.63292236  0.74763029  0.87313974  1
  V  V65  1  0.37749024  0.87243550  0.50355052  1
  V  V66  1  0.25458558  0.11938140  0.37244729  1
  V  V67  1  0.87472383  0.87125839  0.00767412  1
  V  V68  1  0.87816952  -0.00130610  0.87781942  1
  V  V69  1  0.62523854  0.37789580  0.25265037  1
  V  V70  1  0.62569126  0.11868606  0.00026100  1
  V  V71  1  0.12581265  0.00184229  0.11740704  1
  V  V72  1  0.87444357  0.25234375  0.62608747  1
  V  V73  1  0.24331336  0.12720622  0.87975264  1
  V  V74  1  0.50282426  0.38262841  0.38078121  1
  V  V75  1  0.12820564  0.62577671  0.49981124  1
  V  V76  1  0.12656920  0.12816410  0.49166395  1
  V  V77  1  0.49842771  0.62758058  0.12045531  1
  V  V78  1  0.87850567  0.75461826  0.62551763  1
  V  V79  1  0.63174481  -0.00859959  0.13924924  1
  V  V80  1  0.50269556  0.37303897  0.87415509  1
  V  V81  1  0.50199071  0.00981671  0.49877708  1
  V  V82  1  0.13000016  0.75087393  0.36610618  1
  V  V83  1  0.74437669  0.24040780  0.50318561  1
  V  V84  1  0.12651967  0.62601061  -0.00054655  1
  Zn  Zn85  1  -0.00102302  0.24711259  0.25857450  1
  Zn  Zn86  1  0.62347663  0.37339706  0.74722546  1
  Zn  Zn87  1  0.13543647  0.00324119  0.63250879  1
  Zn  Zn88  1  0.34291700  0.22832074  0.12534536  1
  Zn  Zn89  1  0.75156951  0.87270851  0.13685178  1
  Zn  Zn90  1  0.37228697  0.62264171  0.74182960  1
  Zn  Zn91  1  0.25042194  0.74863344  -0.00128140  1
  Zn  Zn92  1  0.12947716  0.75375805  0.87263110  1
  Zn  Zn93  1  0.00170017  0.00478123  0.00004454  1
  Zn  Zn94  1  0.74660866  0.11559469  0.37998510  1
  Zn  Zn95  1  0.62430408  0.24987841  0.87358593  1
  Zn  Zn96  1  0.75314177  0.87715320  0.62703449  1
  Zn  Zn97  1  0.25062418  0.62236864  0.36910344  1
  Zn  Zn98  1  0.35844826  0.12692267  0.73722325  1
  Zn  Zn99  1  0.73311384  0.61728941  0.38842782  1
  Zn  Zn100  1  0.48659142  0.24344900  0.25080456  1
  Zn  Zn101  1  0.62094134  0.74278830  0.37436447  1
  Zn  Zn102  1  0.34663463  0.35642432  -0.00017354  1
  Zn  Zn103  1  0.48664235  0.11928871  0.14244242  1
  Zn  Zn104  1  0.00123585  0.37784160  0.87298195  1
  Zn  Zn105  1  0.49445303  0.13249036  0.61868554  1
  Zn  Zn106  1  0.37209503  0.75000861  0.12530242  1
  Zn  Zn107  1  0.18109276  0.18153304  0.19762445  1
  Zn  Zn108  1  0.18671159  0.18416638  0.69059209  1
  Zn  Zn109  1  0.18449028  0.68384368  0.18386447  1
  Zn  Zn110  1  0.19029486  0.69090286  0.68261377  1
  Zn  Zn111  1  0.65103599  0.20716624  0.16727230  1
  Zn  Zn112  1  0.68288963  0.18870845  0.69078162  1
  Zn  Zn113  1  0.68454653  0.68829044  0.18615227  1
  Zn  Zn114  1  0.68691749  0.68708208  0.68567723  1
  Zn  Zn115  1  0.32283913  0.31017023  0.30698050  1
  Zn  Zn116  1  0.31478329  0.30898806  0.81966776  1
  Zn  Zn117  1  0.31970776  0.81044174  0.31151166  1
  Zn  Zn118  1  0.31269803  0.80984678  0.81307494  1
  Zn  Zn119  1  0.80676827  0.31544225  0.31506912  1
  Zn  Zn120  1  0.81201052  0.31738444  0.81373716  1
  Zn  Zn121  1  0.81572034  0.78209623  0.31764583  1
  Zn  Zn122  1  0.81557841  0.81398411  0.81594576  1
  Zn  Zn123  1  0.19381800  0.44206682  0.44354539  1
  Zn  Zn124  1  0.18447301  0.44366878  0.92865461  1
  Zn  Zn125  1  0.18654602  0.93688372  0.44310676  1
  Zn  Zn126  1  0.19000025  0.94140569  0.93753917  1
  Zn  Zn127  1  0.69157913  0.43624611  0.43697237  1
  Zn  Zn128  1  0.68133063  0.43670858  0.93677309  1
  Zn  Zn129  1  0.68142728  0.92790675  0.44640114  1
  Zn  Zn130  1  0.69010060  0.93391676  0.93747189  1
  Zn  Zn131  1  0.31020118  0.05990287  0.05861145  1
  Zn  Zn132  1  0.31722582  0.05902823  0.56123621  1
  Zn  Zn133  1  0.30762284  0.55942271  0.05988441  1
  Zn  Zn134  1  0.31890088  0.56165354  0.55732161  1
  Zn  Zn135  1  0.81115114  0.05901083  0.06701519  1
  Zn  Zn136  1  0.81754550  0.05984024  0.56342532  1
  Zn  Zn137  1  0.81070995  0.56779098  0.06076669  1
  Zn  Zn138  1  0.81428366  0.56318633  0.56826460  1
  Zn  Zn139  1  0.41945753  0.41270474  0.19552190  1
  Zn  Zn140  1  0.44368055  0.44071489  0.68827097  1
  Zn  Zn141  1  0.43633937  0.93950559  0.18498449  1
  Zn  Zn142  1  0.43736720  0.93681595  0.68267379  1
  Zn  Zn143  1  0.94021687  0.43942622  0.18644971  1
  Zn  Zn144  1  0.93815136  0.44077163  0.68733486  1
  Zn  Zn145  1  0.94456003  0.93224040  0.18504935  1
  Zn  Zn146  1  0.96693634  0.95093957  0.69670612  1
  Zn  Zn147  1  0.06058831  0.06362381  0.30700019  1
  Zn  Zn148  1  0.06752466  0.06700975  0.81095106  1
  Zn  Zn149  1  0.06220069  0.56417490  0.31428402  1
  Zn  Zn150  1  0.06368038  0.56101137  0.81168627  1
  Zn  Zn151  1  0.56350639  0.06580692  0.31208952  1
  Zn  Zn152  1  0.56192978  0.06274562  0.81327555  1
  Zn  Zn153  1  0.55883951  0.56402675  0.31210402  1
  Zn  Zn154  1  0.55809776  0.56103425  0.81406864  1
  Zn  Zn155  1  0.43698448  0.19012359  0.43278119  1
  Zn  Zn156  1  0.43138150  0.18476548  0.93785074  1
  Zn  Zn157  1  0.43713060  0.68581380  0.43114428  1
  Zn  Zn158  1  0.43764125  0.68634806  0.93471069  1
  Zn  Zn159  1  0.92966885  0.18735454  0.43662476  1
  Zn  Zn160  1  0.94152646  0.19078341  0.94044092  1
  Zn  Zn161  1  0.94046548  0.69133426  0.43996507  1
  Zn  Zn162  1  0.93788351  0.68750555  0.93874213  1
  Zn  Zn163  1  0.17501479  0.32050878  0.07097032  1
  Zn  Zn164  1  0.06911487  0.31176494  0.55646245  1
  Zn  Zn165  1  0.06432672  0.81302127  0.06174410  1
  Zn  Zn166  1  0.06574481  0.81274269  0.55800381  1
  Zn  Zn167  1  0.49950176  0.30295172  0.06438204  1
  Zn  Zn168  1  0.56249687  0.31627227  0.56518540  1
  Zn  Zn169  1  0.56408958  0.81444902  0.06167581  1
  Zn  Zn170  1  0.55998877  0.81747539  0.56669893  1
  O  O171  1  0.11152176  0.11427994  0.13548535  1
  O  O172  1  0.11945328  0.12704034  0.60971518  1
  O  O173  1  0.11771984  0.61588674  0.11586220  1
  O  O174  1  0.12085426  0.61806329  0.62135330  1
  O  O175  1  0.63188087  0.10657192  0.10902537  1
  O  O176  1  0.61927758  0.11244188  0.63023772  1
  O  O177  1  0.61838880  0.62318696  0.11356399  1
  O  O178  1  0.61806183  0.61562748  0.62604706  1
  O  O179  1  0.38517053  0.37901012  0.37999163  1
  O  O180  1  0.38285110  0.38178819  0.88294460  1
  O  O181  1  0.38408681  0.88148939  0.38302782  1
  O  O182  1  0.37829771  0.88149135  0.87978939  1
  O  O183  1  0.87695609  0.38554596  0.38425257  1
  O  O184  1  0.87548375  0.38833834  0.88152207  1
  O  O185  1  0.87742764  0.87867627  0.37470516  1
  O  O186  1  0.88257858  0.88284243  0.88379815  1
  O  O187  1  0.25652827  -0.00027303  0.37087031  1
  O  O188  1  0.25644829  0.00696334  0.87179061  1
  O  O189  1  0.26424242  0.50389486  0.37824087  1
  O  O190  1  0.26026727  0.51187386  0.87496381  1
  O  O191  1  0.74812681  -0.00517025  0.37477615  1
  O  O192  1  0.76217832  0.00297614  0.87021953  1
  O  O193  1  0.75910398  0.50285805  0.36854564  1
  O  O194  1  0.75563050  0.49755962  0.86475611  1
  O  O195  1  0.23611659  0.49935929  0.12366100  1
  O  O196  1  0.23958376  0.50517774  0.62119659  1
  O  O197  1  0.24263570  0.99382093  0.13363873  1
  O  O198  1  0.24972775  0.98280693  0.61832415  1
  O  O199  1  0.74844780  0.49773549  0.13143870  1
  O  O200  1  0.74197952  0.49979044  0.63523175  1
  O  O201  1  0.73696386  0.99110337  0.12305827  1
  O  O202  1  0.74407588  0.99982043  0.63090416  1
  O  O203  1  -0.00557887  0.37380368  0.26489913  1
  O  O204  1  -0.00233907  0.36456216  0.74971471  1
  O  O205  1  -0.00090978  0.86304313  0.25955008  1
  O  O206  1  -0.01391191  0.86002097  0.76395135  1
  O  O207  1  0.51807159  0.37876628  0.25934907  1
  O  O208  1  0.49925432  0.36676544  0.75952533  1
  O  O209  1  0.49063516  0.86670299  0.25792137  1
  O  O210  1  0.50710343  0.86729257  0.75189392  1
  O  O211  1  0.49223117  0.12986739  0.25800972  1
  O  O212  1  0.49951072  0.13874035  0.75385754  1
  O  O213  1  0.49200384  0.62921830  0.23533520  1
  O  O214  1  0.50110340  0.63257689  0.74264328  1
  O  O215  1  0.98565679  0.12563787  0.24352182  1
  O  O216  1  0.99325157  0.14244011  0.74511133  1
  O  O217  1  1.00437477  0.63632577  0.24310187  1
  O  O218  1  0.99038264  0.63147203  0.74750701  1
  O  O219  1  0.39866057  0.25568475  0.01968273  1
  O  O220  1  0.36662198  0.25897816  0.49855194  1
  O  O221  1  0.37747939  0.76431687  -0.00078796  1
  O  O222  1  0.36654675  0.75797448  0.49053824  1
  O  O223  1  0.86543002  0.25432697  0.00806589  1
  O  O224  1  0.86656831  0.25860982  0.50774897  1
  O  O225  1  0.86315456  0.75714648  -0.00832938  1
  O  O226  1  0.87160364  0.76187334  0.50364499  1
  O  O227  1  0.14131306  0.24709493  0.48371106  1
  O  O228  1  0.11195456  0.25827353  0.98874219  1
  O  O229  1  0.13169789  0.74368994  0.48940366  1
  O  O230  1  0.12253670  0.73609990  0.99685790  1
  O  O231  1  0.63466291  0.25875352  0.49392383  1
  O  O232  1  0.63870771  0.23660872  0.99651663  1
  O  O233  1  0.64085964  0.75780979  0.50734350  1
  O  O234  1  0.63026557  0.74457674  0.99225910  1
  O  O235  1  0.53697859  0.23193602  0.14050773  1
  O  O236  1  0.50631411  0.25067244  0.64182612  1
  O  O237  1  0.49686624  0.74485290  0.12706483  1
  O  O238  1  0.50968512  0.73643027  0.63315588  1
  O  O239  1  0.98139602  0.24314793  0.13482432  1
  O  O240  1  0.99691026  0.24606434  0.62763562  1
  O  O241  1  1.01116123  0.74451135  0.13955738  1
  O  O242  1  0.99712275  0.74692142  0.63109259  1
  O  O243  1  -0.01275900  0.26450713  0.37695630  1
  O  O244  1  0.00679171  0.25290362  0.86627927  1
  O  O245  1  0.00688222  0.75524158  0.36565309  1
  O  O246  1  0.00182953  0.75671462  0.86850537  1
  O  O247  1  0.50815074  0.26200667  0.37287294  1
  O  O248  1  0.50100554  0.25695690  0.86864459  1
  O  O249  1  0.49768552  0.75806899  0.36482061  1
  O  O250  1  0.51065078  0.75549546  0.86840339  1
  O  O251  1  0.24557715  0.13190439  0.49323554  1
  O  O252  1  0.24717797  0.11575689  0.98067383  1
  O  O253  1  0.24775576  0.63334478  0.49715345  1
  O  O254  1  0.24103872  0.62674406  0.99024690  1
  O  O255  1  0.75667192  0.13719502  0.50056666  1
  O  O256  1  0.74827118  0.12954416  0.99537830  1
  O  O257  1  0.75763625  0.64076727  0.50592316  1
  O  O258  1  0.73882185  0.63440199  1.00161295  1
  O  O259  1  0.23953515  0.37577399  -0.00387798  1
  O  O260  1  0.26277548  0.36019257  0.49442472  1
  O  O261  1  0.25721677  0.87404421  0.00628020  1
  O  O262  1  0.25925348  0.86745849  0.50220976  1
  O  O263  1  0.75207440  0.36771354  0.00462822  1
  O  O264  1  0.76049632  0.37074155  0.50703859  1
  O  O265  1  0.75875422  0.86506996  -0.00159422  1
  O  O266  1  0.75970739  0.86475455  0.50370034  1
  O  O267  1  0.12540296  0.50679506  0.24066892  1
  O  O268  1  0.11968723  0.48359954  0.74271692  1
  O  O269  1  0.13572189  0.99716542  0.24436948  1
  O  O270  1  0.07205092  0.99936535  0.72496355  1
  O  O271  1  0.63470703  0.49723828  0.24496913  1
  O  O272  1  0.63373791  0.50275097  0.74481519  1
  O  O273  1  0.62387292  1.00028051  0.23756533  1
  O  O274  1  0.63115580  0.99447804  0.74613707  1
  O  O275  1  0.36518118  -0.00713656  0.26193977  1
  O  O276  1  0.38360070  -0.00051724  0.76223253  1
  O  O277  1  0.37919118  0.50267296  0.25625517  1
  O  O278  1  0.38368987  0.50204728  0.76403611  1
  O  O279  1  0.87321428  0.00381245  0.25254591  1
  O  O280  1  0.87456719  0.00810067  0.75791476  1
  O  O281  1  0.86831294  0.49719676  0.26020010  1
  O  O282  1  0.86932646  0.50806936  0.75688533  1
  O  O283  1  0.10507121  0.37366250  0.39986646  1
  O  O284  1  0.12152621  0.36950877  0.85874284  1
  O  O285  1  0.11668737  0.86557872  0.38123009  1
  O  O286  1  0.11177308  0.87621966  0.88032157  1
  O  O287  1  0.62059320  0.37252045  0.37312023  1
  O  O288  1  0.61860109  0.37367279  0.86515242  1
  O  O289  1  0.61095349  0.86749533  0.37807133  1
  O  O290  1  0.61984971  0.86852464  0.86734163  1
  O  O291  1  0.37511550  0.12026830  0.12300083  1
  O  O292  1  0.38201710  0.11838345  0.62733708  1
  O  O293  1  0.38215720  0.62408525  0.12648836  1
  O  O294  1  0.39319051  0.61690184  0.62590598  1
  O  O295  1  0.87382967  0.12928101  0.13746882  1
  O  O296  1  0.88089104  0.13401972  0.63014176  1
  O  O297  1  0.88998869  0.62606685  0.11901500  1
  O  O298  1  0.88390712  0.63185006  0.63396202  1
  O  O299  1  0.23560579  0.25637389  0.13910789  1
  O  O300  1  0.24541742  0.24585361  0.60945928  1
  O  O301  1  0.25047002  0.75725045  0.12080913  1
  O  O302  1  0.24784836  0.75883960  0.60906927  1
  O  O303  1  0.75278065  0.25529622  0.11787006  1
  O  O304  1  0.75175579  0.25679515  0.62110708  1
  O  O305  1  0.74442048  0.75562530  0.11352226  1
  O  O306  1  0.75889315  0.75340826  0.61942612  1
  O  O307  1  0.25588709  0.23650694  0.38068780  1
  O  O308  1  0.24084910  0.23876075  0.87647038  1
  O  O309  1  0.24462810  0.74967955  0.38120199  1
  O  O310  1  0.24747256  0.74258584  0.87861200  1
  O  O311  1  0.74336365  0.25216156  0.38895255  1
  O  O312  1  0.75230219  0.24487853  0.88341300  1
  O  O313  1  0.74481852  0.74287836  0.39182070  1
  O  O314  1  0.73692586  0.75376926  0.88081881  1
  O  O315  1  -0.01216953  0.12336181  0.02054070  1
  O  O316  1  0.00667416  0.12159504  0.49613099  1
  O  O317  1  0.00494546  0.61830585  0.00562550  1
  O  O318  1  0.00753913  0.62105717  0.50617221  1
  O  O319  1  0.50986733  0.11044439  -0.00559431  1
  O  O320  1  0.49873880  0.11309625  0.49591536  1
  O  O321  1  0.50474445  0.62182331  0.00889592  1
  O  O322  1  0.49898773  0.63266659  0.51270729  1
  O  O323  1  0.48698234  0.36858400  0.49461310  1
  O  O324  1  0.52662403  0.38027332  0.98239298  1
  O  O325  1  0.49367422  0.87991362  0.49331896  1
  O  O326  1  0.49479195  0.88353552  0.99404973  1
  O  O327  1  0.98620721  0.37929778  0.50045725  1
  O  O328  1  0.98844103  0.39228476  0.99724098  1
  O  O329  1  0.99427666  0.88037747  0.48813336  1
  O  O330  1  0.99164079  0.87448706  0.99320252  1
  O  O331  1  0.49228852  0.48756610  0.37341102  1
  O  O332  1  0.49411282  0.49067094  0.88516478  1
  O  O333  1  0.49668691  0.99279875  0.37948344  1
  O  O334  1  0.49442249  0.99281112  0.88112949  1
  O  O335  1  0.99337223  0.49524368  0.38304873  1
  O  O336  1  0.99116898  0.50085087  0.88223244  1
  O  O337  1  1.00454177  0.99082867  0.38071936  1
  O  O338  1  0.99101531  0.99508483  0.87900293  1
  O  O339  1  0.00857242  0.00509772  0.12609242  1
  O  O340  1  -0.01700926  0.01254385  0.59927241  1
  O  O341  1  0.00248945  0.51020126  0.11868404  1
  O  O342  1  0.00558259  0.50665790  0.61954409  1
  O  O343  1  0.51108734  -0.00031670  0.11640990  1
  O  O344  1  0.50824352  -0.00165363  0.61424736  1
  O  O345  1  0.51167359  0.51286703  0.12117222  1
  O  O346  1  0.51556271  0.51195733  0.62721391  1
  O  O347  1  0.21834676  0.35935914  0.30414925  1
  O  O348  1  0.24103279  0.36925584  0.75043283  1
  O  O349  1  0.25578826  0.87990976  0.24134522  1
  O  O350  1  0.25569402  0.86514652  0.73038824  1
  O  O351  1  0.74462047  0.38817811  0.24785346  1
  O  O352  1  0.75062990  0.38633678  0.74265155  1
  O  O353  1  0.76762683  0.87607675  0.25970764  1
  O  O354  1  0.74574562  0.88220628  0.75030663  1
  O  O355  1  0.24606314  0.11170315  0.26621121  1
  O  O356  1  0.24573369  0.12392896  0.76461506  1
  O  O357  1  0.26623398  0.63094281  0.24789408  1
  O  O358  1  0.25252967  0.63237480  0.75898467  1
  O  O359  1  0.75916986  0.12341494  0.25178931  1
  O  O360  1  0.75687850  0.12057529  0.75635822  1
  O  O361  1  0.74891615  0.61637434  0.25016500  1
  O  O362  1  0.76244994  0.61938433  0.74563833  1
  O  O363  1  0.36567681  0.11188445  0.38345908  1
  O  O364  1  0.36303956  0.11764519  0.87194633  1
  O  O365  1  0.37889216  0.61253700  0.36327279  1
  O  O366  1  0.36779474  0.62030305  0.87008405  1
  O  O367  1  0.86785790  0.12530904  0.36159099  1
  O  O368  1  0.87346882  0.11842548  0.87271898  1
  O  O369  1  0.87441290  0.61549966  0.38150745  1
  O  O370  1  0.87740022  0.61448217  0.86816257  1
  O  O371  1  0.10995352  0.39781580  0.12593505  1
  O  O372  1  0.12288169  0.38138813  0.63575495  1
  O  O373  1  0.13682410  0.88198711  0.12173275  1
  O  O374  1  0.14095944  0.87558972  0.61703114  1
  O  O375  1  0.63457081  0.38395370  0.13689462  1
  O  O376  1  0.62955297  0.38998127  0.62807202  1
  O  O377  1  0.62794246  0.88729109  0.12330514  1
  O  O378  1  0.62765667  0.88540323  0.63501780  1
  O  O379  1  0.11708180  0.24154417  0.28079299  1
  O  O380  1  0.11795004  0.26179507  0.74979355  1
  O  O381  1  0.11984714  0.74373218  0.26266480  1
  O  O382  1  0.11175639  0.74540009  0.75032461  1
  O  O383  1  0.63962520  0.26629645  0.26608441  1
  O  O384  1  0.61444958  0.25240092  0.75551884  1
  O  O385  1  0.60876634  0.74783996  0.24771400  1
  O  O386  1  0.62204323  0.75503519  0.75631716  1
  O  O387  1  0.38728002  0.29749875  0.21721932  1
  O  O388  1  0.38906985  0.24811936  0.75555336  1
  O  O389  1  0.38622624  0.73895079  0.24636412  1
  O  O390  1  0.39145528  0.74826400  0.75349634  1
  O  O391  1  0.86743483  0.24096864  0.24509504  1
  O  O392  1  0.87987010  0.24848077  0.74499602  1
  O  O393  1  0.89315745  0.74476620  0.24786854  1
  O  O394  1  0.87927810  0.74225764  0.74722298  1
  O  O395  1  0.37265146  0.48371448  0.49079123  1
  O  O396  1  0.38527312  0.51295351  0.98647130  1
  O  O397  1  0.38377952  0.99034983  0.48832983  1
  O  O398  1  0.38250150  0.98902732  0.99046281  1
  O  O399  1  0.87856036  0.49433084  0.49619870  1
  O  O400  1  0.87725678  0.50020921  0.99246515  1
  O  O401  1  0.87702957  0.98753185  0.49341099  1
  O  O402  1  0.87493822  0.99202557  0.99252196  1
  O  O403  1  0.12253129  -0.00147323  0.01354793  1
  O  O404  1  0.11516163  0.00821485  0.50462844  1
  O  O405  1  0.11451290  0.51108512  -0.00084795  1
  O  O406  1  0.12094465  0.50538253  0.50886305  1
  O  O407  1  0.61806648  0.00156467  -0.00096958  1
  O  O408  1  0.61592761  -0.00486904  0.51011114  1
  O  O409  1  0.62034352  0.50836777  0.00598298  1
  O  O410  1  0.63571789  0.50060041  0.51481181  1
  O  O411  1  0.42270617  0.40299924  0.08162173  1
  O  O412  1  0.38016950  0.38266152  0.61151886  1
  O  O413  1  0.36410567  0.87683660  0.11569507  1
  O  O414  1  0.36850923  0.87737874  0.60980398  1
  O  O415  1  0.86931202  0.36769072  0.12047730  1
  O  O416  1  0.86848610  0.37290055  0.61945870  1
  O  O417  1  0.87352708  0.87880952  0.11169692  1
  O  O418  1  0.87947362  0.87127409  0.61603997  1
  O  O419  1  0.13412277  0.11343552  0.38610817  1
  O  O420  1  0.13057898  0.13655235  0.87326853  1
  O  O421  1  0.12861718  0.63156404  0.38246879  1
  O  O422  1  0.13284287  0.62449012  0.87955406  1
  O  O423  1  0.62974082  0.13939330  0.37468648  1
  O  O424  1  0.63562169  0.12130694  0.88534501  1
  O  O425  1  0.62122071  0.62884664  0.37569680  1
  O  O426  1  0.61756068  0.63219023  0.88652507  1
