# generated using pymatgen
data_V85Zn86O256
_symmetry_space_group_name_H-M   'P 1'
_cell_length_a   16.94993369
_cell_length_b   16.96875552
_cell_length_c   16.96219438
_cell_angle_alpha   90.01751510
_cell_angle_beta   90.04223057
_cell_angle_gamma   90.01384854
_symmetry_Int_Tables_number   1
_chemical_formula_structural   V85Zn86O256
_chemical_formula_sum   'V85 Zn86 O256'
_cell_volume   4878.65245430
_cell_formula_units_Z   1
loop_
 _symmetry_equiv_pos_site_id
 _symmetry_equiv_pos_as_xyz
  1  'x, y, z'
loop_
 _atom_site_type_symbol
 _atom_site_label
 _atom_site_symmetry_multiplicity
 _atom_site_fract_x
 _atom_site_fract_y
 _atom_site_fract_z
 _atom_site_occupancy
  V  V0  1  0.12482838  0.37311713  0.24890459  1
  V  V1  1  0.11153943  0.25382019  0.86685074  1
  V  V2  1  0.75148212  0.74704646  0.50287691  1
  V  V3  1  0.37561117  0.62590246  0.75018256  1
  V  V4  1  0.75153401  0.24642488  0.51021725  1
  V  V5  1  0.12819849  -0.00233695  0.13508873  1
  V  V6  1  -0.00569051  0.13725177  0.62986128  1
  V  V7  1  0.75219588  0.87673313  0.12853670  1
  V  V8  1  0.95216106  0.44002038  0.94443699  1
  V  V9  1  0.87745407  0.74373609  0.12697417  1
  V  V10  1  0.76454938  0.50749839  0.74912415  1
  V  V11  1  0.24636381  0.63218220  0.87716841  1
  V  V12  1  0.62365466  0.00312185  0.62198848  1
  V  V13  1  0.50883791  0.49880007  0.00227057  1
  V  V14  1  0.11570620  0.63155040  -0.00393393  1
  V  V15  1  0.37643740  0.75024561  0.62256214  1
  V  V16  1  0.12414159  -0.00169705  0.62910883  1
  V  V17  1  0.85877866  0.25140724  0.11597054  1
  V  V18  1  0.24841970  0.24979168  -0.00599304  1
  V  V19  1  0.12494281  0.51205699  0.62387535  1
  V  V20  1  0.37184543  0.12331405  0.24992603  1
  V  V21  1  0.23739546  0.74813308  0.49602588  1
  V  V22  1  0.62481482  0.25073723  0.38086133  1
  V  V23  1  0.74808632  0.12155330  0.87777761  1
  V  V24  1  0.12531977  0.12319992  0.50156362  1
  V  V25  1  0.75956019  0.62932238  0.35986061  1
  V  V26  1  0.24888571  0.37486979  0.12367454  1
  V  V27  1  0.81897589  0.45453816  0.30902445  1
  V  V28  1  0.00110971  0.24833758  0.24981677  1
  V  V29  1  0.12456627  0.86125988  0.75468352  1
  V  V30  1  0.12524484  0.24914071  0.37499397  1
  V  V31  1  0.25030294  0.11984875  0.37169894  1
  V  V32  1  0.25842679  0.87488545  0.12840693  1
  V  V33  1  0.87745540  -0.00135915  0.87291946  1
  V  V34  1  0.67553848  0.30058560  0.93179409  1
  V  V35  1  0.62348500  0.62590128  0.49728772  1
  V  V36  1  0.37610067  -0.01451857  0.87616498  1
  V  V37  1  0.26013854  0.75354369  0.00659960  1
  V  V38  1  0.61883845  0.87657547  0.25502278  1
  V  V39  1  0.37576055  0.50149972  0.37549694  1
  V  V40  1  0.61970991  0.87325653  0.76024026  1
  V  V41  1  -0.00200996  -0.00185963  0.50178616  1
  V  V42  1  -0.02068891  0.74506454  0.75338851  1
  V  V43  1  0.87391522  0.87208454  0.50319402  1
  V  V44  1  0.24996638  0.87385767  0.62307776  1
  V  V45  1  0.12036880  0.85950384  0.25274495  1
  V  V46  1  0.74807289  0.87016107  0.62645011  1
  V  V47  1  0.49063846  0.62540682  0.12599503  1
  V  V48  1  0.49814690  0.36799976  0.87313809  1
  V  V49  1  0.87487086  0.11918822  0.25169491  1
  V  V50  1  0.25369170  0.12533271  0.87083446  1
  V  V51  1  0.49422360  -0.01151196  -0.00216955  1
  V  V52  1  0.50261527  -0.00011978  0.49492134  1
  V  V53  1  0.50108357  0.12452711  0.61934208  1
  V  V54  1  0.37277028  0.24905557  0.12456838  1
  V  V55  1  0.75062224  0.37760753  0.62472137  1
  V  V56  1  0.61688953  0.74932290  0.37320143  1
  V  V57  1  0.62260966  0.50098424  0.62607544  1
  V  V58  1  0.49881066  0.12494821  0.12161065  1
  V  V59  1  0.74431885  0.12175429  0.38305678  1
  V  V60  1  0.74778637  0.00008871  0.25228648  1
  V  V61  1  0.64219574  0.50169775  0.12937536  1
  V  V62  1  0.00104837  0.12350919  0.12445216  1
  V  V63  1  0.37434014  0.37600963  -0.00071960  1
  V  V64  1  0.73725810  0.75614104  -0.00637391  1
  V  V65  1  0.00111306  0.50513986  0.49536905  1
  V  V66  1  0.87447163  0.37637012  0.50160844  1
  V  V67  1  0.50237778  0.75127960  0.76460649  1
  V  V68  1  0.49070931  0.75297047  0.24725635  1
  V  V69  1  0.37459631  0.50030204  0.87599684  1
  V  V70  1  0.11485596  0.49992237  0.11673775  1
  V  V71  1  0.50165311  0.25342729  0.25207040  1
  V  V72  1  0.51268915  0.24727296  0.74824225  1
  V  V73  1  0.24980568  0.50137180  0.24802571  1
  V  V74  1  0.24696881  0.49947726  0.75232437  1
  V  V75  1  0.23554771  0.62754285  0.37816718  1
  V  V76  1  0.25185163  0.25116110  0.50143711  1
  V  V77  1  0.00033131  0.37779793  0.37289872  1
  V  V78  1  -0.01884257  0.62871425  0.62485754  1
  V  V79  1  0.00316174  -0.00339479  -0.00194700  1
  V  V80  1  0.38038379  0.87147503  0.49485624  1
  V  V81  1  0.62322030  0.12310791  -0.00549106  1
  V  V82  1  0.24840641  0.37554159  0.62785209  1
  V  V83  1  0.49915635  0.62696057  0.62450149  1
  V  V84  1  0.37585075  -0.00350148  0.37088689  1
  Zn  Zn85  1  0.63809557  0.37977449  0.24851954  1
  Zn  Zn86  1  0.50201615  0.37868938  0.37586429  1
  Zn  Zn87  1  0.10929247  0.37546129  0.75132318  1
  Zn  Zn88  1  0.00741224  0.86686776  0.37914052  1
  Zn  Zn89  1  0.36850713  0.63307944  0.24775589  1
  Zn  Zn90  1  0.74639056  0.62841118  0.86675662  1
  Zn  Zn91  1  0.49814273  0.49798053  0.49874197  1
  Zn  Zn92  1  0.25175438  -0.00209341  0.75005992  1
  Zn  Zn93  1  0.87570552  -0.00318805  0.37745079  1
  Zn  Zn94  1  0.74973514  0.00061325  0.74900517  1
  Zn  Zn95  1  -0.00353742  0.62449791  0.12485787  1
  Zn  Zn96  1  0.37820297  0.12447107  0.74900197  1
  Zn  Zn97  1  0.97190971  0.71790352  0.27968798  1
  Zn  Zn98  1  0.37683091  0.25000163  0.62665583  1
  Zn  Zn99  1  0.12657227  0.12254896  -0.00227214  1
  Zn  Zn100  1  0.37666299  0.37659815  0.50018918  1
  Zn  Zn101  1  0.00391657  0.86483494  0.87859681  1
  Zn  Zn102  1  0.62620855  0.37902952  0.75270255  1
  Zn  Zn103  1  0.61482505  0.63868131  -0.01008849  1
  Zn  Zn104  1  0.62386129  0.00076977  0.12559492  1
  Zn  Zn105  1  0.88103587  0.12855519  0.75073083  1
  Zn  Zn106  1  0.87605856  0.87502944  0.00087568  1
  Zn  Zn107  1  0.18781412  0.18414331  0.18656161  1
  Zn  Zn108  1  0.18670759  0.18536541  0.68869459  1
  Zn  Zn109  1  0.18430975  0.68563973  0.18360931  1
  Zn  Zn110  1  0.18855275  0.68834790  0.68615957  1
  Zn  Zn111  1  0.68320503  0.18464904  0.19007478  1
  Zn  Zn112  1  0.73738353  0.23247540  0.73546995  1
  Zn  Zn113  1  0.68161058  0.68769807  0.17943982  1
  Zn  Zn114  1  0.68535418  0.68820906  0.69005774  1
  Zn  Zn115  1  0.31340637  0.31289716  0.31360907  1
  Zn  Zn116  1  0.31671844  0.30966874  0.80612543  1
  Zn  Zn117  1  0.30521757  0.81477869  0.31233502  1
  Zn  Zn118  1  0.30919520  0.80864270  0.81156871  1
  Zn  Zn119  1  0.81518073  0.29244109  0.31382027  1
  Zn  Zn120  1  0.92215895  0.30760230  0.79831030  1
  Zn  Zn121  1  0.81120215  0.81263399  0.31524921  1
  Zn  Zn122  1  0.81043374  0.81904201  0.81431733  1
  Zn  Zn123  1  0.18590841  0.43953111  0.43884256  1
  Zn  Zn124  1  0.18071353  0.43838062  0.93534512  1
  Zn  Zn125  1  0.18945881  0.93576721  0.43698088  1
  Zn  Zn126  1  0.18774311  0.93593372  0.93871452  1
  Zn  Zn127  1  0.68246156  0.43772118  0.43799446  1
  Zn  Zn128  1  0.79360679  0.43555368  0.93207598  1
  Zn  Zn129  1  0.68566911  0.93427887  0.43739053  1
  Zn  Zn130  1  0.68593085  0.94068875  0.94109431  1
  Zn  Zn131  1  0.31097648  0.05940303  0.05926669  1
  Zn  Zn132  1  0.31496614  0.06088174  0.56197813  1
  Zn  Zn133  1  0.31118889  0.56323394  0.06145798  1
  Zn  Zn134  1  0.31048053  0.56374038  0.55970493  1
  Zn  Zn135  1  0.81296338  0.06265482  0.06085949  1
  Zn  Zn136  1  0.81274005  0.06000898  0.56584814  1
  Zn  Zn137  1  0.82109330  0.58252749  0.02813026  1
  Zn  Zn138  1  0.81128196  0.55884008  0.55430861  1
  Zn  Zn139  1  0.43661262  0.43833280  0.18792252  1
  Zn  Zn140  1  0.43596063  0.43724131  0.68716606  1
  Zn  Zn141  1  0.43797220  0.93946590  0.18876539  1
  Zn  Zn142  1  0.43753694  0.93691582  0.68877532  1
  Zn  Zn143  1  0.90387267  0.45629382  0.13172032  1
  Zn  Zn144  1  0.93872137  0.43866384  0.68203671  1
  Zn  Zn145  1  0.93934368  0.93398547  0.18792706  1
  Zn  Zn146  1  0.93649994  0.93658210  0.68834223  1
  Zn  Zn147  1  0.06227852  0.05686496  0.31504129  1
  Zn  Zn148  1  0.06547272  0.06376129  0.81120564  1
  Zn  Zn149  1  0.05977039  0.55889227  0.30736510  1
  Zn  Zn150  1  0.06020073  0.56609293  0.81052497  1
  Zn  Zn151  1  0.56080836  0.06515990  0.31397447  1
  Zn  Zn152  1  0.56100022  0.05837623  0.81076692  1
  Zn  Zn153  1  0.56385283  0.56487081  0.30719390  1
  Zn  Zn154  1  0.56803125  0.56268080  0.81543668  1
  Zn  Zn155  1  0.43705793  0.18614204  0.43945578  1
  Zn  Zn156  1  0.43669897  0.18556718  0.93542488  1
  Zn  Zn157  1  0.43341822  0.68359291  0.43403659  1
  Zn  Zn158  1  0.43427218  0.68726069  0.94014243  1
  Zn  Zn159  1  0.93511595  0.18675943  0.44013649  1
  Zn  Zn160  1  0.93471165  0.18311344  0.94165158  1
  Zn  Zn161  1  0.93595694  0.68808952  0.44700308  1
  Zn  Zn162  1  0.92407140  0.68513350  0.93329387  1
  Zn  Zn163  1  0.06502130  0.30584556  0.06284210  1
  Zn  Zn164  1  0.06585851  0.31848627  0.56333204  1
  Zn  Zn165  1  0.06477564  0.81110240  0.06210325  1
  Zn  Zn166  1  0.05782322  0.80993748  0.56800268  1
  Zn  Zn167  1  0.56318425  0.31964828  0.07118084  1
  Zn  Zn168  1  0.56286372  0.31344542  0.55962076  1
  Zn  Zn169  1  0.56011663  0.81539444  0.07223593  1
  Zn  Zn170  1  0.56260270  0.81350185  0.56498530  1
  O  O171  1  0.11934084  0.11604571  0.12276446  1
  O  O172  1  0.11919790  0.11599236  0.61989895  1
  O  O173  1  0.12681601  0.61632775  0.11149762  1
  O  O174  1  0.12376760  0.61418064  0.62645898  1
  O  O175  1  0.61495824  0.12450190  0.11590220  1
  O  O176  1  0.61191309  0.10598117  0.62441211  1
  O  O177  1  0.60970041  0.61433775  0.12308034  1
  O  O178  1  0.61852371  0.62058790  0.61823135  1
  O  O179  1  0.37242979  0.38928475  0.37551382  1
  O  O180  1  0.38055947  0.38014606  0.87861564  1
  O  O181  1  0.36590721  0.88555562  0.38213953  1
  O  O182  1  0.36639377  0.88717305  0.87419817  1
  O  O183  1  0.87593792  0.38517440  0.37072378  1
  O  O184  1  0.88833926  0.38158198  0.88654143  1
  O  O185  1  0.87102606  0.87753736  0.39153512  1
  O  O186  1  0.88017244  0.88775833  0.87691833  1
  O  O187  1  0.25888869  0.01332264  0.38365491  1
  O  O188  1  0.25811039  0.00681199  0.87624141  1
  O  O189  1  0.25255237  0.50827203  0.36869538  1
  O  O190  1  0.25378698  0.50938483  0.87181270  1
  O  O191  1  0.74961064  0.00710441  0.37275368  1
  O  O192  1  0.75974954  0.00358308  0.87615703  1
  O  O193  1  0.75342296  0.51076732  0.37062721  1
  O  O194  1  0.74332442  0.49231151  0.84896921  1
  O  O195  1  0.24476382  0.49432179  0.13148889  1
  O  O196  1  0.24307287  0.49586135  0.62898538  1
  O  O197  1  0.24026303  0.98536287  0.11453577  1
  O  O198  1  0.24179842  0.99298447  0.62457264  1
  O  O199  1  0.73808729  0.51138764  0.11313450  1
  O  O200  1  0.74223960  0.49702364  0.62701719  1
  O  O201  1  0.74863521  0.99369800  0.13253425  1
  O  O202  1  0.73972358  0.99153833  0.62474678  1
  O  O203  1  0.01055467  0.36438476  0.25813551  1
  O  O204  1  -0.00287908  0.36853844  0.74276473  1
  O  O205  1  0.01501730  0.87877677  0.25361275  1
  O  O206  1  0.00547548  0.85864563  0.74633025  1
  O  O207  1  0.49611069  0.36036585  0.25135493  1
  O  O208  1  0.50204097  0.37063379  0.75768512  1
  O  O209  1  0.50866448  0.86824889  0.24404806  1
  O  O210  1  0.51147740  0.86622955  0.74453279  1
  O  O211  1  0.49529629  0.13524500  0.24230538  1
  O  O212  1  0.50231560  0.13143139  0.74151056  1
  O  O213  1  0.49541919  0.63450949  0.24316909  1
  O  O214  1  0.49505920  0.63187211  0.74428066  1
  O  O215  1  0.99328696  0.12438214  0.24590953  1
  O  O216  1  1.00278745  0.12369356  0.73358172  1
  O  O217  1  1.00846563  0.62424923  0.23702428  1
  O  O218  1  0.99979679  0.63621235  0.73952673  1
  O  O219  1  0.36819870  0.25536574  0.00464764  1
  O  O220  1  0.36209946  0.25014686  0.50242343  1
  O  O221  1  0.35918647  0.74892438  0.00130525  1
  O  O222  1  0.36938030  0.75653503  0.50152178  1
  O  O223  1  0.87456246  0.24196500  0.01675151  1
  O  O224  1  0.86413695  0.26540104  0.48864813  1
  O  O225  1  0.86012731  0.75787527  0.01202292  1
  O  O226  1  0.85851623  0.75644480  0.50316311  1
  O  O227  1  0.13544625  0.24569917  0.49471381  1
  O  O228  1  0.13331814  0.24604563  0.98736947  1
  O  O229  1  0.13883933  0.75939197  0.50466699  1
  O  O230  1  0.13483908  0.73611925  1.00440005  1
  O  O231  1  0.63424680  0.25377397  0.48730781  1
  O  O232  1  0.61656642  0.24397343  0.99818674  1
  O  O233  1  0.63093068  0.74810767  0.49176717  1
  O  O234  1  0.63298128  0.76334042  1.00162671  1
  O  O235  1  0.49502946  0.24213003  0.13114527  1
  O  O236  1  0.50237981  0.24003791  0.62788584  1
  O  O237  1  0.50206321  0.74028478  0.13554398  1
  O  O238  1  0.49404992  0.74311868  0.62975253  1
  O  O239  1  1.00393610  0.23391750  0.13092568  1
  O  O240  1  1.00688658  0.23460662  0.61495947  1
  O  O241  1  0.98092273  0.75459318  0.11981697  1
  O  O242  1  0.99971500  0.73499006  0.63287053  1
  O  O243  1  0.00488706  0.25372979  0.37100201  1
  O  O244  1  0.00951125  0.24188235  0.87467521  1
  O  O245  1  -0.00555838  0.75472399  0.38067077  1
  O  O246  1  -0.00955469  0.74639244  0.85939222  1
  O  O247  1  0.50779859  0.24714293  0.36882953  1
  O  O248  1  0.49416271  0.26089529  0.86763922  1
  O  O249  1  0.51162568  0.74300632  0.36927358  1
  O  O250  1  0.49228145  0.74816582  0.86361104  1
  O  O251  1  0.24456260  0.13141902  0.49585163  1
  O  O252  1  0.25002686  0.13639001  0.99323112  1
  O  O253  1  0.25143938  0.63263738  0.48682776  1
  O  O254  1  0.24562038  0.63566104  0.99575342  1
  O  O255  1  0.75742337  0.13379911  0.49459378  1
  O  O256  1  0.73780609  0.11774484  0.99095445  1
  O  O257  1  0.74324037  0.63202343  0.49338400  1
  O  O258  1  0.73027697  0.65376762  1.01814185  1
  O  O259  1  0.25315580  0.36552272  0.00182329  1
  O  O260  1  0.24938193  0.36671671  0.50695973  1
  O  O261  1  0.24001850  0.86062864  0.01060335  1
  O  O262  1  0.25941682  0.86846569  0.50361684  1
  O  O263  1  0.73197158  0.35833094  -0.01100148  1
  O  O264  1  0.75592307  0.37255630  0.50379556  1
  O  O265  1  0.74854321  0.87269925  0.01160026  1
  O  O266  1  0.75257543  0.86745887  0.50658003  1
  O  O267  1  0.13612049  0.49236109  0.24089321  1
  O  O268  1  0.13011806  0.49848837  0.74320492  1
  O  O269  1  0.12448102  0.99878746  0.23741146  1
  O  O270  1  0.12435561  0.99169720  0.73859804  1
  O  O271  1  0.62732916  0.50081903  0.23539550  1
  O  O272  1  0.62492155  0.49857357  0.73445526  1
  O  O273  1  0.62703867  0.99357954  0.25049840  1
  O  O274  1  0.62172344  0.98776295  0.73975876  1
  O  O275  1  0.38029011  0.00666422  0.26338725  1
  O  O276  1  0.37419011  0.00047471  0.76281730  1
  O  O277  1  0.36049489  0.49912405  0.25415046  1
  O  O278  1  0.36845207  0.50724194  0.75574373  1
  O  O279  1  0.87176241  0.00727663  0.25334636  1
  O  O280  1  0.87344604  0.00576146  0.75809318  1
  O  O281  1  0.87233189  0.49780242  0.23805499  1
  O  O282  1  0.86269088  0.50171679  0.74195456  1
  O  O283  1  0.12326138  0.36690234  0.36991826  1
  O  O284  1  0.12925824  0.35734607  0.87193868  1
  O  O285  1  0.13037940  0.88090852  0.35604681  1
  O  O286  1  0.12176474  0.88244443  0.85789727  1
  O  O287  1  0.62376240  0.36693194  0.36779190  1
  O  O288  1  0.61592642  0.36702107  0.87504455  1
  O  O289  1  0.62941741  0.86454271  0.36349379  1
  O  O290  1  0.62724771  0.88404439  0.85822557  1
  O  O291  1  0.37871132  0.12957194  0.12800593  1
  O  O292  1  0.38793690  0.12347602  0.62656520  1
  O  O293  1  0.38455062  0.62081435  0.12949444  1
  O  O294  1  0.37866874  0.62982740  0.63001395  1
  O  O295  1  0.88255330  0.12758649  0.13302840  1
  O  O296  1  0.89137569  0.12157901  0.62368253  1
  O  O297  1  0.87464500  0.64024868  0.11710584  1
  O  O298  1  0.88317050  0.62267008  0.62143140  1
  O  O299  1  0.25194910  0.25400706  0.11517682  1
  O  O300  1  0.24873692  0.25707224  0.61870386  1
  O  O301  1  0.24856959  0.75957098  0.11613379  1
  O  O302  1  0.25743471  0.75316812  0.61636544  1
  O  O303  1  0.75937922  0.24239903  0.13006263  1
  O  O304  1  0.74161510  0.26011994  0.61379072  1
  O  O305  1  0.75383059  0.76324723  0.12351281  1
  O  O306  1  0.73944817  0.76116052  0.61644736  1
  O  O307  1  0.24734696  0.24066953  0.38259564  1
  O  O308  1  0.25030096  0.24368488  0.87998713  1
  O  O309  1  0.25162668  0.73550178  0.37996110  1
  O  O310  1  0.25219899  0.73904737  0.88547346  1
  O  O311  1  0.74291375  0.24122989  0.38521680  1
  O  O312  1  0.73473992  0.23936479  0.87511894  1
  O  O313  1  0.74018460  0.74277076  0.38120031  1
  O  O314  1  0.75333980  0.75561974  0.89135534  1
  O  O315  1  0.00368371  0.11655585  0.00992012  1
  O  O316  1  0.00568917  0.11691912  0.50592125  1
  O  O317  1  0.01368766  0.63469119  0.00179684  1
  O  O318  1  -0.00272647  0.61759899  0.51405285  1
  O  O319  1  0.50314351  0.12044903  0.00623040  1
  O  O320  1  0.49641487  0.11367647  0.50695634  1
  O  O321  1  0.49741805  0.61753101  0.00666719  1
  O  O322  1  0.50559339  0.62485148  0.50623203  1
  O  O323  1  0.49499095  0.37818183  0.49471387  1
  O  O324  1  0.49359304  0.37975281  0.99413648  1
  O  O325  1  0.48646251  0.87936610  0.50287797  1
  O  O326  1  0.49915571  0.89025183  1.01219248  1
  O  O327  1  0.99196935  0.37867237  0.49363447  1
  O  O328  1  1.01275054  0.38045614  0.99662248  1
  O  O329  1  0.99073342  0.88050396  0.50495103  1
  O  O330  1  1.00092859  0.88209691  0.99638228  1
  O  O331  1  0.48980476  0.50130574  0.37193437  1
  O  O332  1  0.49600187  0.48823397  0.88162945  1
  O  O333  1  0.49037678  1.00624530  0.38399148  1
  O  O334  1  0.48442468  1.00275734  0.88224509  1
  O  O335  1  1.00776168  0.49163472  0.38441202  1
  O  O336  1  1.00161227  0.50385611  0.88561980  1
  O  O337  1  1.00055398  0.99518680  0.39096200  1
  O  O338  1  0.99561693  1.00319905  0.88284265  1
  O  O339  1  0.00567098  0.00700085  0.11972175  1
  O  O340  1  0.00684957  0.00398742  0.61702064  1
  O  O341  1  0.01258370  0.49863169  0.12300535  1
  O  O342  1  0.00580735  0.51314426  0.62044998  1
  O  O343  1  0.49674678  0.01359196  0.11991764  1
  O  O344  1  0.50228411  0.00293755  0.61593848  1
  O  O345  1  0.49690219  0.50608849  0.11753390  1
  O  O346  1  0.50508427  0.50860883  0.62391913  1
  O  O347  1  0.24447958  0.38002463  0.24479582  1
  O  O348  1  0.24914609  0.38232316  0.74308433  1
  O  O349  1  0.23823798  0.87019371  0.23556103  1
  O  O350  1  0.23966234  0.87321301  0.74238925  1
  O  O351  1  0.76022476  0.38344052  0.26384264  1
  O  O352  1  0.74606650  0.38409339  0.73061395  1
  O  O353  1  0.74348671  0.88236726  0.24729349  1
  O  O354  1  0.73877461  0.87602313  0.74223938  1
  O  O355  1  0.25712506  0.12978220  0.26112881  1
  O  O356  1  0.25379966  0.12013253  0.75659421  1
  O  O357  1  0.24792088  0.61867886  0.25758085  1
  O  O358  1  0.25360171  0.62239625  0.75940821  1
  O  O359  1  0.75595105  0.11879379  0.25852894  1
  O  O360  1  0.73905500  0.11765410  0.77008415  1
  O  O361  1  0.74527666  0.63454322  0.26180026  1
  O  O362  1  0.74926749  0.61245902  0.74586735  1
  O  O363  1  0.36749427  0.11931056  0.37151768  1
  O  O364  1  0.36359722  0.12029060  0.87267708  1
  O  O365  1  0.36465869  0.61368680  0.36946229  1
  O  O366  1  0.36663033  0.61887093  0.87073790  1
  O  O367  1  0.86496705  0.12251015  0.36869144  1
  O  O368  1  0.86585845  0.11399190  0.87846547  1
  O  O369  1  0.85875827  0.63230403  0.37573887  1
  O  O370  1  0.84732066  0.60686583  0.91691884  1
  O  O371  1  0.13166348  0.37948322  0.12790920  1
  O  O372  1  0.13589790  0.38405931  0.62800263  1
  O  O373  1  0.12879704  0.87979250  0.13508721  1
  O  O374  1  0.12780222  0.88074574  0.63346545  1
  O  O375  1  0.62372635  0.39370676  0.13127642  1
  O  O376  1  0.63201560  0.38664066  0.61955896  1
  O  O377  1  0.63426003  0.87865173  0.13959355  1
  O  O378  1  0.63032687  0.88299360  0.63001358  1
  O  O379  1  0.12119720  0.25162151  0.25574661  1
  O  O380  1  0.13002107  0.25045592  0.76487061  1
  O  O381  1  0.12182205  0.75992061  0.24604332  1
  O  O382  1  0.11969314  0.75894271  0.74604681  1
  O  O383  1  0.61833629  0.25283770  0.25917565  1
  O  O384  1  0.61698000  0.25733311  0.74515725  1
  O  O385  1  0.61594227  0.75681489  0.25582891  1
  O  O386  1  0.61647344  0.76363800  0.74637311  1
  O  O387  1  0.38073461  0.24376246  0.24494736  1
  O  O388  1  0.39232948  0.24728334  0.74470163  1
  O  O389  1  0.38732406  0.75315566  0.25956383  1
  O  O390  1  0.38053352  0.74507198  0.74346304  1
  O  O391  1  0.88252939  0.23189661  0.24561690  1
  O  O392  1  0.85067358  0.23723237  0.75393551  1
  O  O393  1  0.87098707  0.75697034  0.23358239  1
  O  O394  1  0.88115817  0.75412670  0.74693646  1
  O  O395  1  0.37490784  0.50014976  0.48909298  1
  O  O396  1  0.38018670  0.49349321  0.99417470  1
  O  O397  1  0.38226317  0.99216467  0.49208712  1
  O  O398  1  0.38019999  1.00409150  0.98579013  1
  O  O399  1  0.88773632  0.48992735  0.49902375  1
  O  O400  1  0.87637829  0.47686558  1.01640919  1
  O  O401  1  0.88289206  0.99277168  0.50036068  1
  O  O402  1  0.88789324  0.99874078  0.99548571  1
  O  O403  1  0.11582993  0.00053248  0.00711287  1
  O  O404  1  0.11942402  0.00048064  0.51032160  1
  O  O405  1  0.13556851  0.51473986  0.00784952  1
  O  O406  1  0.11103857  0.49221251  0.51059590  1
  O  O407  1  0.61313085  0.00723838  0.00418514  1
  O  O408  1  0.60997945  -0.01119388  0.50497122  1
  O  O409  1  0.61001738  0.50062193  0.01110333  1
  O  O410  1  0.62348687  0.50824098  0.50864776  1
  O  O411  1  0.36819106  0.36820354  0.11976175  1
  O  O412  1  0.36073126  0.37533149  0.62275297  1
  O  O413  1  0.35709858  0.88180611  0.13048291  1
  O  O414  1  0.36905528  0.87035835  0.61743957  1
  O  O415  1  0.88170678  0.34672008  0.13757011  1
  O  O416  1  0.86482487  0.37955569  0.61064986  1
  O  O417  1  0.86509337  0.87268655  0.12420313  1
  O  O418  1  0.86197746  0.88187028  0.61474649  1
  O  O419  1  0.13178306  0.12739479  0.38094805  1
  O  O420  1  0.13663631  0.13353263  0.87477206  1
  O  O421  1  0.13791233  0.61622286  0.37538792  1
  O  O422  1  0.13288693  0.62066846  0.88746916  1
  O  O423  1  0.63737122  0.13289576  0.37094787  1
  O  O424  1  0.62605738  0.11672553  0.88814560  1
  O  O425  1  0.63227715  0.63107999  0.37934560  1
  O  O426  1  0.63224235  0.62517862  0.87892316  1
