# generated using pymatgen
data_V85Zn86O256
_symmetry_space_group_name_H-M   'P 1'
_cell_length_a   16.92421234
_cell_length_b   16.93544470
_cell_length_c   16.92802744
_cell_angle_alpha   89.94773473
_cell_angle_beta   89.98651590
_cell_angle_gamma   90.00439667
_symmetry_Int_Tables_number   1
_chemical_formula_structural   V85Zn86O256
_chemical_formula_sum   'V85 Zn86 O256'
_cell_volume   4851.89318021
_cell_formula_units_Z   1
loop_
 _symmetry_equiv_pos_site_id
 _symmetry_equiv_pos_as_xyz
  1  'x, y, z'
loop_
 _atom_site_type_symbol
 _atom_site_label
 _atom_site_symmetry_multiplicity
 _atom_site_fract_x
 _atom_site_fract_y
 _atom_site_fract_z
 _atom_site_occupancy
  V  V0  1  0.25418311  0.12603766  0.37061981  1
  V  V1  1  0.62604079  0.12741275  0.50537837  1
  V  V2  1  0.25294919  0.74908187  -0.01023962  1
  V  V3  1  0.86952873  0.62758498  0.25855740  1
  V  V4  1  0.74810727  0.26419325  0.00181552  1
  V  V5  1  0.87321592  0.12487375  0.24329010  1
  V  V6  1  0.86747023  0.62868035  0.75518320  1
  V  V7  1  0.35682009  0.51256140  0.87064343  1
  V  V8  1  0.73671097  0.88003006  0.12767063  1
  V  V9  1  0.50055382  0.62426706  0.12410798  1
  V  V10  1  0.87476832  0.87799322  0.00157132  1
  V  V11  1  0.00084658  0.75204413  0.24923303  1
  V  V12  1  0.88131073  0.87404581  0.50439584  1
  V  V13  1  0.57733802  0.43958638  0.68533695  1
  V  V14  1  0.87258950  0.12242699  0.75075877  1
  V  V15  1  0.37871548  0.74444040  0.63121482  1
  V  V16  1  0.25221924  0.50056502  0.24890117  1
  V  V17  1  0.62966606  0.00146270  0.63088891  1
  V  V18  1  0.37705602  0.49826847  0.37635895  1
  V  V19  1  0.87093667  0.49944685  0.88349067  1
  V  V20  1  0.63087534  0.49379849  0.12224230  1
  V  V21  1  0.11652828  0.12036215  0.49859763  1
  V  V22  1  0.12448310  0.50144846  0.12456095  1
  V  V23  1  0.87253319  0.24802794  0.62476223  1
  V  V24  1  -0.00603358  0.75318633  0.74622204  1
  V  V25  1  0.12654953  0.87717533  0.24851345  1
  V  V26  1  0.74635482  0.12347576  0.87661495  1
  V  V27  1  0.87028549  0.37027295  0.50046026  1
  V  V28  1  0.12294551  0.74994908  0.87393131  1
  V  V29  1  0.24769477  0.12466298  0.86415613  1
  V  V30  1  -0.00071869  0.62650978  0.12537064  1
  V  V31  1  0.73839929  -0.00199454  0.24715700  1
  V  V32  1  0.12700204  0.75108759  0.37410360  1
  V  V33  1  0.49814193  0.49579076  -0.00465423  1
  V  V34  1  0.50069940  0.11217243  0.13196321  1
  V  V35  1  0.25716283  0.24792587  0.50224310  1
  V  V36  1  0.86870803  0.26719414  0.12132382  1
  V  V37  1  0.25087083  0.37378350  0.12186949  1
  V  V38  1  0.23249209  0.24000040  -0.00391479  1
  V  V39  1  0.43259077  0.19068279  0.68641447  1
  V  V40  1  0.25715095  0.00391771  0.24618631  1
  V  V41  1  0.00279946  0.00839255  -0.00303411  1
  V  V42  1  0.62856613  0.25032542  0.37644263  1
  V  V43  1  0.75101130  0.12681588  0.37941885  1
  V  V44  1  0.00064894  0.49860762  0.50543632  1
  V  V45  1  0.12576972  0.36176848  0.75206655  1
  V  V46  1  0.17581752  0.54543815  0.68034594  1
  V  V47  1  0.63014812  0.62347165  -0.00420993  1
  V  V48  1  0.86937279  -0.00117622  0.87101610  1
  V  V49  1  0.75088608  0.37346287  0.62815620  1
  V  V50  1  0.25018848  0.87588173  0.12196808  1
  V  V51  1  0.50765846  0.49825223  0.49772480  1
  V  V52  1  0.12668600  0.62391939  -0.00351199  1
  V  V53  1  0.37417195  0.74970901  0.12474931  1
  V  V54  1  0.50074211  0.00198079  0.50644529  1
  V  V55  1  0.63294889  0.62165393  0.49931072  1
  V  V56  1  0.62969376  0.87621315  0.75094280  1
  V  V57  1  0.12463182  0.62136148  0.49818581  1
  V  V58  1  -0.00421063  0.36765846  0.88009278  1
  V  V59  1  0.25485303  0.75189056  0.49586936  1
  V  V60  1  0.87500402  0.75319150  0.12552089  1
  V  V61  1  0.62725130  0.74874925  0.87286886  1
  V  V62  1  0.37816404  0.00191559  0.37399603  1
  V  V63  1  0.62923681  0.37185318  0.24529410  1
  V  V64  1  0.61613913  0.25359097  0.86548523  1
  V  V65  1  0.75209055  0.74771091  -0.00233623  1
  V  V66  1  0.00259168  0.88112964  0.37722534  1
  V  V67  1  0.26588609  -0.00358750  0.75045420  1
  V  V68  1  0.37429933  0.36879013  -0.00530282  1
  V  V69  1  0.24514295  0.36962921  0.62630611  1
  V  V70  1  0.12445945  0.25036776  0.37529813  1
  V  V71  1  0.11850523  -0.00138713  0.62562584  1
  V  V72  1  0.50892292  0.75432725  0.24826800  1
  V  V73  1  0.49214085  0.24848101  0.24737207  1
  V  V74  1  -0.00146538  0.37718831  0.37673825  1
  V  V75  1  0.75406720  0.87200955  0.62542213  1
  V  V76  1  0.12639905  0.00965126  0.11926112  1
  V  V77  1  0.75438377  0.74766276  0.49391650  1
  V  V78  1  0.74702034  0.50297301  0.25627921  1
  V  V79  1  0.50255225  0.00086301  -0.01529170  1
  V  V80  1  0.51275338  0.87658645  0.37129676  1
  V  V81  1  -0.01133382  0.62363098  0.62663014  1
  V  V82  1  -0.00309954  0.25220052  0.24836855  1
  V  V83  1  0.88032880  0.00191963  0.37887254  1
  V  V84  1  0.75259718  0.49960111  0.74849114  1
  Zn  Zn85  1  0.25175989  0.62488597  0.37224713  1
  Zn  Zn86  1  -0.00262260  0.12283423  0.62349655  1
  Zn  Zn87  1  0.50373374  0.62238437  0.63011422  1
  Zn  Zn88  1  0.62636148  0.12308060  0.00586025  1
  Zn  Zn89  1  0.37784451  0.62483447  0.25104730  1
  Zn  Zn90  1  0.37920957  0.37159981  0.50686146  1
  Zn  Zn91  1  0.12320975  0.87988001  0.75040475  1
  Zn  Zn92  1  0.00193978  0.13146244  0.11998380  1
  Zn  Zn93  1  0.49395411  0.87830008  0.86709829  1
  Zn  Zn94  1  0.49797469  0.74550348  0.75260386  1
  Zn  Zn95  1  0.86837175  0.50481933  0.38039340  1
  Zn  Zn96  1  -0.00004414  0.24493578  0.75272612  1
  Zn  Zn97  1  0.37438300  0.88135948  -0.00822422  1
  Zn  Zn98  1  0.50031804  0.37274550  0.37457952  1
  Zn  Zn99  1  -0.00070656  0.87720591  0.87363210  1
  Zn  Zn100  1  0.12380879  0.37587377  0.25040644  1
  Zn  Zn101  1  -0.00630235  0.49635259  0.00282598  1
  Zn  Zn102  1  0.37362833  0.24394696  0.12558568  1
  Zn  Zn103  1  0.25227177  0.87850020  0.62169983  1
  Zn  Zn104  1  0.49566980  0.36970361  0.86305600  1
  Zn  Zn105  1  0.37996248  0.87180666  0.49839873  1
  Zn  Zn106  1  0.63274806  0.74698613  0.36972147  1
  Zn  Zn107  1  0.18821521  0.18994536  0.18831071  1
  Zn  Zn108  1  0.19171363  0.18255316  0.68545358  1
  Zn  Zn109  1  0.18951236  0.68668108  0.18544706  1
  Zn  Zn110  1  0.18560406  0.70718118  0.68368488  1
  Zn  Zn111  1  0.68532986  0.18639264  0.18571652  1
  Zn  Zn112  1  0.69040877  0.18764516  0.68952303  1
  Zn  Zn113  1  0.68834397  0.68636957  0.18238653  1
  Zn  Zn114  1  0.68773097  0.68796528  0.68119197  1
  Zn  Zn115  1  0.31228145  0.31669423  0.31443886  1
  Zn  Zn116  1  0.30957446  0.31043137  0.81517095  1
  Zn  Zn117  1  0.31854192  0.81558454  0.31132570  1
  Zn  Zn118  1  0.31164517  0.81574365  0.81113550  1
  Zn  Zn119  1  0.80980436  0.31414373  0.31067380  1
  Zn  Zn120  1  0.81157345  0.31165391  0.81273393  1
  Zn  Zn121  1  0.81253533  0.81729794  0.31299393  1
  Zn  Zn122  1  0.80999352  0.81401708  0.81288074  1
  Zn  Zn123  1  0.18793480  0.43695583  0.43843487  1
  Zn  Zn124  1  0.18185556  0.43307303  0.93618649  1
  Zn  Zn125  1  0.18856809  0.93973137  0.43780422  1
  Zn  Zn126  1  0.18872507  0.93963467  0.93300037  1
  Zn  Zn127  1  0.68769879  0.43448047  0.43819410  1
  Zn  Zn128  1  0.68453661  0.43525322  0.92903842  1
  Zn  Zn129  1  0.69124687  0.93942359  0.43901829  1
  Zn  Zn130  1  0.68359111  0.93939113  0.94070317  1
  Zn  Zn131  1  0.32218964  0.06653579  0.05787810  1
  Zn  Zn132  1  0.31235537  0.06366636  0.56401136  1
  Zn  Zn133  1  0.31302492  0.56339231  0.05651840  1
  Zn  Zn134  1  0.31650710  0.56517766  0.55702366  1
  Zn  Zn135  1  0.81010929  0.06447179  0.06050922  1
  Zn  Zn136  1  0.81121948  0.05889422  0.56179659  1
  Zn  Zn137  1  0.81096521  0.56268683  0.06827214  1
  Zn  Zn138  1  0.81081976  0.55998922  0.56411412  1
  Zn  Zn139  1  0.43969303  0.43438952  0.18527531  1
  Zn  Zn140  1  0.41320473  0.44107838  0.69144562  1
  Zn  Zn141  1  0.43700433  0.93422651  0.18599760  1
  Zn  Zn142  1  0.44160497  0.92857050  0.68280672  1
  Zn  Zn143  1  0.93558106  0.44156490  0.19035714  1
  Zn  Zn144  1  0.94052355  0.43806211  0.69121606  1
  Zn  Zn145  1  0.93627620  0.94103600  0.18681603  1
  Zn  Zn146  1  0.93814904  0.94025852  0.68773111  1
  Zn  Zn147  1  0.06405229  0.06469075  0.30799004  1
  Zn  Zn148  1  0.06683304  0.06564709  0.81446076  1
  Zn  Zn149  1  0.06141120  0.56160872  0.31288243  1
  Zn  Zn150  1  0.05441447  0.56300926  0.81864880  1
  Zn  Zn151  1  0.56148416  0.06608519  0.31309861  1
  Zn  Zn152  1  0.56115341  0.07130102  0.80653225  1
  Zn  Zn153  1  0.56392903  0.56610483  0.31432819  1
  Zn  Zn154  1  0.55582737  0.57035756  0.81801393  1
  Zn  Zn155  1  0.44069654  0.18453984  0.43861198  1
  Zn  Zn156  1  0.43272983  0.18089328  0.93616716  1
  Zn  Zn157  1  0.44257095  0.68317772  0.43710335  1
  Zn  Zn158  1  0.43976261  0.68985357  0.93638145  1
  Zn  Zn159  1  0.93557441  0.19061839  0.43745806  1
  Zn  Zn160  1  0.93209220  0.18862500  0.93959459  1
  Zn  Zn161  1  0.93889117  0.69256275  0.43849843  1
  Zn  Zn162  1  0.93818172  0.68582897  0.93485805  1
  Zn  Zn163  1  0.05958627  0.31534775  0.06427036  1
  Zn  Zn164  1  0.06382392  0.30871581  0.56599440  1
  Zn  Zn165  1  0.06311116  0.81813404  0.05987423  1
  Zn  Zn166  1  0.06312049  0.81206434  0.56392225  1
  Zn  Zn167  1  0.56288612  0.30789330  0.06095717  1
  Zn  Zn168  1  0.55844250  0.30433993  0.55845298  1
  Zn  Zn169  1  0.56098413  0.81531497  0.05881367  1
  Zn  Zn170  1  0.56594994  0.81188019  0.55889051  1
  O  O171  1  0.12215319  0.11280768  0.13223584  1
  O  O172  1  0.12320304  0.11895027  0.61505698  1
  O  O173  1  0.11794854  0.62097222  0.11983517  1
  O  O174  1  0.11936352  0.61884574  0.62127566  1
  O  O175  1  0.60720239  0.13247717  0.12274673  1
  O  O176  1  0.63935088  0.11684770  0.61416147  1
  O  O177  1  0.61992855  0.61724544  0.11443839  1
  O  O178  1  0.62291804  0.63083085  0.60624952  1
  O  O179  1  0.37743185  0.38731476  0.37840901  1
  O  O180  1  0.37690482  0.38327015  0.88117254  1
  O  O181  1  0.38305246  0.88800772  0.37674660  1
  O  O182  1  0.38279805  0.86194331  0.88060145  1
  O  O183  1  0.87932302  0.37539297  0.38325734  1
  O  O184  1  0.88756082  0.38364761  0.86710446  1
  O  O185  1  0.88239843  0.88479241  0.38069034  1
  O  O186  1  0.87316969  0.88335550  0.88278601  1
  O  O187  1  0.25746196  0.00605765  0.36760142  1
  O  O188  1  0.24878006  0.00415152  0.85736436  1
  O  O189  1  0.25661586  0.49960987  0.36613037  1
  O  O190  1  0.25796678  0.50074415  0.88567767  1
  O  O191  1  0.75912486  0.00644698  0.36752666  1
  O  O192  1  0.75809912  0.00907360  0.88253005  1
  O  O193  1  0.74938788  0.49734040  0.36118784  1
  O  O194  1  0.75700324  0.49172878  0.86012226  1
  O  O195  1  0.24671567  0.49421404  0.12937402  1
  O  O196  1  0.24225805  0.49455988  0.61844442  1
  O  O197  1  0.24670473  0.99899735  0.12908497  1
  O  O198  1  0.24309409  1.00146986  0.63572014  1
  O  O199  1  0.73692092  0.50315363  0.13488510  1
  O  O200  1  0.75358608  0.49129102  0.63816069  1
  O  O201  1  0.75587171  0.99257105  0.13374487  1
  O  O202  1  0.74049744  0.98568831  0.61697455  1
  O  O203  1  -0.00107880  0.37177313  0.25994816  1
  O  O204  1  0.00868683  0.37090002  0.75710939  1
  O  O205  1  0.00561655  0.87119540  0.25456986  1
  O  O206  1  -0.00057794  0.86616184  0.75142934  1
  O  O207  1  0.51154788  0.36838458  0.25123695  1
  O  O208  1  0.50896778  0.39013490  0.74295023  1
  O  O209  1  0.49631939  0.86581330  0.25734343  1
  O  O210  1  0.51608043  0.86631334  0.74822681  1
  O  O211  1  0.50326067  0.13355384  0.24144121  1
  O  O212  1  0.49525711  0.12636400  0.73596076  1
  O  O213  1  0.49894096  0.63137877  0.24091246  1
  O  O214  1  0.50707357  0.63304756  0.74283691  1
  O  O215  1  0.98951407  0.13368808  0.24922833  1
  O  O216  1  0.98653703  0.12552938  0.75118628  1
  O  O217  1  0.99436537  0.63144549  0.24381666  1
  O  O218  1  0.99018564  0.63016497  0.74424659  1
  O  O219  1  0.36806013  0.26105473  0.00005681  1
  O  O220  1  0.36102676  0.25275234  0.48737452  1
  O  O221  1  0.36619730  0.74742679  0.00803274  1
  O  O222  1  0.36779865  0.74872385  0.50021595  1
  O  O223  1  0.85981350  0.24762659  0.00837887  1
  O  O224  1  0.87592809  0.26203395  0.50627227  1
  O  O225  1  0.86920573  0.75537124  0.00287275  1
  O  O226  1  0.86970858  0.76228854  0.49699132  1
  O  O227  1  0.13257159  0.24157540  0.49290747  1
  O  O228  1  0.13454446  0.25176260  1.00417248  1
  O  O229  1  0.13094727  0.73981767  0.49623801  1
  O  O230  1  0.12989525  0.74528675  0.99453240  1
  O  O231  1  0.62353779  0.23931810  0.49028167  1
  O  O232  1  0.63616534  0.24681485  0.99315389  1
  O  O233  1  0.63687742  0.74528388  0.49470448  1
  O  O234  1  0.63265737  0.74283311  0.99694130  1
  O  O235  1  0.49686782  0.24534497  0.13333937  1
  O  O236  1  0.48843061  0.25284526  0.62677235  1
  O  O237  1  0.49356324  0.74718564  0.12840838  1
  O  O238  1  0.48658806  0.75176281  0.61949754  1
  O  O239  1  0.98938222  0.25099286  0.12930444  1
  O  O240  1  0.98622962  0.24545033  0.62635618  1
  O  O241  1  0.99538025  0.74804913  0.12999161  1
  O  O242  1  1.00680691  0.73991372  0.63825304  1
  O  O243  1  0.00217335  0.26103759  0.37078902  1
  O  O244  1  -0.00815285  0.26351383  0.87438008  1
  O  O245  1  0.00760363  0.75925001  0.36813036  1
  O  O246  1  0.00499479  0.75178692  0.86481597  1
  O  O247  1  0.51147873  0.24732703  0.36654932  1
  O  O248  1  0.51172440  0.24758013  0.88150927  1
  O  O249  1  0.49944326  0.75914425  0.36562788  1
  O  O250  1  0.51784904  0.75087552  0.87808519  1
  O  O251  1  0.24335838  0.13004833  0.48769550  1
  O  O252  1  0.24636117  0.13969338  1.01044366  1
  O  O253  1  0.24136870  0.63407026  0.49643648  1
  O  O254  1  0.23460535  0.63516782  1.00811197  1
  O  O255  1  0.74502903  0.11954056  0.48560819  1
  O  O256  1  0.74828030  0.13216350  0.98960069  1
  O  O257  1  0.74803621  0.63413038  0.50261521  1
  O  O258  1  0.74282682  0.63625290  1.00903087  1
  O  O259  1  0.25263858  0.36541309  0.00445235  1
  O  O260  1  0.24456930  0.36452727  0.50765256  1
  O  O261  1  0.24983804  0.86653605  0.00531957  1
  O  O262  1  0.25079958  0.86125782  0.49607660  1
  O  O263  1  0.74725759  0.36310989  -0.00323889  1
  O  O264  1  0.75863091  0.38188201  0.51403067  1
  O  O265  1  0.75656094  0.87058062  0.00790354  1
  O  O266  1  0.76078432  0.87023543  0.50362166  1
  O  O267  1  0.13333867  0.49924894  0.24373617  1
  O  O268  1  0.11868268  0.49207101  0.74759940  1
  O  O269  1  0.13697739  0.99575699  0.24392591  1
  O  O270  1  0.13028894  1.00010577  0.73991123  1
  O  O271  1  0.62807607  0.49510107  0.24296002  1
  O  O272  1  0.63074836  0.50093041  0.74966033  1
  O  O273  1  0.63949646  1.00429762  0.25598358  1
  O  O274  1  0.62195595  0.99459365  0.73773400  1
  O  O275  1  0.36338522  -0.00394235  0.25513767  1
  O  O276  1  0.36440436  -0.00680924  0.74173993  1
  O  O277  1  0.36942369  0.49932040  0.25515004  1
  O  O278  1  0.37020681  0.50524478  0.77056185  1
  O  O279  1  0.87067290  0.00953506  0.25872022  1
  O  O280  1  0.87654625  0.00484837  0.76301548  1
  O  O281  1  0.86450670  0.50980295  0.25113205  1
  O  O282  1  0.86938402  0.50807368  0.75715141  1
  O  O283  1  0.11566742  0.36929250  0.37467413  1
  O  O284  1  0.11086625  0.37909899  0.86201380  1
  O  O285  1  0.12158621  0.87221467  0.36905008  1
  O  O286  1  0.12114630  0.86217522  0.87558401  1
  O  O287  1  0.62452566  0.36508862  0.36811472  1
  O  O288  1  0.61719871  0.35905299  0.87642404  1
  O  O289  1  0.61572771  0.87506138  0.37619746  1
  O  O290  1  0.62684495  0.86851999  0.86599645  1
  O  O291  1  0.39327574  0.12882077  0.12488276  1
  O  O292  1  0.36969407  0.13798879  0.62437011  1
  O  O293  1  0.38100752  0.63415113  0.12352355  1
  O  O294  1  0.37790496  0.64008252  0.61766325  1
  O  O295  1  0.87437173  0.12986215  0.13577756  1
  O  O296  1  0.87194890  0.12869097  0.63133791  1
  O  O297  1  0.88087420  0.63262285  0.13423523  1
  O  O298  1  0.88418609  0.62400287  0.63210414  1
  O  O299  1  0.25175369  0.25785629  0.11884233  1
  O  O300  1  0.24126515  0.25677897  0.61304258  1
  O  O301  1  0.25676633  0.75411721  0.11754693  1
  O  O302  1  0.26050638  0.75306406  0.61333282  1
  O  O303  1  0.75369383  0.24704346  0.11146805  1
  O  O304  1  0.76226419  0.25770508  0.62853942  1
  O  O305  1  0.75609690  0.75811293  0.11687559  1
  O  O306  1  0.74804178  0.76470267  0.61177310  1
  O  O307  1  0.24439880  0.24333148  0.37622907  1
  O  O308  1  0.24626120  0.23967405  0.88669012  1
  O  O309  1  0.24609283  0.74804248  0.37742296  1
  O  O310  1  0.24147045  0.75010486  0.88425692  1
  O  O311  1  0.73852230  0.24088560  0.36775738  1
  O  O312  1  0.74447251  0.24591638  0.88480696  1
  O  O313  1  0.75074151  0.75706806  0.38735303  1
  O  O314  1  0.74218996  0.75524062  0.88977356  1
  O  O315  1  -0.00639832  0.11293736  0.00209367  1
  O  O316  1  0.01284190  0.12842210  0.49674945  1
  O  O317  1  0.00931634  0.62595835  0.00808486  1
  O  O318  1  0.00528230  0.62400233  0.50881884  1
  O  O319  1  0.50140425  0.11370994  0.00875345  1
  O  O320  1  0.51384844  0.11406029  0.49393232  1
  O  O321  1  0.50902937  0.61713462  0.00550721  1
  O  O322  1  0.50580909  0.61069867  0.50594689  1
  O  O323  1  0.50035899  0.38514145  0.49719493  1
  O  O324  1  0.48994158  0.38025829  1.00137650  1
  O  O325  1  0.50181326  0.88395742  0.48896927  1
  O  O326  1  0.50307666  0.89011869  0.99690912  1
  O  O327  1  0.99486998  0.37745037  0.49505973  1
  O  O328  1  1.00454851  0.37790638  0.98449153  1
  O  O329  1  0.99136112  0.86936335  0.49276281  1
  O  O330  1  0.98951665  0.88510806  0.99915144  1
  O  O331  1  0.49459904  0.49798381  0.38146651  1
  O  O332  1  0.49876225  0.49590681  0.88835657  1
  O  O333  1  0.49511451  0.99562105  0.37886617  1
  O  O334  1  0.50300811  1.00251027  0.88193015  1
  O  O335  1  0.99720229  0.48903485  0.38073829  1
  O  O336  1  0.98847769  0.49053427  0.87834719  1
  O  O337  1  0.99336963  0.99331412  0.36747351  1
  O  O338  1  0.99290869  0.99884136  0.88185002  1
  O  O339  1  0.00897586  0.00228929  0.11804711  1
  O  O340  1  0.01313648  0.00361071  0.62599619  1
  O  O341  1  0.00459095  0.50656902  0.12357172  1
  O  O342  1  -0.00280221  0.50994047  0.61881420  1
  O  O343  1  0.50280031  0.01044448  0.13114162  1
  O  O344  1  0.51089744  -0.00845710  0.61202754  1
  O  O345  1  0.50822999  0.50302031  0.11474155  1
  O  O346  1  0.50710979  0.49185674  0.62375486  1
  O  O347  1  0.24872838  0.38467704  0.24141492  1
  O  O348  1  0.23438513  0.37072850  0.74616798  1
  O  O349  1  0.24657371  0.88312362  0.24324347  1
  O  O350  1  0.24560303  0.88632011  0.74621293  1
  O  O351  1  0.73680412  0.38277640  0.25075038  1
  O  O352  1  0.75465115  0.38186863  0.73769871  1
  O  O353  1  0.75702884  0.88586792  0.23992400  1
  O  O354  1  0.74103232  0.87182581  0.73999271  1
  O  O355  1  0.24666294  0.11925285  0.26188332  1
  O  O356  1  0.25164357  0.11527754  0.75690736  1
  O  O357  1  0.25305767  0.61214715  0.24910194  1
  O  O358  1  0.22881606  0.60967615  0.73313403  1
  O  O359  1  0.75621244  0.12030319  0.25750621  1
  O  O360  1  0.76173350  0.12842277  0.76343574  1
  O  O361  1  0.75824742  0.61894969  0.24578158  1
  O  O362  1  0.76100898  0.61903325  0.74171530  1
  O  O363  1  0.36874127  0.11205810  0.37771086  1
  O  O364  1  0.34632880  0.11886192  0.89558217  1
  O  O365  1  0.37429743  0.61154655  0.37283692  1
  O  O366  1  0.37340705  0.61089500  0.88974029  1
  O  O367  1  0.86964289  0.12175418  0.36824516  1
  O  O368  1  0.86783412  0.11871803  0.86993070  1
  O  O369  1  0.88359974  0.62449847  0.36224434  1
  O  O370  1  0.87841517  0.61500601  0.86529437  1
  O  O371  1  0.13505614  0.38258225  0.12558462  1
  O  O372  1  0.12883354  0.37550568  0.63856600  1
  O  O373  1  0.13133159  0.88481327  0.13022838  1
  O  O374  1  0.12961718  0.88402675  0.62413499  1
  O  O375  1  0.62009139  0.38362735  0.13121021  1
  O  O376  1  0.63061547  0.37254876  0.62588018  1
  O  O377  1  0.63803674  0.87012801  0.12427615  1
  O  O378  1  0.63303236  0.88060759  0.62946526  1
  O  O379  1  0.11652911  0.25292511  0.25647657  1
  O  O380  1  0.12104330  0.25829911  0.74753767  1
  O  O381  1  0.12203087  0.75648149  0.25323511  1
  O  O382  1  0.11588611  0.75408283  0.75845819  1
  O  O383  1  0.61982480  0.25672831  0.25479876  1
  O  O384  1  0.62967933  0.24674918  0.76668381  1
  O  O385  1  0.61351833  0.74412120  0.24943208  1
  O  O386  1  0.63278115  0.75593790  0.75962270  1
  O  O387  1  0.38892611  0.25798076  0.25130893  1
  O  O388  1  0.37973958  0.24775838  0.75410086  1
  O  O389  1  0.38277720  0.74714570  0.24046738  1
  O  O390  1  0.37237485  0.75059392  0.73396496  1
  O  O391  1  0.87548509  0.24421698  0.24239766  1
  O  O392  1  0.87571573  0.24085120  0.74288540  1
  O  O393  1  0.87934082  0.74546814  0.24629812  1
  O  O394  1  0.88113476  0.74179926  0.75701310  1
  O  O395  1  0.38444268  0.49729863  0.49294811  1
  O  O396  1  0.38136167  0.48903437  0.99717043  1
  O  O397  1  0.38373220  0.99944248  0.49340081  1
  O  O398  1  0.39666400  0.99583474  1.00939734  1
  O  O399  1  0.88084207  0.48919894  0.49909133  1
  O  O400  1  0.87096492  0.50645421  0.98790757  1
  O  O401  1  0.87312994  0.99410464  0.48572181  1
  O  O402  1  0.88069346  0.99620830  0.99225476  1
  O  O403  1  0.11623346  -0.00750752  0.00857282  1
  O  O404  1  0.13396657  0.01047601  0.50911042  1
  O  O405  1  0.12235805  0.50878824  0.00589926  1
  O  O406  1  0.11924294  0.51436827  0.49266955  1
  O  O407  1  0.61013393  0.00413269  0.00085690  1
  O  O408  1  0.62098596  0.00690207  0.50633358  1
  O  O409  1  0.62213306  0.50370000  0.00393432  1
  O  O410  1  0.61955844  0.50610101  0.49635309  1
  O  O411  1  0.36266747  0.37517205  0.11723090  1
  O  O412  1  0.35192755  0.37940316  0.62226125  1
  O  O413  1  0.36935983  0.86303767  0.12105649  1
  O  O414  1  0.37218165  0.86203522  0.61666419  1
  O  O415  1  0.87392734  0.36647566  0.12945468  1
  O  O416  1  0.87066242  0.36819790  0.62040195  1
  O  O417  1  0.87117019  0.87003260  0.11860787  1
  O  O418  1  0.86918169  0.88437336  0.61382521  1
  O  O419  1  0.13222775  0.12862024  0.37971892  1
  O  O420  1  0.14604843  0.11592224  0.88215452  1
  O  O421  1  0.12440629  0.63297610  0.38169543  1
  O  O422  1  0.11680382  0.63708998  0.88405355  1
  O  O423  1  0.63333684  0.12985050  0.38183507  1
  O  O424  1  0.63197421  0.13358489  0.87691912  1
  O  O425  1  0.61907595  0.63029625  0.39127316  1
  O  O426  1  0.62821255  0.63079328  0.88868471  1
