# generated using pymatgen
data_V85Zn86O256
_symmetry_space_group_name_H-M   'P 1'
_cell_length_a   16.93729965
_cell_length_b   16.93629429
_cell_length_c   16.94101435
_cell_angle_alpha   89.96063120
_cell_angle_beta   90.02663853
_cell_angle_gamma   90.02045970
_symmetry_Int_Tables_number   1
_chemical_formula_structural   V85Zn86O256
_chemical_formula_sum   'V85 Zn86 O256'
_cell_volume   4859.61423863
_cell_formula_units_Z   1
loop_
 _symmetry_equiv_pos_site_id
 _symmetry_equiv_pos_as_xyz
  1  'x, y, z'
loop_
 _atom_site_type_symbol
 _atom_site_label
 _atom_site_symmetry_multiplicity
 _atom_site_fract_x
 _atom_site_fract_y
 _atom_site_fract_z
 _atom_site_occupancy
  V  V0  1  0.49772145  0.87355579  0.88147457  1
  V  V1  1  0.25244362  0.24816177  -0.00149226  1
  V  V2  1  0.11925034  0.50081704  0.62777854  1
  V  V3  1  0.87612489  0.74732095  0.63864959  1
  V  V4  1  0.75141861  0.74540166  -0.00794172  1
  V  V5  1  0.11984994  0.87541328  0.74168597  1
  V  V6  1  0.31770200  0.70090823  0.56508977  1
  V  V7  1  0.12353045  0.62703155  0.00097460  1
  V  V8  1  -0.00198840  0.62738520  0.12543926  1
  V  V9  1  0.75600694  0.00127406  0.75369484  1
  V  V10  1  0.48940361  0.63028338  0.12683199  1
  V  V11  1  0.50605842  0.25751567  0.75162330  1
  V  V12  1  0.62719394  0.49125484  0.12967668  1
  V  V13  1  -0.00244842  0.25170833  0.24803982  1
  V  V14  1  0.87471092  0.88494380  -0.00318222  1
  V  V15  1  0.75598739  0.12515429  0.87861005  1
  V  V16  1  0.24332932  0.24928534  0.50100701  1
  V  V17  1  0.24792591  0.62624422  0.87752105  1
  V  V18  1  0.12644835  0.37274349  0.24843201  1
  V  V19  1  -0.00669736  0.62311922  0.64495042  1
  V  V20  1  0.49366258  0.75353854  0.74594824  1
  V  V21  1  0.12303311  0.12586507  -0.00090899  1
  V  V22  1  0.37915166  0.36906038  0.00176906  1
  V  V23  1  0.25777227  0.50120031  0.25224153  1
  V  V24  1  0.12028451  0.36962252  0.75188694  1
  V  V25  1  0.87084232  0.51641841  0.87290555  1
  V  V26  1  0.00288257  0.37434323  0.38134240  1
  V  V27  1  0.24728170  0.49325598  0.74993073  1
  V  V28  1  0.01794560  0.00060848  0.50035035  1
  V  V29  1  0.24931305  0.11141526  0.38530907  1
  V  V30  1  0.49154002  0.13196303  0.12395219  1
  V  V31  1  0.87098672  0.50212627  0.38052976  1
  V  V32  1  0.37035474  0.25534386  0.62637492  1
  V  V33  1  0.87801115  0.75239035  0.12702071  1
  V  V34  1  0.50171594  0.12564175  0.62555784  1
  V  V35  1  0.26169747  0.75365854  0.00174783  1
  V  V36  1  0.01074180  0.12143731  0.62145539  1
  V  V37  1  0.00019796  0.12654994  0.12688916  1
  V  V38  1  0.75036992  0.51626459  0.75347664  1
  V  V39  1  0.26527187  0.87412879  0.12060895  1
  V  V40  1  0.74870100  0.37316437  0.63879254  1
  V  V41  1  0.75055144  0.00004747  0.25096373  1
  V  V42  1  0.62433577  0.87703838  0.75157083  1
  V  V43  1  0.37333766  0.88973855  0.50687916  1
  V  V44  1  0.62401681  0.49361060  0.63118427  1
  V  V45  1  0.49628106  0.88291028  0.37612517  1
  V  V46  1  0.62873995  0.62316539  -0.00236368  1
  V  V47  1  0.05550153  0.55489422  0.45853729  1
  V  V48  1  0.75154331  0.25224202  0.50077986  1
  V  V49  1  0.87397277  0.87754824  0.50024229  1
  V  V50  1  0.11769591  0.75332612  0.87314842  1
  V  V51  1  0.25316203  0.36906508  0.12469082  1
  V  V52  1  0.62340285  0.00072754  0.12161819  1
  V  V53  1  0.62385189  0.87141209  0.24982672  1
  V  V54  1  0.87651189  0.37720988  0.50249370  1
  V  V55  1  0.50350530  0.62690231  0.62450035  1
  V  V56  1  0.37030642  0.62771311  0.74839728  1
  V  V57  1  0.00196565  0.86286318  0.36875950  1
  V  V58  1  -0.00335496  0.88243209  0.87154566  1
  V  V59  1  0.48633019  0.75202837  0.24619863  1
  V  V60  1  0.50107160  0.50059739  0.00018431  1
  V  V61  1  0.50330682  0.37589683  0.36598476  1
  V  V62  1  0.88277873  0.24868674  0.63005823  1
  V  V63  1  0.37473645  0.12584545  0.75340293  1
  V  V64  1  0.81310762  0.31262433  0.06849961  1
  V  V65  1  0.25127096  0.00225596  0.25073336  1
  V  V66  1  0.75116879  0.87669847  0.62590100  1
  V  V67  1  0.87453490  0.12891302  0.24854558  1
  V  V68  1  0.87099076  0.62886651  0.25044688  1
  V  V69  1  0.62793617  0.12903038  -0.00130480  1
  V  V70  1  0.74524000  0.48839544  0.24905819  1
  V  V71  1  0.74741493  0.74888559  0.49978659  1
  V  V72  1  0.37386494  -0.00487805  0.87778279  1
  V  V73  1  0.63097417  0.25709229  0.87390024  1
  V  V74  1  0.88291389  0.12435320  0.75303392  1
  V  V75  1  0.11947308  0.86200298  0.24383688  1
  V  V76  1  -0.00767313  0.49483063  0.00139267  1
  V  V77  1  0.62418952  0.25306415  0.36535074  1
  V  V78  1  0.37671410  0.37153439  0.49791331  1
  V  V79  1  0.74989687  0.87418932  0.12256714  1
  V  V80  1  0.62587096  0.12783842  0.49911511  1
  V  V81  1  0.37423956  0.49883110  0.87543520  1
  V  V82  1  0.87786921  0.00150835  0.37702611  1
  V  V83  1  0.24492066  -0.00103631  0.74369610  1
  V  V84  1  -0.01083844  0.36804187  0.87442977  1
  Zn  Zn85  1  0.49532394  -0.00333253  0.00034718  1
  Zn  Zn86  1  -0.00385398  0.00469074  -0.00180089  1
  Zn  Zn87  1  0.62592190  0.74966273  0.37397605  1
  Zn  Zn88  1  0.49400625  0.25589055  0.24259518  1
  Zn  Zn89  1  0.24571956  0.12381960  0.87439299  1
  Zn  Zn90  1  0.50108958  0.00704198  0.49219551  1
  Zn  Zn91  1  0.11979271  0.24851216  0.87169059  1
  Zn  Zn92  1  0.12543137  0.24300065  0.37938142  1
  Zn  Zn93  1  0.17469686  0.70721803  0.41961227  1
  Zn  Zn94  1  0.50666445  0.37785022  0.87295134  1
  Zn  Zn95  1  0.75044205  0.12695728  0.37566172  1
  Zn  Zn96  1  0.62750733  0.62206441  0.49922287  1
  Zn  Zn97  1  0.32345888  0.66258720  0.30402663  1
  Zn  Zn98  1  0.50177533  0.49914916  0.50014882  1
  Zn  Zn99  1  0.25011489  0.87109977  0.62505399  1
  Zn  Zn100  1  0.12487151  0.49812326  0.12135841  1
  Zn  Zn101  1  0.62658457  0.00256422  0.62422149  1
  Zn  Zn102  1  0.37223164  0.12927836  0.25423926  1
  Zn  Zn103  1  0.74282494  0.62509779  0.37331489  1
  Zn  Zn104  1  0.37918554  0.50380988  0.37514090  1
  Zn  Zn105  1  0.12448839  -0.00146219  0.12341343  1
  Zn  Zn106  1  0.62830995  0.74178227  0.87072216  1
  Zn  Zn107  1  0.18841235  0.18769399  0.18820740  1
  Zn  Zn108  1  0.18978144  0.18782963  0.68764267  1
  Zn  Zn109  1  0.18812378  0.69071738  0.18406344  1
  Zn  Zn110  1  0.17628536  0.68295006  0.69251992  1
  Zn  Zn111  1  0.68723418  0.18833989  0.18570288  1
  Zn  Zn112  1  0.69060082  0.18856447  0.68988874  1
  Zn  Zn113  1  0.68683076  0.68347259  0.18165080  1
  Zn  Zn114  1  0.68457843  0.69109384  0.68559053  1
  Zn  Zn115  1  0.31736624  0.30412939  0.31437143  1
  Zn  Zn116  1  0.31122108  0.31248905  0.81639279  1
  Zn  Zn117  1  0.30852533  0.83100074  0.31950477  1
  Zn  Zn118  1  0.30922837  0.81278936  0.81190396  1
  Zn  Zn119  1  0.81328836  0.31240106  0.31193586  1
  Zn  Zn120  1  0.81568220  0.30992195  0.81505772  1
  Zn  Zn121  1  0.81288311  0.81289408  0.31246048  1
  Zn  Zn122  1  0.81295222  0.81434621  0.81549496  1
  Zn  Zn123  1  0.19545359  0.43011229  0.43324266  1
  Zn  Zn124  1  0.18257321  0.43645219  0.93803617  1
  Zn  Zn125  1  0.16860637  0.88729949  0.45359584  1
  Zn  Zn126  1  0.18677443  0.93923911  0.93628436  1
  Zn  Zn127  1  0.68693369  0.43698845  0.44222353  1
  Zn  Zn128  1  0.69425093  0.43721742  0.94186800  1
  Zn  Zn129  1  0.68649942  0.93956174  0.43642299  1
  Zn  Zn130  1  0.68771767  0.93984482  0.93556650  1
  Zn  Zn131  1  0.31008756  0.05858216  0.06066571  1
  Zn  Zn132  1  0.31156057  0.06466201  0.56469019  1
  Zn  Zn133  1  0.31114649  0.55841569  0.06384633  1
  Zn  Zn134  1  0.30349033  0.53964753  0.55894196  1
  Zn  Zn135  1  0.81137345  0.06994428  0.06527560  1
  Zn  Zn136  1  0.81381511  0.06431963  0.56448461  1
  Zn  Zn137  1  0.81056881  0.55719683  0.06256760  1
  Zn  Zn138  1  0.81304822  0.56334640  0.56554595  1
  Zn  Zn139  1  0.44005536  0.43578191  0.18276974  1
  Zn  Zn140  1  0.43598456  0.43694256  0.68712248  1
  Zn  Zn141  1  0.43753668  0.94423661  0.18976154  1
  Zn  Zn142  1  0.43648529  0.94093944  0.68660670  1
  Zn  Zn143  1  0.93330001  0.43898072  0.19014307  1
  Zn  Zn144  1  0.93572040  0.44024084  0.69307168  1
  Zn  Zn145  1  0.93974836  0.94043802  0.18643594  1
  Zn  Zn146  1  0.93900938  0.93912078  0.68622395  1
  Zn  Zn147  1  0.07070305  0.05782934  0.31445798  1
  Zn  Zn148  1  0.06240366  0.05997994  0.81315299  1
  Zn  Zn149  1  0.06431294  0.56336020  0.29444356  1
  Zn  Zn150  1  0.06071567  0.55929135  0.81782121  1
  Zn  Zn151  1  0.56389122  0.06474252  0.30894735  1
  Zn  Zn152  1  0.56404648  0.06337369  0.81304468  1
  Zn  Zn153  1  0.55781837  0.56653311  0.31347148  1
  Zn  Zn154  1  0.56312166  0.56148947  0.81089818  1
  Zn  Zn155  1  0.43388682  0.18772555  0.43347542  1
  Zn  Zn156  1  0.44066614  0.18673814  0.93753041  1
  Zn  Zn157  1  0.44807762  0.69131329  0.43371071  1
  Zn  Zn158  1  0.44047427  0.68584539  0.93436523  1
  Zn  Zn159  1  0.94097618  0.18635397  0.43916273  1
  Zn  Zn160  1  0.93287797  0.19114717  0.94143647  1
  Zn  Zn161  1  0.92790097  0.69083642  0.44096491  1
  Zn  Zn162  1  0.93835227  0.69269476  0.93969902  1
  Zn  Zn163  1  0.05929474  0.31098834  0.06191615  1
  Zn  Zn164  1  0.06169213  0.31490556  0.56644283  1
  Zn  Zn165  1  0.06248691  0.81328312  0.05920177  1
  Zn  Zn166  1  0.05581449  0.80450723  0.56269670  1
  Zn  Zn167  1  0.56927590  0.31164211  0.05850633  1
  Zn  Zn168  1  0.56290151  0.31217832  0.56125860  1
  Zn  Zn169  1  0.56282380  0.80862547  0.06197176  1
  Zn  Zn170  1  0.56092134  0.81546387  0.56425672  1
  O  O171  1  0.11690354  0.12534234  0.11840468  1
  O  O172  1  0.10950460  0.12782243  0.63342828  1
  O  O173  1  0.11378534  0.62410216  0.12060331  1
  O  O174  1  0.10841795  0.61456478  0.62815046  1
  O  O175  1  0.62076849  0.11781893  0.11770535  1
  O  O176  1  0.61893704  0.12880397  0.61787031  1
  O  O177  1  0.61644153  0.61873560  0.11338298  1
  O  O178  1  0.61629264  0.61720191  0.62617993  1
  O  O179  1  0.38549794  0.37571517  0.38207826  1
  O  O180  1  0.37532074  0.38147068  0.88582714  1
  O  O181  1  0.38419366  0.87544469  0.39255922  1
  O  O182  1  0.38525317  0.88332611  0.86565955  1
  O  O183  1  0.88448585  0.38423687  0.37792582  1
  O  O184  1  0.88635613  0.38212224  0.87199893  1
  O  O185  1  0.88151884  0.88422924  0.37664749  1
  O  O186  1  0.88330803  0.87107617  0.88510883  1
  O  O187  1  0.24588873  0.00976179  0.36874582  1
  O  O188  1  0.25752284  0.00034716  0.86472922  1
  O  O189  1  0.25258116  0.49701115  0.35675730  1
  O  O190  1  0.25236095  0.50678990  0.87133027  1
  O  O191  1  0.75909627  0.00202343  0.36814694  1
  O  O192  1  0.74665037  0.01266158  0.86610631  1
  O  O193  1  0.75595342  0.50241951  0.37062577  1
  O  O194  1  0.76290460  0.49765419  0.86973987  1
  O  O195  1  0.24679024  0.48490716  0.12909050  1
  O  O196  1  0.23365847  0.50346977  0.63799629  1
  O  O197  1  0.24691446  0.98859879  0.12765643  1
  O  O198  1  0.25634593  0.99789945  0.63998460  1
  O  O199  1  0.74013372  0.50474478  0.13574901  1
  O  O200  1  0.74592873  0.49353599  0.63480415  1
  O  O201  1  0.73997239  0.99637975  0.12996027  1
  O  O202  1  0.74885605  0.99389234  0.63261873  1
  O  O203  1  0.00544968  0.37089122  0.25911381  1
  O  O204  1  0.00549542  0.38112586  0.76569709  1
  O  O205  1  0.00962511  0.87858333  0.25382429  1
  O  O206  1  0.00642451  0.88058037  0.75821015  1
  O  O207  1  0.49898113  0.37547946  0.26143445  1
  O  O208  1  0.49480456  0.36144027  0.75267391  1
  O  O209  1  0.50550895  0.87152712  0.25235685  1
  O  O210  1  0.50588899  0.86989488  0.75343463  1
  O  O211  1  0.49913787  0.12137497  0.23284832  1
  O  O212  1  0.49387577  0.13389775  0.74522172  1
  O  O213  1  0.50708297  0.63762784  0.23448958  1
  O  O214  1  0.49197159  0.63056757  0.74076746  1
  O  O215  1  0.99703157  0.13179431  0.24711395  1
  O  O216  1  0.98803713  0.11364953  0.74156527  1
  O  O217  1  0.98643560  0.61999611  0.23499224  1
  O  O218  1  0.99949692  0.62468101  0.74357477  1
  O  O219  1  0.36666014  0.25714934  -0.00610411  1
  O  O220  1  0.36891465  0.25230444  0.50906336  1
  O  O221  1  0.36062848  0.74654617  -0.00939012  1
  O  O222  1  0.37814730  0.75793820  0.50487524  1
  O  O223  1  0.86434593  0.24686055  0.00905978  1
  O  O224  1  0.87040443  0.25516433  0.50612730  1
  O  O225  1  0.86768244  0.75897400  0.00687241  1
  O  O226  1  0.86314273  0.75822868  0.50903095  1
  O  O227  1  0.13990882  0.25916571  0.50359784  1
  O  O228  1  0.13078991  0.24035842  0.99901051  1
  O  O229  1  0.13540083  0.78151967  0.49035135  1
  O  O230  1  0.13194490  0.74490861  0.99220643  1
  O  O231  1  0.63072590  0.24102302  0.49530132  1
  O  O232  1  0.62329900  0.23677487  0.99030242  1
  O  O233  1  0.63828736  0.75289561  0.50342427  1
  O  O234  1  0.63454122  0.74220403  0.99901644  1
  O  O235  1  0.50862795  0.23467191  0.12284749  1
  O  O236  1  0.49540890  0.24205721  0.63226396  1
  O  O237  1  0.50063805  0.73987765  0.12939253  1
  O  O238  1  0.50522944  0.74330210  0.63802733  1
  O  O239  1  1.00472916  0.24089009  0.13896167  1
  O  O240  1  0.98931107  0.23970290  0.61674320  1
  O  O241  1  0.98602835  0.74245169  0.11595732  1
  O  O242  1  0.98987881  0.73392146  0.62235405  1
  O  O243  1  0.00416440  0.25694758  0.36810095  1
  O  O244  1  -0.00117559  0.26454570  0.87892468  1
  O  O245  1  -0.00802443  0.76388788  0.37977380  1
  O  O246  1  0.00983722  0.76228806  0.88272237  1
  O  O247  1  0.50861764  0.25710141  0.37565374  1
  O  O248  1  0.51021843  0.25004190  0.86733847  1
  O  O249  1  0.50612957  0.76531955  0.36361908  1
  O  O250  1  0.50243752  0.75632804  0.86348396  1
  O  O251  1  0.25075898  0.12948337  0.49253486  1
  O  O252  1  0.24309372  0.13255450  0.99984642  1
  O  O253  1  0.26124375  0.63890780  0.50789635  1
  O  O254  1  0.24343277  0.63042602  0.99779891  1
  O  O255  1  0.74365451  0.13317853  0.49984276  1
  O  O256  1  0.74180440  0.11923734  0.99002975  1
  O  O257  1  0.75023033  0.63558000  0.50016667  1
  O  O258  1  0.74227703  0.63352194  1.00576594  1
  O  O259  1  0.25420994  0.36886984  0.00532414  1
  O  O260  1  0.26605180  0.36521560  0.49585738  1
  O  O261  1  0.24405060  0.86976019  0.01288107  1
  O  O262  1  0.26920988  0.88404807  0.50695759  1
  O  O263  1  0.75564603  0.37421269  0.01043953  1
  O  O264  1  0.75806144  0.37020644  0.51141237  1
  O  O265  1  0.75481784  0.86983958  0.00424443  1
  O  O266  1  0.75460933  0.87215170  0.50581702  1
  O  O267  1  0.13395111  0.48742674  0.24489897  1
  O  O268  1  0.12877424  0.49395099  0.74731103  1
  O  O269  1  0.13622271  0.99324637  0.24367425  1
  O  O270  1  0.13409770  0.98926324  0.75616402  1
  O  O271  1  0.63465301  0.50899718  0.24200818  1
  O  O272  1  0.63272188  0.50050707  0.74084541  1
  O  O273  1  0.62912078  0.99045553  0.24157558  1
  O  O274  1  0.63539142  0.99514838  0.74846620  1
  O  O275  1  0.35761130  0.00287930  0.24598488  1
  O  O276  1  0.37098341  0.00880645  0.75716652  1
  O  O277  1  0.36001561  0.49076161  0.24687125  1
  O  O278  1  0.36523669  0.50478726  0.75243094  1
  O  O279  1  0.87321316  0.00594899  0.26016916  1
  O  O280  1  0.86311452  0.00639679  0.74556966  1
  O  O281  1  0.86858275  0.50709638  0.26123793  1
  O  O282  1  0.86699128  0.50184457  0.76441940  1
  O  O283  1  0.11775781  0.37362865  0.36748957  1
  O  O284  1  0.11228247  0.37581646  0.86805938  1
  O  O285  1  0.11495377  0.88111367  0.35323467  1
  O  O286  1  0.11748688  0.86960271  0.87029461  1
  O  O287  1  0.61654430  0.36368122  0.38507952  1
  O  O288  1  0.62796968  0.36093014  0.88156600  1
  O  O289  1  0.62105871  0.87411592  0.36462720  1
  O  O290  1  0.61831195  0.87556385  0.86379897  1
  O  O291  1  0.39054186  0.11885246  0.11892286  1
  O  O292  1  0.38238700  0.13296127  0.63549009  1
  O  O293  1  0.39033367  0.62088590  0.12092080  1
  O  O294  1  0.37471969  0.62942336  0.62323138  1
  O  O295  1  0.88255880  0.12061403  0.14084596  1
  O  O296  1  0.88178133  0.13161839  0.63146763  1
  O  O297  1  0.87825625  0.63162260  0.12989324  1
  O  O298  1  0.88465905  0.63098943  0.62652481  1
  O  O299  1  0.24520172  0.26091877  0.11413733  1
  O  O300  1  0.26135632  0.24287447  0.61709202  1
  O  O301  1  0.24858314  0.76461555  0.11741476  1
  O  O302  1  0.25377231  0.74877944  0.62964649  1
  O  O303  1  0.75271057  0.25834926  0.13094969  1
  O  O304  1  0.75939901  0.25645857  0.62191128  1
  O  O305  1  0.75846272  0.75550924  0.11600318  1
  O  O306  1  0.75568753  0.75720273  0.62035961  1
  O  O307  1  0.24751078  0.24241537  0.38639963  1
  O  O308  1  0.24491198  0.24868830  0.88734858  1
  O  O309  1  0.25230122  0.73851920  0.34786871  1
  O  O310  1  0.24075804  0.74574377  0.88195548  1
  O  O311  1  0.74250801  0.25045505  0.38183569  1
  O  O312  1  0.74303163  0.23617241  0.86578244  1
  O  O313  1  0.74974288  0.74976728  0.38519780  1
  O  O314  1  0.74792104  0.75319797  0.88793632  1
  O  O315  1  0.00451655  0.12754021  0.00918342  1
  O  O316  1  0.00064402  0.10992103  0.50407909  1
  O  O317  1  0.00152316  0.61919983  0.00918612  1
  O  O318  1  -0.00535344  0.62012512  0.50705101  1
  O  O319  1  0.50814005  0.12079846  0.00822921  1
  O  O320  1  0.50694200  0.12829128  0.50785167  1
  O  O321  1  0.50527955  0.62238814  0.00915254  1
  O  O322  1  0.50212651  0.62659448  0.51625656  1
  O  O323  1  0.49001029  0.37168876  0.49412181  1
  O  O324  1  0.49311073  0.37923627  0.99774504  1
  O  O325  1  0.49524169  0.87956798  0.49354970  1
  O  O326  1  0.50602992  0.87421043  0.98498168  1
  O  O327  1  0.99462581  0.37144465  0.48835554  1
  O  O328  1  1.00583428  0.38412900  0.98755521  1
  O  O329  1  0.99166845  0.88594202  0.49313361  1
  O  O330  1  0.99072236  0.87906614  0.99467794  1
  O  O331  1  0.50492783  0.48801509  0.38035727  1
  O  O332  1  0.49359972  0.49784842  0.88005680  1
  O  O333  1  0.50635187  0.98818594  0.37252608  1
  O  O334  1  0.49358793  0.99107573  0.87276506  1
  O  O335  1  0.99846896  0.49826194  0.38137754  1
  O  O336  1  0.98796809  0.49421548  0.88142106  1
  O  O337  1  0.99523434  0.99565954  0.38388153  1
  O  O338  1  1.00092584  0.98749546  0.88031292  1
  O  O339  1  0.00169207  0.01476522  0.12282808  1
  O  O340  1  -0.00555092  0.00549443  0.60708508  1
  O  O341  1  -0.00177362  0.50657355  0.11703060  1
  O  O342  1  -0.00013992  0.51329005  0.62769611  1
  O  O343  1  0.51040513  0.00568723  0.12140337  1
  O  O344  1  0.50411901  0.01683057  0.62818035  1
  O  O345  1  0.50557537  0.51146645  0.12099406  1
  O  O346  1  0.50733023  0.50687861  0.62808928  1
  O  O347  1  0.24416636  0.37728350  0.24303463  1
  O  O348  1  0.24156299  0.38749984  0.75883001  1
  O  O349  1  0.24038214  0.88076648  0.23721601  1
  O  O350  1  0.24144412  0.88136125  0.74689387  1
  O  O351  1  0.75258437  0.38907887  0.25498910  1
  O  O352  1  0.75682138  0.38082760  0.74060946  1
  O  O353  1  0.74362452  0.88022026  0.24277953  1
  O  O354  1  0.74337530  0.88263124  0.74901481  1
  O  O355  1  0.24931955  0.11746580  0.25553723  1
  O  O356  1  0.25802958  0.11934475  0.75297086  1
  O  O357  1  0.24853860  0.60516186  0.23400588  1
  O  O358  1  0.25126805  0.61597483  0.75743795  1
  O  O359  1  0.75836970  0.11885604  0.25172528  1
  O  O360  1  0.75962367  0.11786631  0.75390211  1
  O  O361  1  0.76059334  0.62050615  0.25008856  1
  O  O362  1  0.74548247  0.61578766  0.74812577  1
  O  O363  1  0.35701255  0.12619214  0.37457328  1
  O  O364  1  0.37600092  0.12039387  0.86387209  1
  O  O365  1  0.39963863  0.61555241  0.36815274  1
  O  O366  1  0.36922087  0.61742954  0.86845653  1
  O  O367  1  0.87625936  0.11813160  0.36629364  1
  O  O368  1  0.86880894  0.12948710  0.86603181  1
  O  O369  1  0.87433644  0.61866926  0.36702441  1
  O  O370  1  0.87901888  0.61519255  0.87738877  1
  O  O371  1  0.13065312  0.37499118  0.13179379  1
  O  O372  1  0.10919225  0.39099591  0.63767164  1
  O  O373  1  0.12413293  0.87739473  0.13365774  1
  O  O374  1  0.12219667  0.86818429  0.63948984  1
  O  O375  1  0.61461818  0.39194890  0.12414522  1
  O  O376  1  0.63557057  0.37995521  0.62342613  1
  O  O377  1  0.62821501  0.88264294  0.12800838  1
  O  O378  1  0.62997430  0.87847152  0.63707969  1
  O  O379  1  0.11909481  0.26074120  0.25212083  1
  O  O380  1  0.13171495  0.26622999  0.75008408  1
  O  O381  1  0.12058535  0.76246829  0.24346075  1
  O  O382  1  0.12883980  0.75919967  0.76437831  1
  O  O383  1  0.62004356  0.24361555  0.26301876  1
  O  O384  1  0.61661360  0.24372227  0.75918438  1
  O  O385  1  0.62251993  0.76339695  0.24371994  1
  O  O386  1  0.61827479  0.75950727  0.75274250  1
  O  O387  1  0.38089981  0.24373089  0.24724917  1
  O  O388  1  0.37855257  0.24449302  0.74583852  1
  O  O389  1  0.38522404  0.75785014  0.25106148  1
  O  O390  1  0.38203198  0.74168945  0.75404309  1
  O  O391  1  0.88582338  0.24076008  0.25917987  1
  O  O392  1  0.87308887  0.23932958  0.74002649  1
  O  O393  1  0.86959134  0.74234693  0.23951710  1
  O  O394  1  0.86936714  0.75443739  0.73776168  1
  O  O395  1  0.37949538  0.48649423  0.49868908  1
  O  O396  1  0.38165202  0.49327290  0.99483580  1
  O  O397  1  0.38341051  0.99366766  0.50552672  1
  O  O398  1  0.37566423  1.00467676  0.98222573  1
  O  O399  1  0.86909493  0.49489316  0.48841947  1
  O  O400  1  0.88387211  0.50411076  0.98939013  1
  O  O401  1  0.87431668  0.99727796  0.48793205  1
  O  O402  1  0.87201353  0.98805100  1.00750189  1
  O  O403  1  0.12429592  0.01449427  0.00121547  1
  O  O404  1  0.11512351  -0.01250811  0.49687703  1
  O  O405  1  0.11178476  0.50866233  -0.00076664  1
  O  O406  1  0.12675178  0.49451280  0.50767359  1
  O  O407  1  0.62306702  0.00826394  0.00622514  1
  O  O408  1  0.62471089  0.01495698  0.50168951  1
  O  O409  1  0.62012507  0.50516540  0.00554633  1
  O  O410  1  0.62470233  0.50144256  0.51706130  1
  O  O411  1  0.36834017  0.37774507  0.11032877  1
  O  O412  1  0.38032663  0.36209587  0.61856016  1
  O  O413  1  0.36375667  0.87913412  0.12386581  1
  O  O414  1  0.38009290  0.87415733  0.61180273  1
  O  O415  1  0.88022919  0.36822943  0.12320795  1
  O  O416  1  0.87274268  0.36775050  0.62350193  1
  O  O417  1  0.87121297  0.86905162  0.12082129  1
  O  O418  1  0.87107658  0.86875902  0.61983965  1
  O  O419  1  0.14194855  0.12763038  0.37221169  1
  O  O420  1  0.12350559  0.12941676  0.88250797  1
  O  O421  1  0.11010474  0.61291422  0.38971771  1
  O  O422  1  0.12681369  0.63327344  0.88020044  1
  O  O423  1  0.62578489  0.13263409  0.38266502  1
  O  O424  1  0.63152710  0.13062821  0.88182320  1
  O  O425  1  0.62457708  0.63161286  0.38102836  1
  O  O426  1  0.61670798  0.62462953  0.89105109  1
