# generated using pymatgen
data_V85Zn86O256
_symmetry_space_group_name_H-M   'P 1'
_cell_length_a   16.91392335
_cell_length_b   16.92189878
_cell_length_c   16.91866454
_cell_angle_alpha   90.08436898
_cell_angle_beta   90.00661111
_cell_angle_gamma   90.08817598
_symmetry_Int_Tables_number   1
_chemical_formula_structural   V85Zn86O256
_chemical_formula_sum   'V85 Zn86 O256'
_cell_volume   4842.37637978
_cell_formula_units_Z   1
loop_
 _symmetry_equiv_pos_site_id
 _symmetry_equiv_pos_as_xyz
  1  'x, y, z'
loop_
 _atom_site_type_symbol
 _atom_site_label
 _atom_site_symmetry_multiplicity
 _atom_site_fract_x
 _atom_site_fract_y
 _atom_site_fract_z
 _atom_site_occupancy
  V  V0  1  0.87401927  0.00011320  0.37701377  1
  V  V1  1  0.19224254  0.82640131  0.68264740  1
  V  V2  1  0.74751056  0.87374017  0.63240938  1
  V  V3  1  0.86930776  0.12199342  0.24773496  1
  V  V4  1  0.75079864  0.36878670  0.12166022  1
  V  V5  1  0.62816226  0.62672404  0.00269620  1
  V  V6  1  0.12075820  0.25012268  0.38660975  1
  V  V7  1  0.11978274  0.36983833  0.76322151  1
  V  V8  1  0.37320098  0.00135934  0.37438887  1
  V  V9  1  0.24467711  0.00283531  0.74967108  1
  V  V10  1  0.38674072  0.62417051  0.74028478  1
  V  V11  1  0.88269363  0.49809259  0.87141962  1
  V  V12  1  0.12288102  0.62707061  -0.00125406  1
  V  V13  1  0.11938436  0.13169870  -0.00651428  1
  V  V14  1  0.88846222  0.87705292  0.00362417  1
  V  V15  1  0.75782788  0.50436153  0.74772708  1
  V  V16  1  0.37993132  0.87646597  0.00040213  1
  V  V17  1  0.49995907  0.62921994  0.13783288  1
  V  V18  1  0.49953165  0.24925573  0.25003696  1
  V  V19  1  0.36689594  0.37463608  0.00067895  1
  V  V20  1  0.24785515  0.74951912  0.48789111  1
  V  V21  1  0.00337844  0.12596534  0.61947185  1
  V  V22  1  0.62919013  0.25055559  0.38046343  1
  V  V23  1  -0.00035570  0.49378975  0.00132974  1
  V  V24  1  0.25101845  0.49664331  0.74980483  1
  V  V25  1  0.88674475  0.00361242  0.87325544  1
  V  V26  1  0.24382192  0.00505224  0.24843630  1
  V  V27  1  0.24381744  0.12984451  0.38828677  1
  V  V28  1  0.50259228  0.37767491  0.87651538  1
  V  V29  1  0.25204042  0.75072321  -0.00152529  1
  V  V30  1  0.25307818  0.62678074  0.87395819  1
  V  V31  1  0.62177069  0.74959607  0.36678854  1
  V  V32  1  0.87622728  0.74679002  0.64074368  1
  V  V33  1  0.49978802  0.50102799  0.50437238  1
  V  V34  1  0.75586341  0.12851743  0.87949648  1
  V  V35  1  0.87355911  0.24315191  0.62599647  1
  V  V36  1  0.62766481  0.88467157  0.24956829  1
  V  V37  1  0.24924702  0.14020848  0.88143756  1
  V  V38  1  0.12459379  0.37342494  0.24979740  1
  V  V39  1  0.37067520  0.87544046  0.50677014  1
  V  V40  1  -0.00103167  0.24570969  0.75982386  1
  V  V41  1  0.37903332  0.75139507  0.13457443  1
  V  V42  1  -0.00642667  0.62547236  0.63381577  1
  V  V43  1  0.75128911  0.36999786  0.62045354  1
  V  V44  1  0.74751886  0.12027996  0.37368078  1
  V  V45  1  0.50019984  0.12500906  0.62540703  1
  V  V46  1  0.63063013  0.12839797  0.50499710  1
  V  V47  1  0.11980040  0.49435874  0.62162877  1
  V  V48  1  0.62288522  -0.00412363  0.63301788  1
  V  V49  1  0.75865374  0.62712001  0.87385117  1
  V  V50  1  0.50045462  0.50112365  0.00445138  1
  V  V51  1  -0.00160610  0.25341809  0.24958971  1
  V  V52  1  0.62473933  0.50259476  0.62567319  1
  V  V53  1  0.87409246  0.36884751  -0.00348321  1
  V  V54  1  0.75482042  0.88311705  0.12750988  1
  V  V55  1  0.12600678  0.62232500  0.49231600  1
  V  V56  1  0.00503163  0.86764038  0.85756755  1
  V  V57  1  0.37054721  0.24827677  0.62355287  1
  V  V58  1  0.87468519  0.36806888  0.49421297  1
  V  V59  1  0.75363646  0.75124430  0.49876361  1
  V  V60  1  0.87690900  0.63786872  0.24781136  1
  V  V61  1  0.75866236  0.75166523  0.00814617  1
  V  V62  1  0.75525622  0.00471100  0.75163522  1
  V  V63  1  0.62186849  0.62812084  0.50431860  1
  V  V64  1  0.36846166  0.25013880  0.12296660  1
  V  V65  1  0.24540174  0.36934787  0.62046515  1
  V  V66  1  0.62694685  0.37672764  0.75004094  1
  V  V67  1  0.36775433  0.50539410  0.37471745  1
  V  V68  1  -0.00401892  0.49598157  0.49282981  1
  V  V69  1  -0.00024082  0.11842995  0.12232851  1
  V  V70  1  0.12913253  0.00533955  0.61886391  1
  V  V71  1  0.11500415  0.87276467  0.24802872  1
  V  V72  1  -0.00328711  0.63710450  0.12837061  1
  V  V73  1  0.63114863  0.25146404  0.88530846  1
  V  V74  1  0.87227859  0.49411427  0.36337246  1
  V  V75  1  0.63204457  0.37841279  0.25335454  1
  V  V76  1  0.37347872  0.00113114  0.87554582  1
  V  V77  1  0.50148472  0.25148570  0.75071951  1
  V  V78  1  0.62445461  0.75625409  0.87210309  1
  V  V79  1  0.49635842  0.87068665  0.36925481  1
  V  V80  1  0.74909521  0.61966127  0.36718112  1
  V  V81  1  0.24945250  0.87660639  0.12465525  1
  V  V82  1  0.11448065  0.74627799  0.36719248  1
  V  V83  1  0.37299709  0.36886868  0.49840955  1
  V  V84  1  0.63356721  0.50254418  0.13218444  1
  Zn  Zn85  1  0.87637683  0.87706447  0.50118426  1
  Zn  Zn86  1  0.62761720  0.12334783  0.00332824  1
  Zn  Zn87  1  0.12042102  -0.00171266  0.11649072  1
  Zn  Zn88  1  0.50138252  -0.00008414  0.49955762  1
  Zn  Zn89  1  0.37390009  0.12603360  0.75113526  1
  Zn  Zn90  1  0.51681346  0.75541041  0.72957932  1
  Zn  Zn91  1  0.00563785  0.00084616  0.49646103  1
  Zn  Zn92  1  0.50765530  0.88171017  0.86884065  1
  Zn  Zn93  1  0.87138775  0.24636706  0.12007286  1
  Zn  Zn94  1  0.24590243  0.37525257  0.12344293  1
  Zn  Zn95  1  0.12541335  0.75324039  0.86221802  1
  Zn  Zn96  1  0.62419173  0.00404684  0.12315283  1
  Zn  Zn97  1  0.24722334  0.50417753  0.24855462  1
  Zn  Zn98  1  0.36893923  0.63468107  0.26130961  1
  Zn  Zn99  1  0.12434933  0.49951841  0.12699851  1
  Zn  Zn100  1  0.37864507  0.50304733  0.87616820  1
  Zn  Zn101  1  0.50273540  0.00480761  0.00176010  1
  Zn  Zn102  1  0.49956686  0.37445146  0.37570468  1
  Zn  Zn103  1  0.50104704  0.12411119  0.12137360  1
  Zn  Zn104  1  0.38494811  0.74700192  0.62034627  1
  Zn  Zn105  1  0.37233430  0.12820274  0.24889191  1
  Zn  Zn106  1  -0.00540798  0.87302719  0.37367331  1
  Zn  Zn107  1  0.18456443  0.18842727  0.18559250  1
  Zn  Zn108  1  0.18549561  0.18619658  0.69063926  1
  Zn  Zn109  1  0.19026844  0.68390794  0.18845075  1
  Zn  Zn110  1  0.19139332  0.66579609  0.67890350  1
  Zn  Zn111  1  0.68645235  0.18772803  0.18848404  1
  Zn  Zn112  1  0.68952059  0.18675308  0.69432503  1
  Zn  Zn113  1  0.69065097  0.69215729  0.18903969  1
  Zn  Zn114  1  0.69222937  0.68568087  0.68856463  1
  Zn  Zn115  1  0.30820637  0.31368172  0.31222753  1
  Zn  Zn116  1  0.31577005  0.31631788  0.81081503  1
  Zn  Zn117  1  0.30487943  0.81574547  0.31284738  1
  Zn  Zn118  1  0.32862871  0.80943472  0.81244988  1
  Zn  Zn119  1  0.80875182  0.30745821  0.31099606  1
  Zn  Zn120  1  0.81554650  0.31425547  0.81034231  1
  Zn  Zn121  1  0.80982065  0.81338108  0.31203971  1
  Zn  Zn122  1  0.81211311  0.81792332  0.81601888  1
  Zn  Zn123  1  0.18658525  0.43096415  0.43552536  1
  Zn  Zn124  1  0.18807373  0.44204768  0.93796008  1
  Zn  Zn125  1  0.18620465  0.93438982  0.43566837  1
  Zn  Zn126  1  0.18403659  0.94264973  0.93729671  1
  Zn  Zn127  1  0.69032498  0.43808848  0.43887090  1
  Zn  Zn128  1  0.69091507  0.44004236  0.93922157  1
  Zn  Zn129  1  0.68675578  0.93859640  0.44201095  1
  Zn  Zn130  1  0.69304174  0.93912362  0.94074562  1
  Zn  Zn131  1  0.31128167  0.06594708  0.06110511  1
  Zn  Zn132  1  0.31107521  0.06113096  0.56298769  1
  Zn  Zn133  1  0.31118892  0.56181193  0.06910984  1
  Zn  Zn134  1  0.30829682  0.55892814  0.55959790  1
  Zn  Zn135  1  0.81330230  0.05894535  0.05751210  1
  Zn  Zn136  1  0.81085602  0.06419320  0.56144763  1
  Zn  Zn137  1  0.81568851  0.56017958  0.06343084  1
  Zn  Zn138  1  0.81292857  0.56247184  0.55838520  1
  Zn  Zn139  1  0.44092654  0.43495947  0.18922493  1
  Zn  Zn140  1  0.43730552  0.43830611  0.68606503  1
  Zn  Zn141  1  0.43899110  0.94000289  0.18984302  1
  Zn  Zn142  1  0.43766866  0.93561424  0.69284566  1
  Zn  Zn143  1  0.94017254  0.43830833  0.18435299  1
  Zn  Zn144  1  0.93842699  0.43327164  0.68537165  1
  Zn  Zn145  1  0.93374514  0.93973930  0.18956620  1
  Zn  Zn146  1  0.93675623  0.93857707  0.68483595  1
  Zn  Zn147  1  0.06007181  0.06486761  0.31090415  1
  Zn  Zn148  1  0.06516593  0.06356707  0.80899702  1
  Zn  Zn149  1  0.05824286  0.56100518  0.31185800  1
  Zn  Zn150  1  0.06518463  0.56027142  0.81313269  1
  Zn  Zn151  1  0.55970032  0.06357060  0.31200048  1
  Zn  Zn152  1  0.56392424  0.06561775  0.81450963  1
  Zn  Zn153  1  0.55767837  0.55998927  0.31653147  1
  Zn  Zn154  1  0.56764965  0.56564924  0.81551512  1
  Zn  Zn155  1  0.43958854  0.18595411  0.43704426  1
  Zn  Zn156  1  0.43901034  0.18896404  0.93947104  1
  Zn  Zn157  1  0.43986530  0.68867086  0.44331578  1
  Zn  Zn158  1  0.43902050  0.68613826  0.94078969  1
  Zn  Zn159  1  0.93795372  0.18676417  0.43810058  1
  Zn  Zn160  1  0.93804448  0.18551144  0.93747556  1
  Zn  Zn161  1  0.93652945  0.68279461  0.43972119  1
  Zn  Zn162  1  0.93990236  0.69029949  0.93511936  1
  Zn  Zn163  1  0.06091613  0.30769248  0.06283999  1
  Zn  Zn164  1  0.05642052  0.31203497  0.56292413  1
  Zn  Zn165  1  0.06488214  0.81161068  0.05956191  1
  Zn  Zn166  1  0.05319678  0.80973284  0.55526589  1
  Zn  Zn167  1  0.55925329  0.31325304  0.06615063  1
  Zn  Zn168  1  0.56057036  0.31325598  0.56241289  1
  Zn  Zn169  1  0.56442956  0.81455705  0.06126779  1
  Zn  Zn170  1  0.56095492  0.81513530  0.55758156  1
  O  O171  1  0.11655755  0.12421460  0.11696010  1
  O  O172  1  0.11772056  0.11742342  0.62731379  1
  O  O173  1  0.11353813  0.62494620  0.11661236  1
  O  O174  1  0.11612111  0.61349748  0.61162600  1
  O  O175  1  0.62332970  0.12408755  0.12289694  1
  O  O176  1  0.62171444  0.12180455  0.62094188  1
  O  O177  1  0.62038365  0.62097437  0.12422776  1
  O  O178  1  0.63560426  0.61676064  0.61402059  1
  O  O179  1  0.37473806  0.38023427  0.38540309  1
  O  O180  1  0.38424907  0.37875610  0.88233429  1
  O  O181  1  0.37917294  0.88082642  0.37857946  1
  O  O182  1  0.37152222  0.88473192  0.88613568  1
  O  O183  1  0.86289325  0.38036232  0.38318911  1
  O  O184  1  0.86888117  0.38691262  0.88327758  1
  O  O185  1  0.87245263  0.88642608  0.37385237  1
  O  O186  1  0.88799033  0.88035786  0.87983422  1
  O  O187  1  0.25136055  0.01012776  0.36963975  1
  O  O188  1  0.25791843  0.00659132  0.86874583  1
  O  O189  1  0.26525627  0.49678020  0.37967220  1
  O  O190  1  0.25289353  0.51163267  0.86937218  1
  O  O191  1  0.75337763  0.01283814  0.37979296  1
  O  O192  1  0.75938433  0.00410323  0.86711035  1
  O  O193  1  0.75768179  0.51039844  0.37920426  1
  O  O194  1  0.75874268  0.50755798  0.86824062  1
  O  O195  1  0.24238055  0.49444989  0.12708384  1
  O  O196  1  0.24129223  0.49007476  0.62993791  1
  O  O197  1  0.25121746  0.99432719  0.13371831  1
  O  O198  1  0.24317420  1.00519459  0.63506585  1
  O  O199  1  0.73787813  0.49477743  0.12359070  1
  O  O200  1  0.74864512  0.49405102  0.63144165  1
  O  O201  1  0.74808265  0.98656339  0.12168966  1
  O  O202  1  0.74585019  0.99457400  0.63190760  1
  O  O203  1  0.00190853  0.36000251  0.24563010  1
  O  O204  1  0.01327001  0.36613929  0.74518547  1
  O  O205  1  0.01123275  0.87851435  0.25032038  1
  O  O206  1  -0.00130089  0.87271585  0.75894086  1
  O  O207  1  0.51223654  0.36562051  0.25286610  1
  O  O208  1  0.50622129  0.37274940  0.75539641  1
  O  O209  1  0.50712233  0.87580816  0.26261923  1
  O  O210  1  0.48097892  0.85932391  0.76098005  1
  O  O211  1  0.49653052  0.13919648  0.25221088  1
  O  O212  1  0.49846403  0.13405191  0.74335639  1
  O  O213  1  0.49394758  0.62283603  0.24075436  1
  O  O214  1  0.48863769  0.62533564  0.75422833  1
  O  O215  1  0.99284277  0.13373815  0.24248272  1
  O  O216  1  1.00610429  0.13985204  0.74089531  1
  O  O217  1  0.99491396  0.62265093  0.23565617  1
  O  O218  1  1.00752386  0.61779037  0.73283104  1
  O  O219  1  0.38310656  0.26358332  0.00964573  1
  O  O220  1  0.38113529  0.26062700  0.50734685  1
  O  O221  1  0.37086071  0.75770669  0.00554773  1
  O  O222  1  0.36375964  0.75461932  0.50032732  1
  O  O223  1  0.88075318  0.26480515  -0.00076392  1
  O  O224  1  0.87876128  0.26036717  0.50693199  1
  O  O225  1  0.86742292  0.76131848  -0.00796420  1
  O  O226  1  0.86142732  0.74802324  0.50204894  1
  O  O227  1  0.11970196  0.25355747  0.48577730  1
  O  O228  1  0.12646459  0.23306909  1.00400609  1
  O  O229  1  0.12879664  0.74112845  0.49301483  1
  O  O230  1  0.13235603  0.73867465  0.99654969  1
  O  O231  1  0.61945666  0.24236028  0.49305503  1
  O  O232  1  0.62408822  0.25659443  0.98732870  1
  O  O233  1  0.63527260  0.74370878  0.49127836  1
  O  O234  1  0.63610544  0.74471407  0.99306976  1
  O  O235  1  0.49084118  0.25156725  0.13517313  1
  O  O236  1  0.49073947  0.24726921  0.63058473  1
  O  O237  1  0.49239567  0.74085155  0.11806870  1
  O  O238  1  0.49998891  0.74493328  0.61780462  1
  O  O239  1  0.99377884  0.23864403  0.13262647  1
  O  O240  1  0.99309774  0.24396926  0.63104578  1
  O  O241  1  0.99918136  0.73561299  0.11815063  1
  O  O242  1  0.98778111  0.73895353  0.61965486  1
  O  O243  1  0.01359267  0.23949435  0.36646547  1
  O  O244  1  -0.00335866  0.24728902  0.85889233  1
  O  O245  1  0.01063048  0.74932761  0.37909969  1
  O  O246  1  0.00436877  0.76184452  0.87128439  1
  O  O247  1  0.51033900  0.25217415  0.36983221  1
  O  O248  1  0.50847137  0.25816276  0.86861525  1
  O  O249  1  0.50928651  0.75786137  0.38126174  1
  O  O250  1  0.52089870  0.74350299  0.88130673  1
  O  O251  1  0.25032262  0.12442100  0.48652414  1
  O  O252  1  0.24471033  0.12829191  0.98685824  1
  O  O253  1  0.23766947  0.63426835  0.50785001  1
  O  O254  1  0.24376581  0.62777229  0.99276405  1
  O  O255  1  0.73700011  0.12580994  0.49471875  1
  O  O256  1  0.74990782  0.12362067  0.98427685  1
  O  O257  1  0.74128211  0.63019661  0.49001389  1
  O  O258  1  0.74982705  0.63236628  0.99622925  1
  O  O259  1  0.26351940  0.38014906  -0.00203875  1
  O  O260  1  0.25697676  0.37673053  0.51274231  1
  O  O261  1  0.25791792  0.87164793  0.00468065  1
  O  O262  1  0.25836195  0.86406618  0.49311312  1
  O  O263  1  0.76024843  0.38219335  0.00978391  1
  O  O264  1  0.75686739  0.37893073  0.51346922  1
  O  O265  1  0.76100574  0.86788608  0.00615000  1
  O  O266  1  0.75123211  0.86669146  0.50955866  1
  O  O267  1  0.11873279  0.48355581  0.25438106  1
  O  O268  1  0.12839578  0.48699906  0.74392116  1
  O  O269  1  0.13009145  0.99355596  0.24687898  1
  O  O270  1  0.13742492  0.99949581  0.74208569  1
  O  O271  1  0.61840480  0.49163611  0.24427017  1
  O  O272  1  0.63319756  0.49628631  0.74550373  1
  O  O273  1  0.62432546  0.98747674  0.25324098  1
  O  O274  1  0.63204520  1.00393689  0.73930962  1
  O  O275  1  0.36486744  -0.00060581  0.26216017  1
  O  O276  1  0.36279038  0.00388773  0.75634913  1
  O  O277  1  0.37986691  0.49465677  0.26916960  1
  O  O278  1  0.37136632  0.50778592  0.75200020  1
  O  O279  1  0.87689339  0.01387837  0.26122545  1
  O  O280  1  0.86608785  -0.00477033  0.75831056  1
  O  O281  1  0.88123782  0.50506177  0.26104986  1
  O  O282  1  0.86953963  0.49275075  0.75764736  1
  O  O283  1  0.12862577  0.35750974  0.36888823  1
  O  O284  1  0.12920190  0.37751163  0.86154747  1
  O  O285  1  0.12287907  0.86540870  0.36522777  1
  O  O286  1  0.10956179  0.87458592  0.87879626  1
  O  O287  1  0.62714572  0.36829274  0.37093942  1
  O  O288  1  0.62385875  0.37205113  0.86978474  1
  O  O289  1  0.61942977  0.86944401  0.37127920  1
  O  O290  1  0.62779858  0.85974800  0.87914564  1
  O  O291  1  0.37629719  0.13529741  0.12791521  1
  O  O292  1  0.38007424  0.13323092  0.62436242  1
  O  O293  1  0.38489417  0.63537341  0.12326655  1
  O  O294  1  0.37063618  0.62007923  0.63724050  1
  O  O295  1  0.87707133  0.12479604  0.13072437  1
  O  O296  1  0.87799818  0.13766009  0.62276787  1
  O  O297  1  0.88633138  0.62007063  0.13275025  1
  O  O298  1  0.88105461  0.63269243  0.61991345  1
  O  O299  1  0.26422354  0.25438426  0.13226100  1
  O  O300  1  0.26161120  0.25446977  0.63122999  1
  O  O301  1  0.25857995  0.75682387  0.11760652  1
  O  O302  1  0.24448773  0.75966520  0.61985705  1
  O  O303  1  0.75173282  0.26457561  0.12808233  1
  O  O304  1  0.75911779  0.25928341  0.63545911  1
  O  O305  1  0.74754182  0.75814357  0.11314266  1
  O  O306  1  0.75324847  0.75636206  0.61904613  1
  O  O307  1  0.23927232  0.23694497  0.37048133  1
  O  O308  1  0.25407079  0.23822107  0.86893995  1
  O  O309  1  0.23860842  0.74892318  0.38317704  1
  O  O310  1  0.25085796  0.74029889  0.87789127  1
  O  O311  1  0.73638963  0.23894632  0.37381804  1
  O  O312  1  0.74332761  0.24162358  0.86359169  1
  O  O313  1  0.74307680  0.74294589  0.38196593  1
  O  O314  1  0.74485239  0.74444702  0.88192495  1
  O  O315  1  0.01005559  0.12682162  0.00519945  1
  O  O316  1  -0.00325201  0.12286559  0.51464348  1
  O  O317  1  0.00479482  0.61967761  0.00609125  1
  O  O318  1  0.00554558  0.61498093  0.50647737  1
  O  O319  1  0.50660766  0.12470875  0.00085899  1
  O  O320  1  0.50984440  0.12212604  0.50681421  1
  O  O321  1  0.50613818  0.61505879  0.00809103  1
  O  O322  1  0.51437184  0.61717345  0.49575035  1
  O  O323  1  0.49035619  0.38233442  0.50005946  1
  O  O324  1  0.49688354  0.38761225  0.99816198  1
  O  O325  1  0.49194617  0.88000602  0.48600153  1
  O  O326  1  0.48849837  0.87505965  0.99364156  1
  O  O327  1  0.98745405  0.38365886  0.50314141  1
  O  O328  1  0.99386537  0.38670742  1.00520637  1
  O  O329  1  0.99371133  0.88181237  0.49330816  1
  O  O330  1  0.99104039  0.87192652  0.99519597  1
  O  O331  1  0.49250151  0.49483300  0.38873107  1
  O  O332  1  0.50359229  0.49646302  0.88601431  1
  O  O333  1  0.48832012  0.99531166  0.37569830  1
  O  O334  1  0.48489938  1.00199578  0.87191988  1
  O  O335  1  0.98823098  0.50298674  0.38547117  1
  O  O336  1  0.98939796  0.50729955  0.88249426  1
  O  O337  1  0.98921928  1.00272611  0.37676223  1
  O  O338  1  0.99222560  0.99188535  0.86603968  1
  O  O339  1  -0.00067837  0.01427519  0.12951572  1
  O  O340  1  0.00859830  0.00922394  0.62775550  1
  O  O341  1  0.00285748  0.50952615  0.11467326  1
  O  O342  1  0.00133520  0.50263117  0.61361358  1
  O  O343  1  0.50251278  0.00334950  0.12365306  1
  O  O344  1  0.50669230  0.00571567  0.62659783  1
  O  O345  1  0.50927904  0.50687169  0.12135512  1
  O  O346  1  0.50643660  0.49589421  0.61271308  1
  O  O347  1  0.23835083  0.38005966  0.24962886  1
  O  O348  1  0.24097484  0.37668877  0.74167771  1
  O  O349  1  0.23976218  0.88619225  0.24581593  1
  O  O350  1  0.25520544  0.87956614  0.74611933  1
  O  O351  1  0.73852529  0.37367508  0.24372812  1
  O  O352  1  0.74711500  0.38569247  0.74089962  1
  O  O353  1  0.74133659  0.86880760  0.23942286  1
  O  O354  1  0.75071484  0.88394384  0.73943179  1
  O  O355  1  0.24865299  0.11449220  0.25487341  1
  O  O356  1  0.24989363  0.11916506  0.76221257  1
  O  O357  1  0.25799178  0.61797610  0.24596327  1
  O  O358  1  0.25775837  0.61500557  0.75636307  1
  O  O359  1  0.75786121  0.12973909  0.25990644  1
  O  O360  1  0.74850641  0.11237794  0.75985536  1
  O  O361  1  0.75722289  0.62812974  0.25928300  1
  O  O362  1  0.74960393  0.61207964  0.75807165  1
  O  O363  1  0.36324200  0.11971749  0.37378900  1
  O  O364  1  0.36379041  0.12089111  0.87575729  1
  O  O365  1  0.38145811  0.60964972  0.37917765  1
  O  O366  1  0.36931500  0.62476241  0.86671489  1
  O  O367  1  0.86565787  0.12237468  0.37035256  1
  O  O368  1  0.87088560  0.11479023  0.87682440  1
  O  O369  1  0.86795733  0.61710547  0.36825771  1
  O  O370  1  0.86509006  0.61777484  0.88026549  1
  O  O371  1  0.12417016  0.37393362  0.13428625  1
  O  O372  1  0.13081883  0.37634190  0.62800168  1
  O  O373  1  0.13078796  0.87617847  0.12957165  1
  O  O374  1  0.12348664  0.87853916  0.62711163  1
  O  O375  1  0.63092919  0.38265603  0.13179307  1
  O  O376  1  0.63321728  0.38045053  0.62835090  1
  O  O377  1  0.63230228  0.87380213  0.13456567  1
  O  O378  1  0.63374677  0.88481792  0.61894272  1
  O  O379  1  0.11754004  0.25657716  0.25534165  1
  O  O380  1  0.11453335  0.26178337  0.74569981  1
  O  O381  1  0.13047687  0.75825571  0.25702945  1
  O  O382  1  0.14222806  0.75777510  0.73990552  1
  O  O383  1  0.61914179  0.25747466  0.25882554  1
  O  O384  1  0.61859673  0.25884213  0.75538264  1
  O  O385  1  0.62768996  0.75751858  0.26279861  1
  O  O386  1  0.62900579  0.74133060  0.76733158  1
  O  O387  1  0.38341205  0.25374907  0.24536374  1
  O  O388  1  0.38390838  0.25102540  0.74145505  1
  O  O389  1  0.37158759  0.75470081  0.23845936  1
  O  O390  1  0.36985175  0.73095306  0.74107481  1
  O  O391  1  0.88118079  0.23930699  0.25064815  1
  O  O392  1  0.89112037  0.26021173  0.74006988  1
  O  O393  1  0.87624462  0.73715893  0.25645729  1
  O  O394  1  0.86487582  0.74880578  0.73993030  1
  O  O395  1  0.38033653  0.49245308  0.49483297  1
  O  O396  1  0.38544612  0.49546293  1.00087262  1
  O  O397  1  0.37232757  0.99334748  0.48890469  1
  O  O398  1  0.37412346  0.99290469  0.99267264  1
  O  O399  1  0.87883172  0.49108679  0.49113171  1
  O  O400  1  0.88231527  0.49369760  0.99254370  1
  O  O401  1  0.87350855  1.00167576  0.48787952  1
  O  O402  1  0.87218130  0.98749916  0.98650928  1
  O  O403  1  0.13358737  0.02050158  0.00354890  1
  O  O404  1  0.12768097  -0.00544364  0.51441735  1
  O  O405  1  0.11658377  0.51151664  -0.00310999  1
  O  O406  1  0.11658393  0.50222300  0.49876397  1
  O  O407  1  0.62185624  0.00079022  0.00050377  1
  O  O408  1  0.62429417  0.00888502  0.51350456  1
  O  O409  1  0.62029424  0.50666666  0.00944190  1
  O  O410  1  0.61858012  0.50649418  0.50357087  1
  O  O411  1  0.37594463  0.37093177  0.11688402  1
  O  O412  1  0.36698744  0.36859236  0.61968320  1
  O  O413  1  0.37173058  0.86957399  0.11923768  1
  O  O414  1  0.37826977  0.87615468  0.60890120  1
  O  O415  1  0.86635112  0.37735385  0.11741200  1
  O  O416  1  0.86885873  0.36656767  0.61670285  1
  O  O417  1  0.87022191  0.87947731  0.11572913  1
  O  O418  1  0.86677953  0.86596238  0.62273517  1
  O  O419  1  0.13541656  0.13405613  0.37165532  1
  O  O420  1  0.13543348  0.12373035  0.88285222  1
  O  O421  1  0.11944588  0.62911063  0.38407035  1
  O  O422  1  0.13306350  0.62954203  0.87895947  1
  O  O423  1  0.62887230  0.12922702  0.38256947  1
  O  O424  1  0.63466635  0.13652808  0.87436392  1
  O  O425  1  0.63031860  0.63053800  0.37818930  1
  O  O426  1  0.64015154  0.62919228  0.88375315  1
