# generated using pymatgen
data_V85Zn86O256
_symmetry_space_group_name_H-M   'P 1'
_cell_length_a   16.94647079
_cell_length_b   16.93818649
_cell_length_c   16.95329570
_cell_angle_alpha   90.01962265
_cell_angle_beta   89.99791444
_cell_angle_gamma   89.97585737
_symmetry_Int_Tables_number   1
_chemical_formula_structural   V85Zn86O256
_chemical_formula_sum   'V85 Zn86 O256'
_cell_volume   4866.31536592
_cell_formula_units_Z   1
loop_
 _symmetry_equiv_pos_site_id
 _symmetry_equiv_pos_as_xyz
  1  'x, y, z'
loop_
 _atom_site_type_symbol
 _atom_site_label
 _atom_site_symmetry_multiplicity
 _atom_site_fract_x
 _atom_site_fract_y
 _atom_site_fract_z
 _atom_site_occupancy
  V  V0  1  0.24705806  0.49961945  0.74193328  1
  V  V1  1  0.23906138  0.13120321  0.88056511  1
  V  V2  1  0.62465504  0.49955926  0.12806820  1
  V  V3  1  0.36657322  0.11956990  0.24752222  1
  V  V4  1  0.62976504  0.37669520  0.74820946  1
  V  V5  1  0.49876268  0.62460986  0.12821103  1
  V  V6  1  0.87178765  0.62900663  0.75133154  1
  V  V7  1  0.63365896  0.13765834  0.48595556  1
  V  V8  1  0.25356659  0.74984816  0.51069277  1
  V  V9  1  0.38083032  0.87140624  0.50234478  1
  V  V10  1  0.38215749  0.62655143  0.73254733  1
  V  V11  1  0.76154987  0.13497973  0.36749407  1
  V  V12  1  0.12613750  0.75130360  0.87716455  1
  V  V13  1  0.49803614  0.75781534  0.25731115  1
  V  V14  1  0.37482356  0.12777776  0.75187577  1
  V  V15  1  -0.00108738  -0.01561862  0.49784074  1
  V  V16  1  0.74899829  0.63317964  0.87864341  1
  V  V17  1  0.00081596  0.75102439  0.75235012  1
  V  V18  1  0.36638268  -0.00553279  0.37155788  1
  V  V19  1  0.47596674  0.13893877  0.59972761  1
  V  V20  1  0.87257084  0.12634739  0.74644647  1
  V  V21  1  0.75298514  0.85815176  0.11973204  1
  V  V22  1  0.87320438  0.49530148  0.87577240  1
  V  V23  1  0.25079175  0.75124744  0.00245230  1
  V  V24  1  -0.00488650  0.23360059  0.25232499  1
  V  V25  1  0.38321559  -0.00353751  0.87541853  1
  V  V26  1  0.50480960  0.25025714  0.25073761  1
  V  V27  1  0.61361673  0.62816297  0.50350060  1
  V  V28  1  0.62315473  0.00702481  0.62129418  1
  V  V29  1  0.26193478  0.36091696  0.61522302  1
  V  V30  1  0.87566871  0.86392859  -0.00340317  1
  V  V31  1  0.61913160  0.50554619  0.62517246  1
  V  V32  1  0.62606991  0.12418997  -0.00043890  1
  V  V33  1  0.49959514  0.50051086  0.00149239  1
  V  V34  1  0.49554016  0.75814877  0.73712286  1
  V  V35  1  0.74949774  0.49973514  0.25223095  1
  V  V36  1  0.87390505  0.62933944  0.24813883  1
  V  V37  1  0.00253519  0.61868314  0.62721017  1
  V  V38  1  0.75243598  0.37282654  0.60646620  1
  V  V39  1  0.61474441  0.75905404  0.87575822  1
  V  V40  1  0.37379854  0.49361870  0.38301469  1
  V  V41  1  0.49873262  0.24908378  0.74246004  1
  V  V42  1  -0.00569573  0.63222253  0.12473318  1
  V  V43  1  0.12377551  0.61897455  0.50423692  1
  V  V44  1  0.24779806  0.49919913  0.25177487  1
  V  V45  1  0.12618554  0.87632284  0.75171768  1
  V  V46  1  0.37359525  0.75039971  0.12754090  1
  V  V47  1  0.24572608  0.13757066  0.37963660  1
  V  V48  1  0.00392440  0.12487791  0.62584410  1
  V  V49  1  0.75408356  0.37463127  0.12479548  1
  V  V50  1  0.12149573  0.37113327  0.25710670  1
  V  V51  1  0.24965453  0.37460510  0.12620187  1
  V  V52  1  0.24924510  0.87970510  0.13569655  1
  V  V53  1  0.38146495  0.87372366  -0.00216521  1
  V  V54  1  0.00215012  0.25595400  0.74809343  1
  V  V55  1  0.12108764  0.37953921  0.73856194  1
  V  V56  1  0.50056927  0.37558244  0.87395742  1
  V  V57  1  0.37429746  0.62440168  0.25272346  1
  V  V58  1  0.62815834  -0.00242932  0.12606883  1
  V  V59  1  0.62202715  0.76025301  0.37862278  1
  V  V60  1  0.50211755  0.37093348  0.38287907  1
  V  V61  1  0.12548374  0.62721104  0.00113883  1
  V  V62  1  0.12826500  -0.00197643  0.62227659  1
  V  V63  1  -0.00120697  0.75853300  0.25631336  1
  V  V64  1  0.37455224  0.37336302  -0.00135444  1
  V  V65  1  0.88065251  -0.01407262  0.37711919  1
  V  V66  1  0.74810962  0.62731979  0.38061657  1
  V  V67  1  0.24620295  0.62768655  0.37605666  1
  V  V68  1  0.87433002  0.75558282  0.61819520  1
  V  V69  1  0.74881932  0.00073840  0.74937419  1
  V  V70  1  0.75226516  0.88018691  0.62225868  1
  V  V71  1  0.62695910  0.24993546  0.87472341  1
  V  V72  1  0.25179562  0.00087019  0.75211140  1
  V  V73  1  -0.00013010  0.50450545  -0.00363774  1
  V  V74  1  -0.00620126  0.11623822  0.10119252  1
  V  V75  1  0.62813625  0.63082487  0.00095193  1
  V  V76  1  0.50638788  -0.00481941  0.48432573  1
  V  V77  1  0.05947157  0.32008120  0.92314674  1
  V  V78  1  -0.00042715  0.37658224  0.37999326  1
  V  V79  1  0.49951241  0.12337996  0.12424054  1
  V  V80  1  0.12876452  0.00852492  0.11959697  1
  V  V81  1  0.37362696  0.24810240  0.12201913  1
  V  V82  1  0.87443799  0.49831629  0.38636704  1
  V  V83  1  0.75807698  -0.00006227  0.24949382  1
  V  V84  1  0.37622925  0.50517631  0.87265620  1
  Zn  Zn85  1  0.88113812  -0.00014715  0.87846563  1
  Zn  Zn86  1  0.75047881  0.25171038  0.00065945  1
  Zn  Zn87  1  -0.00023799  0.49535191  0.50659017  1
  Zn  Zn88  1  0.12403473  0.88330134  0.25619156  1
  Zn  Zn89  1  0.12180687  0.50167076  0.12700948  1
  Zn  Zn90  1  0.62843417  0.36836787  0.25428326  1
  Zn  Zn91  1  0.13404410  0.13042594  0.50257800  1
  Zn  Zn92  1  0.50614136  -0.00703228  -0.00518469  1
  Zn  Zn93  1  0.23847737  0.24969199  -0.00323106  1
  Zn  Zn94  1  0.75194532  0.75649492  0.49919724  1
  Zn  Zn95  1  0.87709446  0.26242939  0.61201422  1
  Zn  Zn96  1  0.87019777  0.23887274  0.12304455  1
  Zn  Zn97  1  0.74824214  0.50278383  0.74867663  1
  Zn  Zn98  1  0.87388766  0.37283004  -0.00235197  1
  Zn  Zn99  1  0.25251754  0.62647395  0.87231450  1
  Zn  Zn100  1  0.25729014  0.87154316  0.62789379  1
  Zn  Zn101  1  0.74846474  0.12367958  0.87285651  1
  Zn  Zn102  1  0.61747833  0.88216426  0.75419262  1
  Zn  Zn103  1  0.62403975  0.87732312  0.25342362  1
  Zn  Zn104  1  0.49348913  0.49804891  0.50684798  1
  Zn  Zn105  1  0.00849308  0.88479051  0.89092682  1
  Zn  Zn106  1  0.11777273  0.76019617  0.38257290  1
  Zn  Zn107  1  0.18243506  0.18599452  0.18855282  1
  Zn  Zn108  1  0.18526206  0.18999848  0.69398716  1
  Zn  Zn109  1  0.18228220  0.68983652  0.18857304  1
  Zn  Zn110  1  0.18873249  0.68433274  0.68887902  1
  Zn  Zn111  1  0.68967086  0.18532928  0.18932137  1
  Zn  Zn112  1  0.68725411  0.18830242  0.67897537  1
  Zn  Zn113  1  0.68294035  0.68488002  0.19428284  1
  Zn  Zn114  1  0.68519284  0.69224116  0.68928609  1
  Zn  Zn115  1  0.31729737  0.31068217  0.31073528  1
  Zn  Zn116  1  0.31024584  0.31226244  0.80783465  1
  Zn  Zn117  1  0.31108063  0.81201728  0.32016375  1
  Zn  Zn118  1  0.31465899  0.81132163  0.81251226  1
  Zn  Zn119  1  0.82193554  0.31398313  0.30917271  1
  Zn  Zn120  1  0.81208361  0.31081430  0.80769688  1
  Zn  Zn121  1  0.81074144  0.81284576  0.30823620  1
  Zn  Zn122  1  0.80720140  0.81424729  0.81246312  1
  Zn  Zn123  1  0.18654582  0.43561862  0.44111204  1
  Zn  Zn124  1  0.19401309  0.44497648  0.93788170  1
  Zn  Zn125  1  0.18913878  0.93694383  0.43673987  1
  Zn  Zn126  1  0.19349175  0.93995609  0.94161929  1
  Zn  Zn127  1  0.68067937  0.44032233  0.43619535  1
  Zn  Zn128  1  0.68884055  0.44190350  0.93818555  1
  Zn  Zn129  1  0.69579249  0.94108271  0.43876117  1
  Zn  Zn130  1  0.69518378  0.93633533  0.94022838  1
  Zn  Zn131  1  0.30919753  0.06022360  0.05864278  1
  Zn  Zn132  1  0.31373008  0.06376345  0.55696639  1
  Zn  Zn133  1  0.31125899  0.56222483  0.06278376  1
  Zn  Zn134  1  0.30767220  0.55737941  0.56236339  1
  Zn  Zn135  1  0.81148688  0.05561619  0.05679078  1
  Zn  Zn136  1  0.84968061  0.11080578  0.52226465  1
  Zn  Zn137  1  0.81175303  0.56365382  0.06233410  1
  Zn  Zn138  1  0.80671074  0.56425775  0.56587929  1
  Zn  Zn139  1  0.43615527  0.43564534  0.19258926  1
  Zn  Zn140  1  0.43636560  0.43502397  0.68612942  1
  Zn  Zn141  1  0.43815993  0.93831562  0.18613376  1
  Zn  Zn142  1  0.43981102  0.94554166  0.68010279  1
  Zn  Zn143  1  0.93583396  0.44266824  0.18964225  1
  Zn  Zn144  1  0.93251622  0.43880438  0.68956326  1
  Zn  Zn145  1  0.93373703  0.94193913  0.17980059  1
  Zn  Zn146  1  0.93891651  0.93866963  0.69318125  1
  Zn  Zn147  1  0.06621598  0.05347292  0.31192957  1
  Zn  Zn148  1  0.06048914  0.06273884  0.81476213  1
  Zn  Zn149  1  0.06203258  0.56306962  0.31420716  1
  Zn  Zn150  1  0.06269047  0.56192164  0.81375436  1
  Zn  Zn151  1  0.56401199  0.06404651  0.30987696  1
  Zn  Zn152  1  0.55957058  0.06655163  0.80880896  1
  Zn  Zn153  1  0.56111558  0.56250976  0.31645296  1
  Zn  Zn154  1  0.56090936  0.56691447  0.81108567  1
  Zn  Zn155  1  0.43901594  0.18339143  0.43084693  1
  Zn  Zn156  1  0.43865380  0.18631527  0.93578870  1
  Zn  Zn157  1  0.43522514  0.68788804  0.43811902  1
  Zn  Zn158  1  0.44071733  0.68867118  0.93632989  1
  Zn  Zn159  1  0.98089305  0.20972853  0.45758109  1
  Zn  Zn160  1  0.92644456  0.18485232  0.93675321  1
  Zn  Zn161  1  0.93693855  0.68662878  0.43816452  1
  Zn  Zn162  1  0.93507376  0.69477258  0.93894867  1
  Zn  Zn163  1  0.06020342  0.31050138  0.08629171  1
  Zn  Zn164  1  0.07438220  0.31131604  0.56297963  1
  Zn  Zn165  1  0.06166362  0.81577695  0.06948755  1
  Zn  Zn166  1  0.06713132  0.80681273  0.56710015  1
  Zn  Zn167  1  0.56475195  0.31269443  0.06504177  1
  Zn  Zn168  1  0.56779399  0.31374323  0.55977108  1
  Zn  Zn169  1  0.56305562  0.81112539  0.06653167  1
  Zn  Zn170  1  0.56485884  0.81747193  0.56442936  1
  O  O171  1  0.11695938  0.11575116  0.12188628  1
  O  O172  1  0.12026275  0.11626439  0.62949537  1
  O  O173  1  0.11598624  0.62274035  0.11809538  1
  O  O174  1  0.11365074  0.63012619  0.62002877  1
  O  O175  1  0.62169222  0.11749658  0.11784704  1
  O  O176  1  0.62480215  0.11846505  0.60768505  1
  O  O177  1  0.62004620  0.62110670  0.11884913  1
  O  O178  1  0.63330671  0.61767596  0.61610451  1
  O  O179  1  0.38539933  0.38375584  0.36846151  1
  O  O180  1  0.38088336  0.38553759  0.87565407  1
  O  O181  1  0.37193129  0.88360387  0.38634833  1
  O  O182  1  0.36774145  0.88350935  0.88566567  1
  O  O183  1  0.88489075  0.38805146  0.36956566  1
  O  O184  1  0.86616130  0.39189730  0.87334290  1
  O  O185  1  0.86959593  0.88662695  0.37567425  1
  O  O186  1  0.87469859  0.86995839  0.88542789  1
  O  O187  1  0.26417615  0.00876223  0.37771214  1
  O  O188  1  0.25944313  0.01045980  0.87231392  1
  O  O189  1  0.25526827  0.50794599  0.37245653  1
  O  O190  1  0.26111765  0.50209617  0.86371376  1
  O  O191  1  0.76003722  0.00084025  0.36537769  1
  O  O192  1  0.74289025  0.00222758  0.85848766  1
  O  O193  1  0.75416259  0.50692495  0.37192900  1
  O  O194  1  0.75530618  0.51421920  0.87368840  1
  O  O195  1  0.25110597  0.48834389  0.13099306  1
  O  O196  1  0.25330518  0.49136753  0.63807952  1
  O  O197  1  0.24098855  0.99389701  0.12385129  1
  O  O198  1  0.23963730  1.00092254  0.63026152  1
  O  O199  1  0.74379113  0.49606008  0.13141912  1
  O  O200  1  0.73933867  0.49053336  0.62698616  1
  O  O201  1  0.74030896  0.99665654  0.13144484  1
  O  O202  1  0.73972149  0.99578492  0.63633042  1
  O  O203  1  0.00814060  0.37737394  0.25361234  1
  O  O204  1  0.00657734  0.37053417  0.74512927  1
  O  O205  1  -0.00679793  0.85876576  0.23900108  1
  O  O206  1  0.01554939  0.86741094  0.74878798  1
  O  O207  1  0.50119521  0.36579876  0.25704489  1
  O  O208  1  0.51021110  0.36884240  0.75300489  1
  O  O209  1  0.50209450  0.86106583  0.24472228  1
  O  O210  1  0.49619777  0.86350936  0.74435259  1
  O  O211  1  0.49111196  0.13086258  0.24429594  1
  O  O212  1  0.49287592  0.13377107  0.73918768  1
  O  O213  1  0.49429402  0.63174638  0.24642677  1
  O  O214  1  0.48698289  0.63215028  0.74999190  1
  O  O215  1  1.00230485  0.13384373  0.25329280  1
  O  O216  1  0.99630135  0.13397266  0.74370605  1
  O  O217  1  0.99177744  0.62872867  0.24343504  1
  O  O218  1  0.99346671  0.63113390  0.74648251  1
  O  O219  1  0.37716874  0.25746321  0.00550378  1
  O  O220  1  0.40650762  0.18678440  0.53904826  1
  O  O221  1  0.37078199  0.75418761  0.00530692  1
  O  O222  1  0.36831407  0.75880019  0.49637943  1
  O  O223  1  0.86955259  0.25588895  0.00431493  1
  O  O224  1  0.88117883  0.22034262  0.50721168  1
  O  O225  1  0.86470375  0.76211710  -0.00226196  1
  O  O226  1  0.87274821  0.74512429  0.51483510  1
  O  O227  1  0.08979503  0.23272611  0.48851436  1
  O  O228  1  0.11612246  0.26657440  0.98919540  1
  O  O229  1  0.13408167  0.73955561  0.49989917  1
  O  O230  1  0.12925857  0.74831584  0.99532312  1
  O  O231  1  0.62608334  0.23593137  0.49640090  1
  O  O232  1  0.62391499  0.24317334  0.99143898  1
  O  O233  1  0.62624648  0.74501839  0.49527434  1
  O  O234  1  0.61363112  0.73782912  0.99221969  1
  O  O235  1  0.49375505  0.24375489  0.12962602  1
  O  O236  1  0.51450379  0.24478223  0.63581339  1
  O  O237  1  0.49328489  0.74260019  0.13388793  1
  O  O238  1  0.50498603  0.74897486  0.63861849  1
  O  O239  1  0.99816277  0.22945199  0.13191989  1
  O  O240  1  0.99910419  0.24256294  0.63411425  1
  O  O241  1  1.00123582  0.73696391  0.13426657  1
  O  O242  1  0.99206368  0.74218589  0.63364524  1
  O  O243  1  -0.00737899  0.26352665  0.35560001  1
  O  O244  1  -0.00331677  0.25657895  0.87093478  1
  O  O245  1  -0.00167468  0.74560104  0.36089901  1
  O  O246  1  0.01305449  0.75383750  0.87128537  1
  O  O247  1  0.49043595  0.26232208  0.36650638  1
  O  O248  1  0.50986665  0.25446180  0.86574367  1
  O  O249  1  0.50848634  0.74445229  0.36771699  1
  O  O250  1  0.50781035  0.74489059  0.86298043  1
  O  O251  1  0.25062962  0.12611910  0.48512097  1
  O  O252  1  0.25286045  0.12978627  0.98586076  1
  O  O253  1  0.24444669  0.62889473  0.49556264  1
  O  O254  1  0.24427382  0.63256338  0.99931779  1
  O  O255  1  0.73966580  0.11794761  0.48077618  1
  O  O256  1  0.73664688  0.12698659  0.99700681  1
  O  O257  1  0.74187953  0.62789488  0.49003313  1
  O  O258  1  0.73845401  0.62272339  0.99357455  1
  O  O259  1  0.25583322  0.37397953  0.00745142  1
  O  O260  1  0.24628576  0.37594207  0.51591654  1
  O  O261  1  0.26108747  0.86832539  0.01081427  1
  O  O262  1  0.25836491  0.86485597  0.50262712  1
  O  O263  1  0.74840675  0.37561063  0.01007830  1
  O  O264  1  0.74483011  0.37712955  0.50786130  1
  O  O265  1  0.74904487  0.86681067  0.01445769  1
  O  O266  1  0.74756545  0.87502385  0.51762159  1
  O  O267  1  0.13259867  0.49496759  0.24874964  1
  O  O268  1  0.13485265  0.49357860  0.75601381  1
  O  O269  1  0.11864345  0.99618302  0.22910256  1
  O  O270  1  0.13277389  0.99213514  0.74514450  1
  O  O271  1  0.63215550  0.50308364  0.24435692  1
  O  O272  1  0.62428988  0.49426739  0.74433136  1
  O  O273  1  0.63138159  0.99636738  0.24217911  1
  O  O274  1  0.62580734  1.00410428  0.73892399  1
  O  O275  1  0.38232098  0.00809097  0.25823296  1
  O  O276  1  0.36987246  0.00047324  0.75993959  1
  O  O277  1  0.36726190  0.50550810  0.25868170  1
  O  O278  1  0.37366114  0.51024213  0.75463723  1
  O  O279  1  0.86860380  -0.00441653  0.25964495  1
  O  O280  1  0.86390865  0.00674662  0.75153026  1
  O  O281  1  0.86834466  0.51232062  0.25935425  1
  O  O282  1  0.87360145  0.51404936  0.75835318  1
  O  O283  1  0.11925465  0.38209484  0.36320416  1
  O  O284  1  0.12328285  0.37841018  0.86855387  1
  O  O285  1  0.13279398  0.87148754  0.36774272  1
  O  O286  1  0.12889228  0.86857152  0.87042194  1
  O  O287  1  0.60729781  0.38001905  0.37050340  1
  O  O288  1  0.61967188  0.37142309  0.86865165  1
  O  O289  1  0.63209169  0.86317495  0.37583212  1
  O  O290  1  0.62829845  0.86229220  0.87609002  1
  O  O291  1  0.37827715  0.12673932  0.12865226  1
  O  O292  1  0.37411159  0.10268137  0.64863477  1
  O  O293  1  0.37771097  0.63039678  0.13257579  1
  O  O294  1  0.37622967  0.61991106  0.63457069  1
  O  O295  1  0.88866880  0.11874523  0.11612888  1
  O  O296  1  0.88590532  0.11966729  0.63880852  1
  O  O297  1  0.88113689  0.62006602  0.13558573  1
  O  O298  1  0.87683849  0.63273172  0.63496606  1
  O  O299  1  0.25135437  0.25962627  0.12037446  1
  O  O300  1  0.24656784  0.26183635  0.63032602  1
  O  O301  1  0.25517569  0.75523691  0.12159709  1
  O  O302  1  0.25034021  0.74827416  0.61445730  1
  O  O303  1  0.75024152  0.25967258  0.12607823  1
  O  O304  1  0.74999600  0.26963878  0.62750556  1
  O  O305  1  0.74490963  0.76058016  0.13421408  1
  O  O306  1  0.75710200  0.75987734  0.62720206  1
  O  O307  1  0.25623014  0.23694035  0.37252854  1
  O  O308  1  0.25526063  0.23654957  0.87648325  1
  O  O309  1  0.25132487  0.73599971  0.38485973  1
  O  O310  1  0.24115909  0.74861514  0.88153228  1
  O  O311  1  0.75688442  0.23442187  0.35957246  1
  O  O312  1  0.73636487  0.24972714  0.87387910  1
  O  O313  1  0.74258916  0.74338730  0.37634213  1
  O  O314  1  0.73554298  0.73802840  0.86693535  1
  O  O315  1  0.00073846  0.12527257  0.00341848  1
  O  O316  1  -0.00057684  0.10370771  0.52031759  1
  O  O317  1  0.00212092  0.62228757  0.00630314  1
  O  O318  1  0.00706529  0.62683109  0.51007522  1
  O  O319  1  0.51063776  0.12271120  0.00567910  1
  O  O320  1  0.52174789  0.11476196  0.48983877  1
  O  O321  1  0.50441492  0.61850483  0.00805776  1
  O  O322  1  0.51062339  0.62213915  0.49623456  1
  O  O323  1  0.50079319  0.37403870  0.48687782  1
  O  O324  1  0.49533743  0.38111716  0.99490786  1
  O  O325  1  0.49527731  0.88414484  0.50177611  1
  O  O326  1  0.48610999  0.87399632  1.00690301  1
  O  O327  1  1.00765071  0.37897083  0.48448638  1
  O  O328  1  1.00524522  0.37968506  0.99447733  1
  O  O329  1  1.00429925  0.88526881  0.51190202  1
  O  O330  1  0.98164954  0.86687536  1.00561351  1
  O  O331  1  0.49077669  0.48879123  0.37515699  1
  O  O332  1  0.49469654  0.49585736  0.87953174  1
  O  O333  1  0.49354254  1.00263755  0.38074631  1
  O  O334  1  0.48786948  1.00343809  0.87534300  1
  O  O335  1  0.99039536  0.49576583  0.37654954  1
  O  O336  1  0.98969487  0.50951962  0.88816028  1
  O  O337  1  0.98915476  1.00137857  0.38167746  1
  O  O338  1  0.99467050  0.99319068  0.86647375  1
  O  O339  1  0.00681508  0.01210931  0.12224819  1
  O  O340  1  0.01299232  0.00242197  0.62745190  1
  O  O341  1  -0.00128865  0.50894260  0.11244999  1
  O  O342  1  -0.00845440  0.51459878  0.62503165  1
  O  O343  1  0.51284896  0.00456668  0.12349005  1
  O  O344  1  0.50461347  0.01731466  0.60963195  1
  O  O345  1  0.50327511  0.50451643  0.12280356  1
  O  O346  1  0.51394371  0.49228831  0.62383153  1
  O  O347  1  0.24406771  0.37690474  0.24442197  1
  O  O348  1  0.24164930  0.38163792  0.74545064  1
  O  O349  1  0.25510709  0.86871152  0.23745694  1
  O  O350  1  0.24268145  0.87904028  0.74922132  1
  O  O351  1  0.74819324  0.38207014  0.24461405  1
  O  O352  1  0.73685285  0.37937085  0.74992204  1
  O  O353  1  0.74804151  0.88306903  0.23831870  1
  O  O354  1  0.74237761  0.88274580  0.74197500  1
  O  O355  1  0.26228756  0.13078907  0.25335070  1
  O  O356  1  0.25659242  0.12201079  0.76061681  1
  O  O357  1  0.25164826  0.62150302  0.25828650  1
  O  O358  1  0.26333452  0.61933754  0.75058856  1
  O  O359  1  0.74507150  0.11117411  0.25789033  1
  O  O360  1  0.75603368  0.12048426  0.74576979  1
  O  O361  1  0.75478892  0.62189732  0.26156462  1
  O  O362  1  0.75670164  0.62486321  0.75651430  1
  O  O363  1  0.36750238  0.11814313  0.36496286  1
  O  O364  1  0.37272374  0.11734747  0.86680030  1
  O  O365  1  0.36721769  0.61719018  0.37016627  1
  O  O366  1  0.37559543  0.61366346  0.87283676  1
  O  O367  1  0.86034294  0.11217086  0.37453954  1
  O  O368  1  0.86863338  0.12351674  0.85998024  1
  O  O369  1  0.86539694  0.62077062  0.37076559  1
  O  O370  1  0.86677906  0.62348754  0.87082699  1
  O  O371  1  0.13305420  0.38125267  0.13611746  1
  O  O372  1  0.13241994  0.37787866  0.63487965  1
  O  O373  1  0.13501958  0.87862451  0.13171877  1
  O  O374  1  0.13132615  0.88006297  0.63475573  1
  O  O375  1  0.63392716  0.38239573  0.12872342  1
  O  O376  1  0.63383575  0.38161265  0.63024914  1
  O  O377  1  0.63430430  0.88118277  0.12570496  1
  O  O378  1  0.62884538  0.89046764  0.62815082  1
  O  O379  1  0.10867154  0.26006134  0.24128099  1
  O  O380  1  0.11111374  0.26139778  0.75205140  1
  O  O381  1  0.10728621  0.74919362  0.25252772  1
  O  O382  1  0.12508404  0.75573313  0.75887322  1
  O  O383  1  0.60868517  0.24751979  0.24423886  1
  O  O384  1  0.62016028  0.25611361  0.75561280  1
  O  O385  1  0.61522274  0.75016700  0.26127752  1
  O  O386  1  0.60957427  0.75136043  0.75673157  1
  O  O387  1  0.38376695  0.24203103  0.23969771  1
  O  O388  1  0.38751920  0.24163812  0.75538653  1
  O  O389  1  0.38071686  0.74390235  0.24976973  1
  O  O390  1  0.38453097  0.73855699  0.75292785  1
  O  O391  1  0.89258467  0.25465700  0.23799016  1
  O  O392  1  0.88440643  0.24546127  0.74555192  1
  O  O393  1  0.88275829  0.73753063  0.25490218  1
  O  O394  1  0.87877579  0.74172923  0.74770486  1
  O  O395  1  0.37614770  0.50479173  0.48719152  1
  O  O396  1  0.37891708  0.49467651  0.99211191  1
  O  O397  1  0.38593906  0.99666801  0.48898409  1
  O  O398  1  0.37799483  0.99147307  0.99327780  1
  O  O399  1  0.87583882  0.50962258  0.48924970  1
  O  O400  1  0.88229925  0.49829847  0.99304644  1
  O  O401  1  0.88265833  1.00150159  0.48602158  1
  O  O402  1  0.85459783  0.97621290  0.99011505  1
  O  O403  1  0.12489054  -0.01315650  0.01981051  1
  O  O404  1  0.12101307  0.00327776  0.50853297  1
  O  O405  1  0.11778026  0.50851168  -0.00062387  1
  O  O406  1  0.12231246  0.51489630  0.49761292  1
  O  O407  1  0.62530211  0.00584072  0.00589551  1
  O  O408  1  0.62086925  0.00191101  0.50337148  1
  O  O409  1  0.61811136  0.51039103  0.00592906  1
  O  O410  1  0.62080168  0.51015541  0.50728681  1
  O  O411  1  0.36731411  0.36972390  0.12151689  1
  O  O412  1  0.36187573  0.37241544  0.62910132  1
  O  O413  1  0.36914396  0.86978748  0.11999912  1
  O  O414  1  0.37315165  0.88546427  0.60806751  1
  O  O415  1  0.86180033  0.38155909  0.12303934  1
  O  O416  1  0.85719460  0.38004175  0.62583398  1
  O  O417  1  0.85906478  0.87729823  0.11569818  1
  O  O418  1  0.86653289  0.86575285  0.63703768  1
  O  O419  1  0.14539379  0.11710645  0.36882163  1
  O  O420  1  0.14088641  0.12386111  0.86999180  1
  O  O421  1  0.13216943  0.62854294  0.38274869  1
  O  O422  1  0.12776339  0.63423273  0.88160843  1
  O  O423  1  0.63655775  0.12077245  0.38045660  1
  O  O424  1  0.62266855  0.13375418  0.88132525  1
  O  O425  1  0.63122987  0.63208700  0.38287101  1
  O  O426  1  0.62958832  0.63021729  0.88282268  1
