# generated using pymatgen
data_V85Zn86O256
_symmetry_space_group_name_H-M   'P 1'
_cell_length_a   16.95780853
_cell_length_b   16.95933583
_cell_length_c   16.96262022
_cell_angle_alpha   89.96256015
_cell_angle_beta   90.01324788
_cell_angle_gamma   89.99482048
_symmetry_Int_Tables_number   1
_chemical_formula_structural   V85Zn86O256
_chemical_formula_sum   'V85 Zn86 O256'
_cell_volume   4878.33252521
_cell_formula_units_Z   1
loop_
 _symmetry_equiv_pos_site_id
 _symmetry_equiv_pos_as_xyz
  1  'x, y, z'
loop_
 _atom_site_type_symbol
 _atom_site_label
 _atom_site_symmetry_multiplicity
 _atom_site_fract_x
 _atom_site_fract_y
 _atom_site_fract_z
 _atom_site_occupancy
  V  V0  1  0.74859084  0.38116693  0.11268874  1
  V  V1  1  0.12559723  0.12985239  0.00123580  1
  V  V2  1  -0.00048650  0.62285756  0.62314633  1
  V  V3  1  0.25259728  0.74781037  0.00656129  1
  V  V4  1  0.86200454  0.00038066  0.37553241  1
  V  V5  1  -0.00277366  0.62938893  0.12464654  1
  V  V6  1  0.49879897  0.37061015  0.87498638  1
  V  V7  1  0.36937156  0.36986956  0.00303557  1
  V  V8  1  0.74926484  0.86618470  0.62898146  1
  V  V9  1  0.61661240  0.24464588  0.87788719  1
  V  V10  1  0.62926730  0.11558111  0.49287158  1
  V  V11  1  0.50151574  0.75079414  0.75151337  1
  V  V12  1  0.37518068  0.50036429  0.87670337  1
  V  V13  1  0.49935630  0.87810508  0.38021126  1
  V  V14  1  0.37332030  0.88064237  0.50009893  1
  V  V15  1  0.37199540  0.75178272  0.62275128  1
  V  V16  1  0.10724337  0.25848721  0.37708485  1
  V  V17  1  0.25069803  0.62444225  0.87764664  1
  V  V18  1  0.49203295  0.24857888  0.25734186  1
  V  V19  1  0.75115448  0.63180531  0.88245533  1
  V  V20  1  0.74999142  0.75222173  0.01173732  1
  V  V21  1  0.24899809  0.13064818  0.36927552  1
  V  V22  1  0.25147496  0.00429254  0.25118374  1
  V  V23  1  0.12553251  0.49935419  0.62286041  1
  V  V24  1  0.25237788  0.62414971  0.37463671  1
  V  V25  1  0.12817373  0.25035835  0.87535646  1
  V  V26  1  0.62970962  0.74674012  0.38200440  1
  V  V27  1  0.12378038  0.00048436  0.62534004  1
  V  V28  1  0.50739584  0.62769616  0.12333223  1
  V  V29  1  -0.00769299  0.13617661  0.63304327  1
  V  V30  1  -0.00762332  0.48767241  0.48957535  1
  V  V31  1  0.50382102  0.62866920  0.62067288  1
  V  V32  1  0.25539778  0.25035501  0.50144695  1
  V  V33  1  0.50447391  0.12368035  0.12762419  1
  V  V34  1  0.37768548  0.37442526  0.49402053  1
  V  V35  1  0.37578518  -0.00102897  0.87351274  1
  V  V36  1  0.36987742  0.24056153  0.12501447  1
  V  V37  1  0.37747334  0.62971530  0.24174876  1
  V  V38  1  0.62416922  0.74638679  0.88003011  1
  V  V39  1  0.24858782  0.36774260  0.13004417  1
  V  V40  1  0.25624058  0.37235334  0.62494048  1
  V  V41  1  0.37570202  0.00555636  0.37601788  1
  V  V42  1  0.87257143  0.86995042  0.50186802  1
  V  V43  1  0.87690119  0.87725748  0.01162545  1
  V  V44  1  0.38766682  0.49862479  0.37044833  1
  V  V45  1  0.12703694  0.61916162  0.00799151  1
  V  V46  1  0.24905697  0.49832200  0.24501867  1
  V  V47  1  0.25503706  0.86934970  0.12848632  1
  V  V48  1  0.37478368  0.62690789  0.75119889  1
  V  V49  1  0.00321327  0.74937109  0.75096773  1
  V  V50  1  -0.00048680  0.87806551  0.87819713  1
  V  V51  1  0.12277357  0.36929033  0.74764083  1
  V  V52  1  0.12398647  0.00295998  0.12278795  1
  V  V53  1  0.85505595  0.47947123  0.87934659  1
  V  V54  1  -0.01049152  0.75178951  0.24686638  1
  V  V55  1  0.25197713  0.00038908  0.74788655  1
  V  V56  1  0.12164585  0.87445671  0.25097328  1
  V  V57  1  0.00418971  0.37328947  0.87737557  1
  V  V58  1  0.10995376  0.38008932  0.25318445  1
  V  V59  1  0.86598388  -0.00027798  0.86414692  1
  V  V60  1  0.49753236  0.75165476  0.24601444  1
  V  V61  1  0.25278558  0.13005976  0.87666494  1
  V  V62  1  0.50787284  0.50312320  -0.00153195  1
  V  V63  1  0.75540056  0.24576433  -0.00178378  1
  V  V64  1  0.74521695  0.88923098  0.12724241  1
  V  V65  1  0.62746521  0.87441012  0.75152407  1
  V  V66  1  0.12685441  0.87541000  0.75071296  1
  V  V67  1  0.87853247  0.62585062  0.76395595  1
  V  V68  1  0.12333060  0.74886020  0.37449812  1
  V  V69  1  0.62306780  0.88541785  0.24835528  1
  V  V70  1  0.50237347  0.50394884  0.49950292  1
  V  V71  1  0.62784703  -0.00277116  0.62658262  1
  V  V72  1  0.86106857  0.61841753  0.24705769  1
  V  V73  1  0.81135319  0.17989876  0.32143418  1
  V  V74  1  0.37894267  0.13704312  0.74373348  1
  V  V75  1  0.62255582  0.37278750  0.24520344  1
  V  V76  1  0.12655485  0.74941990  0.87838933  1
  V  V77  1  0.49925039  0.11670469  0.62318109  1
  V  V78  1  0.37546831  0.87050519  0.00384827  1
  V  V79  1  -0.00298484  0.00056674  0.50142122  1
  V  V80  1  0.50275773  -0.00032154  0.00581024  1
  V  V81  1  0.12481825  0.12729287  0.50173470  1
  V  V82  1  0.00115727  0.49723047  0.00083748  1
  V  V83  1  0.74712335  0.25827787  0.51529521  1
  V  V84  1  0.55459357  0.30675127  0.69985128  1
  Zn  Zn85  1  0.24841396  0.75034747  0.49842250  1
  Zn  Zn86  1  0.67557263  0.58112636  0.46564268  1
  Zn  Zn87  1  0.75551314  0.73314713  0.49843406  1
  Zn  Zn88  1  0.86841688  0.14256983  0.74616950  1
  Zn  Zn89  1  0.74135257  0.11845528  0.86762233  1
  Zn  Zn90  1  0.12297448  0.62316538  0.49667878  1
  Zn  Zn91  1  0.62901033  0.50548116  0.12033387  1
  Zn  Zn92  1  0.74625869  0.46269566  0.72704599  1
  Zn  Zn93  1  0.24933642  0.50100516  0.75010996  1
  Zn  Zn94  1  0.82845108  0.52441187  0.38934157  1
  Zn  Zn95  1  0.61730538  0.48908647  0.63580073  1
  Zn  Zn96  1  0.50081750  0.87456058  0.87723549  1
  Zn  Zn97  1  0.62959343  0.24019364  0.36686257  1
  Zn  Zn98  1  -0.00323235  0.87514203  0.37508931  1
  Zn  Zn99  1  -0.00076309  0.00555349  0.00175836  1
  Zn  Zn100  1  0.62448995  0.11846885  0.00006034  1
  Zn  Zn101  1  -0.04181815  0.17033358  0.16418949  1
  Zn  Zn102  1  0.74481129  0.01324795  0.24953036  1
  Zn  Zn103  1  0.84708470  0.30384254  0.63640234  1
  Zn  Zn104  1  0.87531164  0.74366830  0.62481735  1
  Zn  Zn105  1  0.24768754  0.87530130  0.62263250  1
  Zn  Zn106  1  0.91754960  0.32062441  0.05188180  1
  Zn  Zn107  1  0.13927417  0.17364746  0.20695505  1
  Zn  Zn108  1  0.18851158  0.18813816  0.68730448  1
  Zn  Zn109  1  0.18489754  0.68621356  0.18867345  1
  Zn  Zn110  1  0.18805806  0.68612825  0.68803457  1
  Zn  Zn111  1  0.68295166  0.19283031  0.17780770  1
  Zn  Zn112  1  0.69144772  0.17592782  0.69081671  1
  Zn  Zn113  1  0.68256855  0.69984424  0.18665074  1
  Zn  Zn114  1  0.70885192  0.65317328  0.66911261  1
  Zn  Zn115  1  0.31196934  0.31221170  0.31262292  1
  Zn  Zn116  1  0.31236509  0.31353277  0.81066367  1
  Zn  Zn117  1  0.31291144  0.81212676  0.31276264  1
  Zn  Zn118  1  0.31219358  0.81265191  0.81405304  1
  Zn  Zn119  1  0.83341451  0.35091906  0.28227293  1
  Zn  Zn120  1  0.81252522  0.30684894  0.81793232  1
  Zn  Zn121  1  0.80974100  0.81579832  0.31104502  1
  Zn  Zn122  1  0.81380424  0.81175232  0.81395434  1
  Zn  Zn123  1  0.18808323  0.43994338  0.43489406  1
  Zn  Zn124  1  0.18931271  0.43774203  0.94107866  1
  Zn  Zn125  1  0.18750041  0.93750437  0.43782209  1
  Zn  Zn126  1  0.19026192  0.93870262  0.93832416  1
  Zn  Zn127  1  0.72185196  0.40792133  0.40252293  1
  Zn  Zn128  1  0.68799745  0.43057636  0.92024230  1
  Zn  Zn129  1  0.68648960  0.93241684  0.44291156  1
  Zn  Zn130  1  0.68690817  0.93372857  0.93859846  1
  Zn  Zn131  1  0.31010423  0.06032516  0.06117324  1
  Zn  Zn132  1  0.31269989  0.06342212  0.56141544  1
  Zn  Zn133  1  0.31751366  0.55801297  0.06466577  1
  Zn  Zn134  1  0.31380976  0.56272609  0.55995936  1
  Zn  Zn135  1  0.81238081  0.06590756  0.05367316  1
  Zn  Zn136  1  0.80768608  0.05876931  0.56625526  1
  Zn  Zn137  1  0.81818442  0.56376126  0.05919490  1
  Zn  Zn138  1  0.81783702  0.53605116  0.57743378  1
  Zn  Zn139  1  0.44150633  0.43706525  0.18545120  1
  Zn  Zn140  1  0.43064802  0.44355753  0.68513878  1
  Zn  Zn141  1  0.43470346  0.93971278  0.19028794  1
  Zn  Zn142  1  0.44083225  0.93870567  0.68718242  1
  Zn  Zn143  1  0.93648940  0.44682190  0.18132018  1
  Zn  Zn144  1  0.93801125  0.44156177  0.69471116  1
  Zn  Zn145  1  0.91641825  0.98999645  0.16907304  1
  Zn  Zn146  1  0.93906560  0.93496632  0.68504299  1
  Zn  Zn147  1  0.05618128  0.06256144  0.31877593  1
  Zn  Zn148  1  0.06095863  0.06340518  0.81175222  1
  Zn  Zn149  1  0.06142034  0.56367006  0.30947213  1
  Zn  Zn150  1  0.06537095  0.55877778  0.81455853  1
  Zn  Zn151  1  0.55505519  0.06462659  0.30974942  1
  Zn  Zn152  1  0.55882734  0.06006570  0.80870756  1
  Zn  Zn153  1  0.59937847  0.54375809  0.32558410  1
  Zn  Zn154  1  0.57009698  0.55923569  0.80732670  1
  Zn  Zn155  1  0.43804496  0.18295690  0.44181107  1
  Zn  Zn156  1  0.43413834  0.18724734  0.94068817  1
  Zn  Zn157  1  0.43818443  0.68996751  0.43338662  1
  Zn  Zn158  1  0.43911370  0.68826059  0.94041853  1
  Zn  Zn159  1  0.93103108  0.19498941  0.45959307  1
  Zn  Zn160  1  0.94368551  0.18292606  0.93044322  1
  Zn  Zn161  1  0.93576891  0.68143815  0.43451353  1
  Zn  Zn162  1  0.93756127  0.69488489  0.94504268  1
  Zn  Zn163  1  0.08259306  0.30867778  0.06577963  1
  Zn  Zn164  1  0.06491490  0.31368272  0.56077865  1
  Zn  Zn165  1  0.06454357  0.81317400  0.06474888  1
  Zn  Zn166  1  0.06133420  0.81158467  0.56136608  1
  Zn  Zn167  1  0.55973869  0.30964944  0.05978142  1
  Zn  Zn168  1  0.56356981  0.31007146  0.53525848  1
  Zn  Zn169  1  0.56447928  0.81423172  0.06531044  1
  Zn  Zn170  1  0.55977201  0.81252695  0.56141616  1
  O  O171  1  0.14683011  0.11521755  0.10912042  1
  O  O172  1  0.11694377  0.11977043  0.62107478  1
  O  O173  1  0.11539770  0.62707790  0.11755658  1
  O  O174  1  0.11669828  0.61746351  0.62565349  1
  O  O175  1  0.60860380  0.12518254  0.11988221  1
  O  O176  1  0.61902933  0.11297463  0.62098986  1
  O  O177  1  0.61213619  0.62471060  0.13102763  1
  O  O178  1  0.60323489  0.64242068  0.62231193  1
  O  O179  1  0.36990601  0.38690943  0.38185594  1
  O  O180  1  0.37942056  0.37769796  0.88196336  1
  O  O181  1  0.37866065  0.88142580  0.38146593  1
  O  O182  1  0.37471196  0.88308170  0.88374828  1
  O  O183  1  0.83278004  0.41041581  0.37244744  1
  O  O184  1  0.89956369  0.37190487  0.88189426  1
  O  O185  1  0.87447329  0.88343775  0.38506164  1
  O  O186  1  0.88263240  0.88151034  0.88116770  1
  O  O187  1  0.25402842  0.00763360  0.36981473  1
  O  O188  1  0.26042154  0.00493263  0.86888239  1
  O  O189  1  0.26031096  0.50809566  0.36621281  1
  O  O190  1  0.25739947  0.50660129  0.87564924  1
  O  O191  1  0.75868798  -0.00076218  0.38060839  1
  O  O192  1  0.76332255  -0.00329066  0.87875112  1
  O  O193  1  0.70555666  0.51741024  0.37418890  1
  O  O194  1  0.75227590  0.52935885  0.90984669  1
  O  O195  1  0.25850770  0.49274411  0.14023603  1
  O  O196  1  0.24235096  0.49381867  0.62367861  1
  O  O197  1  0.24532799  0.99266587  0.13376892  1
  O  O198  1  0.24169518  1.00031724  0.63037194  1
  O  O199  1  0.74477345  0.48590684  0.10651059  1
  O  O200  1  0.72556539  0.53851649  0.64159086  1
  O  O201  1  0.74611039  0.99341470  0.12646838  1
  O  O202  1  0.73606354  0.98527654  0.62279492  1
  O  O203  1  0.01117323  0.38797213  0.24721899  1
  O  O204  1  0.01393573  0.38306753  0.76073133  1
  O  O205  1  0.01479416  0.86785612  0.25123678  1
  O  O206  1  0.00707323  0.86844427  0.75736980  1
  O  O207  1  0.50826292  0.35740417  0.23807933  1
  O  O208  1  0.48698494  0.36629944  0.75435529  1
  O  O209  1  0.50265861  0.87129913  0.25737388  1
  O  O210  1  0.50558357  0.86711045  0.75325461  1
  O  O211  1  0.49638007  0.13608069  0.24084147  1
  O  O212  1  0.49192399  0.12077107  0.73597800  1
  O  O213  1  0.49277790  0.63514881  0.24319613  1
  O  O214  1  0.49305611  0.63205765  0.74431023  1
  O  O215  1  1.03568425  0.13036433  0.23623941  1
  O  O216  1  0.99826066  0.12267088  0.73571604  1
  O  O217  1  0.99728403  0.63278872  0.24076914  1
  O  O218  1  1.00039086  0.63132319  0.74943909  1
  O  O219  1  0.37445751  0.26166500  0.00836609  1
  O  O220  1  0.36440262  0.25844930  0.49284646  1
  O  O221  1  0.36994278  0.76365684  -0.00329972  1
  O  O222  1  0.37327793  0.76056423  0.50605434  1
  O  O223  1  0.86047719  0.24398196  -0.01391736  1
  O  O224  1  0.85365757  0.25495517  0.51868582  1
  O  O225  1  0.86595760  0.76830567  -0.00170677  1
  O  O226  1  0.88005095  0.76183211  0.49887167  1
  O  O227  1  0.13728181  0.24924054  0.49392752  1
  O  O228  1  0.13694344  0.24076975  0.98968210  1
  O  O229  1  0.12573436  0.74877477  0.48669195  1
  O  O230  1  0.13148417  0.74071934  0.99643535  1
  O  O231  1  0.63216796  0.23447451  0.48927812  1
  O  O232  1  0.62849206  0.24398222  0.99092857  1
  O  O233  1  0.62521848  0.75722557  0.48546808  1
  O  O234  1  0.63521625  0.75991376  0.99117052  1
  O  O235  1  0.48898251  0.24095411  0.12838534  1
  O  O236  1  0.51020168  0.24421347  0.63239629  1
  O  O237  1  0.50380691  0.74577144  0.13731005  1
  O  O238  1  0.48592238  0.74936850  0.62870695  1
  O  O239  1  0.99268603  0.26018269  0.11052727  1
  O  O240  1  1.00204129  0.23530847  0.61717434  1
  O  O241  1  1.00694894  0.74332825  0.13529687  1
  O  O242  1  0.99980952  0.74037055  0.63140784  1
  O  O243  1  0.00934395  0.24848530  0.39295220  1
  O  O244  1  0.01864260  0.25721021  0.87978063  1
  O  O245  1  0.00818215  0.75108162  0.36702719  1
  O  O246  1  0.00642349  0.76134623  0.87338317  1
  O  O247  1  0.49642017  0.24264005  0.35944124  1
  O  O248  1  0.50243692  0.25690619  0.87889162  1
  O  O249  1  0.50393199  0.76086420  0.36641837  1
  O  O250  1  0.50786984  0.75182518  0.87247598  1
  O  O251  1  0.24522469  0.13334158  0.49425150  1
  O  O252  1  0.24639128  0.11679375  0.98128865  1
  O  O253  1  0.24938569  0.62658589  0.48602948  1
  O  O254  1  0.24538350  0.62709563  1.00092439  1
  O  O255  1  0.73320012  0.12964095  0.50976979  1
  O  O256  1  0.74380215  0.13228464  0.99084056  1
  O  O257  1  0.77295959  0.61997163  0.50169263  1
  O  O258  1  0.75872339  0.64746438  1.00376956  1
  O  O259  1  0.25818932  0.38346391  0.01477319  1
  O  O260  1  0.25707307  0.37013807  0.50397252  1
  O  O261  1  0.25604628  0.87057882  0.00915286  1
  O  O262  1  0.25822391  0.87154584  0.50119940  1
  O  O263  1  0.74521265  0.36150026  0.00420640  1
  O  O264  1  0.72625515  0.35538565  0.50472839  1
  O  O265  1  0.75674663  0.87356712  0.00875261  1
  O  O266  1  0.75735879  0.86904340  0.51193016  1
  O  O267  1  0.13594452  0.48961169  0.25752636  1
  O  O268  1  0.12845773  0.49225921  0.73885808  1
  O  O269  1  0.13536411  0.99010161  0.24741735  1
  O  O270  1  0.13101053  0.99497684  0.74606091  1
  O  O271  1  0.60826032  0.47680760  0.23544015  1
  O  O272  1  0.62916349  0.48545864  0.75087724  1
  O  O273  1  0.62573086  0.98960232  0.25924491  1
  O  O274  1  0.61895133  0.98271843  0.74427286  1
  O  O275  1  0.35869009  -0.00444071  0.25973878  1
  O  O276  1  0.37084941  0.00396564  0.75744166  1
  O  O277  1  0.37322307  0.50620733  0.25579095  1
  O  O278  1  0.37141784  0.50856433  0.75929765  1
  O  O279  1  0.86735445  -0.00437565  0.27232527  1
  O  O280  1  0.87905725  -0.01019621  0.76471703  1
  O  O281  1  0.86915651  0.51727979  0.24176868  1
  O  O282  1  0.88732904  0.51537928  0.77962323  1
  O  O283  1  0.12762353  0.37098246  0.36531644  1
  O  O284  1  0.12594833  0.36951508  0.86877773  1
  O  O285  1  0.12459138  0.86831100  0.36727867  1
  O  O286  1  0.11971813  0.87017056  0.87291558  1
  O  O287  1  0.62912326  0.36063092  0.34916973  1
  O  O288  1  0.60538832  0.36205742  0.87714231  1
  O  O289  1  0.61463783  0.87069362  0.37198111  1
  O  O290  1  0.62470989  0.86649527  0.86761820  1
  O  O291  1  0.37494028  0.13701214  0.11817813  1
  O  O292  1  0.38516082  0.11736988  0.63110168  1
  O  O293  1  0.38233466  0.62262994  0.13712887  1
  O  O294  1  0.37761533  0.63457027  0.63049367  1
  O  O295  1  0.88445166  0.09409647  0.13260206  1
  O  O296  1  0.88930706  0.11629953  0.62565739  1
  O  O297  1  0.88854938  0.62728310  0.13063319  1
  O  O298  1  0.89027074  0.61937566  0.64338627  1
  O  O299  1  0.25817320  0.26402793  0.13519582  1
  O  O300  1  0.24509204  0.25957407  0.61397612  1
  O  O301  1  0.24604174  0.75819064  0.12076001  1
  O  O302  1  0.26070242  0.75104954  0.62354809  1
  O  O303  1  0.74658523  0.25443469  0.10411709  1
  O  O304  1  0.73638295  0.25291345  0.61806474  1
  O  O305  1  0.74477220  0.76979587  0.11868831  1
  O  O306  1  0.75524073  0.75062514  0.62081660  1
  O  O307  1  0.24530287  0.24343817  0.38063833  1
  O  O308  1  0.24207205  0.24160668  0.86902232  1
  O  O309  1  0.24312003  0.74098092  0.37287447  1
  O  O310  1  0.24618413  0.74436430  0.88485898  1
  O  O311  1  0.75420940  0.23782300  0.38413900  1
  O  O312  1  0.73492217  0.24878166  0.88461178  1
  O  O313  1  0.73357054  0.75675898  0.37679216  1
  O  O314  1  0.74435423  0.74776540  0.88566153  1
  O  O315  1  0.01997041  0.12141976  -0.00778959  1
  O  O316  1  0.00360309  0.11660396  0.51041828  1
  O  O317  1  0.00800169  0.62312172  0.00535615  1
  O  O318  1  0.00268208  0.61990578  0.51088974  1
  O  O319  1  0.49555645  0.11528363  0.00792864  1
  O  O320  1  0.51246638  0.13156561  0.51419566  1
  O  O321  1  0.49230182  0.61694059  0.01113623  1
  O  O322  1  0.48512807  0.61686022  0.50848042  1
  O  O323  1  0.48450719  0.38398522  0.50206071  1
  O  O324  1  0.48950489  0.38053988  0.99252029  1
  O  O325  1  0.49055780  0.87259243  0.48724943  1
  O  O326  1  0.49028472  0.88025434  1.00238327  1
  O  O327  1  1.00194101  0.38870991  0.50455989  1
  O  O328  1  1.00988459  0.38301639  0.99693176  1
  O  O329  1  0.99209570  0.88443894  0.50077992  1
  O  O330  1  0.99450435  0.87501383  0.99425773  1
  O  O331  1  0.49340231  0.50768848  0.38119565  1
  O  O332  1  0.49249924  0.49327384  0.87902151  1
  O  O333  1  0.48352875  0.99346020  0.36813805  1
  O  O334  1  0.48676758  0.99845031  0.88114712  1
  O  O335  1  1.00933126  0.50478352  0.39211523  1
  O  O336  1  1.00545464  0.49100868  0.88713835  1
  O  O337  1  0.99090734  0.99902729  0.38801759  1
  O  O338  1  0.99907301  0.98698899  0.87558955  1
  O  O339  1  0.02196213  -0.01024195  0.12196863  1
  O  O340  1  0.00563326  0.00387740  0.61678901  1
  O  O341  1  -0.00228852  0.51035617  0.10850576  1
  O  O342  1  0.00848194  0.50549556  0.62014539  1
  O  O343  1  0.48700204  0.01030450  0.11729194  1
  O  O344  1  0.51282351  0.00437849  0.62479569  1
  O  O345  1  0.49908267  0.50954863  0.11453464  1
  O  O346  1  0.49468613  0.51267164  0.61932251  1
  O  O347  1  0.24915707  0.38411853  0.24654835  1
  O  O348  1  0.24526444  0.37816231  0.74036519  1
  O  O349  1  0.24281360  0.87903851  0.24546982  1
  O  O350  1  0.24423609  0.88191682  0.74886304  1
  O  O351  1  0.73179341  0.36233272  0.22385937  1
  O  O352  1  0.77122281  0.41406126  0.82892771  1
  O  O353  1  0.74027566  0.87939896  0.24349837  1
  O  O354  1  0.74278344  0.86511260  0.73828528  1
  O  O355  1  0.23731628  0.11815638  0.26264807  1
  O  O356  1  0.25587987  0.11814060  0.75647873  1
  O  O357  1  0.25653557  0.61982473  0.25545313  1
  O  O358  1  0.25659588  0.62489024  0.75843141  1
  O  O359  1  0.74588735  0.13149065  0.25591579  1
  O  O360  1  0.75714401  0.11812186  0.75590374  1
  O  O361  1  0.76385733  0.63668800  0.23626961  1
  O  O362  1  0.76728568  0.63422253  0.76949467  1
  O  O363  1  0.36375666  0.11544186  0.38270810  1
  O  O364  1  0.37014757  0.11897251  0.86778391  1
  O  O365  1  0.36970207  0.61984201  0.36420607  1
  O  O366  1  0.36971153  0.62142988  0.87238364  1
  O  O367  1  0.87308670  0.11979747  0.38268539  1
  O  O368  1  0.88185119  0.10677754  0.86918711  1
  O  O369  1  0.87620397  0.62524010  0.35369383  1
  O  O370  1  0.86956692  0.63050731  0.87689999  1
  O  O371  1  0.13634180  0.37562037  0.14287856  1
  O  O372  1  0.13301687  0.38025936  0.63090298  1
  O  O373  1  0.13744540  0.87973476  0.13155072  1
  O  O374  1  0.12513469  0.88124441  0.63142240  1
  O  O375  1  0.63128882  0.37398034  0.12347940  1
  O  O376  1  0.60353600  0.36653511  0.63326529  1
  O  O377  1  0.62973734  0.87657999  0.13731991  1
  O  O378  1  0.62955574  0.87551570  0.63044971  1
  O  O379  1  0.12743829  0.27125514  0.26442862  1
  O  O380  1  0.13040330  0.26227842  0.75543946  1
  O  O381  1  0.12068403  0.75531854  0.25948489  1
  O  O382  1  0.12257420  0.75522700  0.75772596  1
  O  O383  1  0.60945583  0.25177732  0.24547627  1
  O  O384  1  0.62290298  0.25271162  0.75635062  1
  O  O385  1  0.61600206  0.76256653  0.26170426  1
  O  O386  1  0.61684537  0.76036640  0.75834011  1
  O  O387  1  0.38480105  0.25511247  0.24114571  1
  O  O388  1  0.36983307  0.23577228  0.74937464  1
  O  O389  1  0.38466826  0.74233508  0.25571576  1
  O  O390  1  0.38012146  0.74804858  0.74346634  1
  O  O391  1  0.86872317  0.24257915  0.26629181  1
  O  O392  1  0.86933565  0.25790908  0.73801968  1
  O  O393  1  0.88700056  0.74976795  0.25367710  1
  O  O394  1  0.88666956  0.74178184  0.75280935  1
  O  O395  1  0.37951610  0.49379003  0.49040705  1
  O  O396  1  0.38205679  0.48991104  0.99431751  1
  O  O397  1  0.36878533  0.98883071  0.49127101  1
  O  O398  1  0.37875708  0.99015225  0.99295214  1
  O  O399  1  0.89000955  0.50412990  0.49617924  1
  O  O400  1  0.88535326  0.50019228  0.98463688  1
  O  O401  1  0.87866473  0.99138482  0.49659146  1
  O  O402  1  0.88070928  0.99152522  0.98595460  1
  O  O403  1  0.12844368  0.00613356  0.00733272  1
  O  O404  1  0.11657399  0.00524327  0.50361261  1
  O  O405  1  0.12033245  0.51346506  -0.00336413  1
  O  O406  1  0.12178685  0.50108932  0.51144763  1
  O  O407  1  0.60627667  -0.00264053  -0.00781368  1
  O  O408  1  0.62533618  0.00772428  0.50769922  1
  O  O409  1  0.60919647  0.49340326  -0.00514479  1
  O  O410  1  0.60511105  0.49945232  0.51259407  1
  O  O411  1  0.37099873  0.36801754  0.11866224  1
  O  O412  1  0.36169937  0.38138522  0.61509367  1
  O  O413  1  0.36299666  0.87921820  0.11955676  1
  O  O414  1  0.37409072  0.87066412  0.61670497  1
  O  O415  1  0.85606775  0.37751880  0.13122306  1
  O  O416  1  0.83657400  0.41885502  0.65196340  1
  O  O417  1  0.86964700  0.89199227  0.11598986  1
  O  O418  1  0.86730068  0.87119688  0.61957435  1
  O  O419  1  0.13134195  0.13439094  0.38543654  1
  O  O420  1  0.13341179  0.13186512  0.87523916  1
  O  O421  1  0.13436296  0.63234722  0.37267075  1
  O  O422  1  0.13176033  0.63026404  0.88353651  1
  O  O423  1  0.61779918  0.11932764  0.38979895  1
  O  O424  1  0.61819550  0.13298231  0.87502083  1
  O  O425  1  0.61194529  0.64525576  0.37945736  1
  O  O426  1  0.63252948  0.63982718  0.87034477  1
