# generated using pymatgen
data_V85Zn86O256
_symmetry_space_group_name_H-M   'P 1'
_cell_length_a   16.94335621
_cell_length_b   16.93754157
_cell_length_c   16.93786328
_cell_angle_alpha   89.99458343
_cell_angle_beta   90.06970842
_cell_angle_gamma   90.03771146
_symmetry_Int_Tables_number   1
_chemical_formula_structural   V85Zn86O256
_chemical_formula_sum   'V85 Zn86 O256'
_cell_volume   4860.80300902
_cell_formula_units_Z   1
loop_
 _symmetry_equiv_pos_site_id
 _symmetry_equiv_pos_as_xyz
  1  'x, y, z'
loop_
 _atom_site_type_symbol
 _atom_site_label
 _atom_site_symmetry_multiplicity
 _atom_site_fract_x
 _atom_site_fract_y
 _atom_site_fract_z
 _atom_site_occupancy
  V  V0  1  -0.00238570  0.37673482  0.38054138  1
  V  V1  1  0.12315701  0.39484013  0.24380053  1
  V  V2  1  0.75287824  0.61761881  0.87613018  1
  V  V3  1  0.25451322  0.62688545  0.37094883  1
  V  V4  1  0.62539818  0.12511549  0.50296848  1
  V  V5  1  0.11228954  0.24595373  0.86551930  1
  V  V6  1  0.62443980  0.86902958  0.75055533  1
  V  V7  1  0.87952730  0.00164125  0.88016127  1
  V  V8  1  0.11820944  0.13107579  -0.00664529  1
  V  V9  1  0.62605396  0.37017729  0.25104577  1
  V  V10  1  0.25711831  0.13504983  0.87369171  1
  V  V11  1  0.75270694  0.74779012  -0.00053558  1
  V  V12  1  0.74809511  0.12499426  0.87906478  1
  V  V13  1  0.75339400  0.49311394  0.75124974  1
  V  V14  1  0.62477269  0.00046911  0.62548076  1
  V  V15  1  0.62561761  0.00310792  0.10808851  1
  V  V16  1  0.12370772  0.87474107  0.25026415  1
  V  V17  1  0.25053658  0.87059157  0.12488276  1
  V  V18  1  0.37412401  0.24839923  0.62930632  1
  V  V19  1  0.25940808  0.01236027  0.74154637  1
  V  V20  1  0.62743065  0.50091252  0.62742169  1
  V  V21  1  0.00066049  0.87916430  0.37781457  1
  V  V22  1  0.12106608  -0.00339800  0.11213440  1
  V  V23  1  -0.00661008  0.12495165  0.12163934  1
  V  V24  1  0.89229877  0.24666710  0.62818697  1
  V  V25  1  0.62839238  0.49543453  0.12275415  1
  V  V26  1  0.87399490  0.87847298  0.50077771  1
  V  V27  1  0.75163361  0.00012397  0.75063634  1
  V  V28  1  0.74942888  0.62915282  0.37573771  1
  V  V29  1  0.49493246  0.37292777  0.87823409  1
  V  V30  1  0.87492216  0.62397588  0.25054317  1
  V  V31  1  0.24761456  -0.00156189  0.24783961  1
  V  V32  1  0.86867163  0.00041700  0.36371972  1
  V  V33  1  0.00596810  0.88456693  0.88048237  1
  V  V34  1  0.13045692  0.75283092  0.38794422  1
  V  V35  1  -0.00718019  0.25104758  0.24289786  1
  V  V36  1  0.88186178  0.37303263  0.00493067  1
  V  V37  1  0.49796935  0.88077207  0.88150904  1
  V  V38  1  0.37299709  0.00179228  0.37368568  1
  V  V39  1  0.87831346  0.62042114  0.75456453  1
  V  V40  1  0.12508878  0.61897377  -0.00149633  1
  V  V41  1  0.62485312  0.62334446  0.00008192  1
  V  V42  1  0.74915226  0.12468356  0.37099748  1
  V  V43  1  0.11569938  0.49798895  0.62210394  1
  V  V44  1  0.49594653  0.00016709  0.50165586  1
  V  V45  1  0.74079956  0.75117392  0.49906641  1
  V  V46  1  0.49547331  0.37209717  0.37597343  1
  V  V47  1  0.87681379  0.50167723  0.38297464  1
  V  V48  1  0.86986218  0.37819099  0.50801173  1
  V  V49  1  -0.00324389  0.38392380  0.86819675  1
  V  V50  1  0.62659536  0.88726737  0.25450612  1
  V  V51  1  0.48588509  0.62625909  0.63061729  1
  V  V52  1  0.49719845  0.49966523  0.50417114  1
  V  V53  1  0.49573836  0.24381017  0.24895907  1
  V  V54  1  0.12572010  0.89038939  0.74635394  1
  V  V55  1  0.12562071  0.62208538  0.50265307  1
  V  V56  1  0.25150679  0.24976921  0.49225167  1
  V  V57  1  0.75544955  0.36272787  0.12542308  1
  V  V58  1  0.88108881  0.87487986  0.00048059  1
  V  V59  1  0.38610418  0.74923670  0.14208046  1
  V  V60  1  0.00389315  0.75039190  0.25156826  1
  V  V61  1  0.74940266  0.25094604  0.51330695  1
  V  V62  1  0.62691765  0.24732968  0.88208364  1
  V  V63  1  0.62589408  0.37186682  0.74874568  1
  V  V64  1  0.25084904  0.37856340  0.62430971  1
  V  V65  1  0.37112386  0.86585411  0.50494482  1
  V  V66  1  0.00250881  0.74932419  0.75045288  1
  V  V67  1  0.48433187  0.74681858  0.74877340  1
  V  V68  1  0.87765110  0.74774452  0.12526594  1
  V  V69  1  0.37538463  0.49926039  0.86709353  1
  V  V70  1  0.49612055  0.49581232  0.00207148  1
  V  V71  1  0.74765642  0.87416602  0.62567101  1
  V  V72  1  0.87452921  0.74849645  0.62635502  1
  V  V73  1  0.50146686  0.87436027  0.37168331  1
  V  V74  1  0.75236259  0.88001954  0.13154610  1
  V  V75  1  0.37467413  0.50467807  0.36117546  1
  V  V76  1  0.26366939  0.75302370  -0.00302436  1
  V  V77  1  0.25167770  0.86271253  0.62421476  1
  V  V78  1  0.50140670  0.12295686  0.11354072  1
  V  V79  1  0.88911751  0.12604626  0.74800159  1
  V  V80  1  0.12415412  0.25061223  0.37022430  1
  V  V81  1  0.57105089  0.71037725  0.31520395  1
  V  V82  1  0.12847339  0.75387664  0.87377213  1
  V  V83  1  0.49368700  0.12393806  0.63285688  1
  V  V84  1  0.25716735  0.62476513  0.86686617  1
  Zn  Zn85  1  0.50353581  0.62890106  0.13937356  1
  Zn  Zn86  1  0.25255723  0.50368494  0.74419901  1
  Zn  Zn87  1  0.30875934  0.29269064  0.06891697  1
  Zn  Zn88  1  -0.00276559  0.62176336  0.61769279  1
  Zn  Zn89  1  0.11254099  0.12723949  0.51020196  1
  Zn  Zn90  1  0.24883421  0.42816649  0.12741288  1
  Zn  Zn91  1  -0.00386526  0.50169698  0.00226571  1
  Zn  Zn92  1  0.62088852  0.62901507  0.50124851  1
  Zn  Zn93  1  0.12333351  0.37618307  0.74932200  1
  Zn  Zn94  1  0.62680843  0.25124775  0.38080526  1
  Zn  Zn95  1  0.24438282  0.12148635  0.37516526  1
  Zn  Zn96  1  0.38238343  0.89479055  0.00868221  1
  Zn  Zn97  1  0.01287888  0.61671504  0.13450167  1
  Zn  Zn98  1  0.75245759  0.49617462  0.25193349  1
  Zn  Zn99  1  0.37927141  0.00959515  0.87600155  1
  Zn  Zn100  1  0.49686819  0.24520200  0.75305356  1
  Zn  Zn101  1  0.75452157  0.24418359  0.00409527  1
  Zn  Zn102  1  0.37456053  0.37573367  0.49728909  1
  Zn  Zn103  1  0.86874102  0.12785895  0.24313063  1
  Zn  Zn104  1  0.36560792  0.13179537  0.24218098  1
  Zn  Zn105  1  0.62450102  0.74791496  0.87470980  1
  Zn  Zn106  1  0.00341494  0.00837142  0.51300485  1
  Zn  Zn107  1  0.17532586  0.18471163  0.18570877  1
  Zn  Zn108  1  0.19000390  0.19581541  0.68862553  1
  Zn  Zn109  1  0.21790789  0.64292328  0.16350886  1
  Zn  Zn110  1  0.18672154  0.68755998  0.68776618  1
  Zn  Zn111  1  0.68114991  0.18485037  0.18935622  1
  Zn  Zn112  1  0.68969025  0.18602216  0.69315931  1
  Zn  Zn113  1  0.69422208  0.68569836  0.18192697  1
  Zn  Zn114  1  0.68556656  0.68306745  0.68717221  1
  Zn  Zn115  1  0.29014761  0.29833689  0.26490323  1
  Zn  Zn116  1  0.31154403  0.31294912  0.81154651  1
  Zn  Zn117  1  0.31051598  0.81182181  0.31683620  1
  Zn  Zn118  1  0.31237211  0.81942814  0.81114181  1
  Zn  Zn119  1  0.81201577  0.30900886  0.31714581  1
  Zn  Zn120  1  0.81790490  0.31076129  0.81276690  1
  Zn  Zn121  1  0.81159799  0.81138713  0.31236985  1
  Zn  Zn122  1  0.81330615  0.80883198  0.81508002  1
  Zn  Zn123  1  0.18863126  0.43982262  0.43492346  1
  Zn  Zn124  1  0.19352801  0.42856253  0.94242794  1
  Zn  Zn125  1  0.18675359  0.94101096  0.44524450  1
  Zn  Zn126  1  0.19896681  0.94589893  0.93658703  1
  Zn  Zn127  1  0.68785062  0.43814092  0.44071033  1
  Zn  Zn128  1  0.69108607  0.43276759  0.93778000  1
  Zn  Zn129  1  0.68534348  0.93928554  0.43648831  1
  Zn  Zn130  1  0.69150065  0.93315764  0.93620281  1
  Zn  Zn131  1  0.33208115  0.10048604  0.03874766  1
  Zn  Zn132  1  0.30675722  0.06464142  0.56097921  1
  Zn  Zn133  1  0.32433960  0.57012679  0.05377796  1
  Zn  Zn134  1  0.30760831  0.56412362  0.55466650  1
  Zn  Zn135  1  0.81172086  0.05924544  0.06091181  1
  Zn  Zn136  1  0.81823212  0.06475076  0.56098846  1
  Zn  Zn137  1  0.81950223  0.55334703  0.06444312  1
  Zn  Zn138  1  0.80906709  0.56329454  0.56598244  1
  Zn  Zn139  1  0.43551435  0.43262528  0.18312824  1
  Zn  Zn140  1  0.43801687  0.43308201  0.68885494  1
  Zn  Zn141  1  0.43975373  0.94043938  0.18695164  1
  Zn  Zn142  1  0.43492269  0.93606969  0.68983626  1
  Zn  Zn143  1  0.93964996  0.44036357  0.18834897  1
  Zn  Zn144  1  0.93573343  0.43551171  0.68590769  1
  Zn  Zn145  1  0.93915562  0.94026262  0.18714528  1
  Zn  Zn146  1  0.93382867  0.93329624  0.69411944  1
  Zn  Zn147  1  0.06087390  0.06222160  0.31682339  1
  Zn  Zn148  1  0.06226800  0.06358714  0.67359611  1
  Zn  Zn149  1  0.05734371  0.56741706  0.32530305  1
  Zn  Zn150  1  0.06751451  0.56029528  0.81092933  1
  Zn  Zn151  1  0.56405892  0.06213845  0.31316104  1
  Zn  Zn152  1  0.56621711  0.06128268  0.81294924  1
  Zn  Zn153  1  0.56470701  0.54599923  0.31381948  1
  Zn  Zn154  1  0.56264454  0.56250696  0.81349966  1
  Zn  Zn155  1  0.43608099  0.18683686  0.43801851  1
  Zn  Zn156  1  0.43797618  0.19437864  0.94009300  1
  Zn  Zn157  1  0.43222697  0.68461559  0.44651788  1
  Zn  Zn158  1  0.44109480  0.68714862  0.93466050  1
  Zn  Zn159  1  0.93757200  0.18752644  0.43701495  1
  Zn  Zn160  1  0.93787742  0.19018701  0.93954167  1
  Zn  Zn161  1  0.93824679  0.69076709  0.44110889  1
  Zn  Zn162  1  0.94064556  0.68911535  0.93395346  1
  Zn  Zn163  1  0.07559032  0.31529592  0.06005774  1
  Zn  Zn164  1  0.06452165  0.31262728  0.55739109  1
  Zn  Zn165  1  0.06573043  0.80407634  0.06180670  1
  Zn  Zn166  1  0.06075870  0.82051021  0.56737338  1
  Zn  Zn167  1  0.56100620  0.30830326  0.06253095  1
  Zn  Zn168  1  0.56261017  0.31257870  0.56574101  1
  Zn  Zn169  1  0.56628897  0.81282865  0.06440818  1
  Zn  Zn170  1  0.55600055  0.81191775  0.56455075  1
  O  O171  1  0.11771308  0.11629077  0.11354359  1
  O  O172  1  0.13474629  0.12812397  0.62246450  1
  O  O173  1  0.12085125  0.64774178  0.10086508  1
  O  O174  1  0.12495423  0.61771226  0.61934299  1
  O  O175  1  0.62147695  0.10953132  0.12687216  1
  O  O176  1  0.61966906  0.11887003  0.62162391  1
  O  O177  1  0.62578434  0.61512595  0.11797948  1
  O  O178  1  0.61436046  0.61460670  0.62635166  1
  O  O179  1  0.38954253  0.38523919  0.37472257  1
  O  O180  1  0.38571832  0.37907216  0.87346629  1
  O  O181  1  0.38156893  0.88234850  0.38162797  1
  O  O182  1  0.39123260  0.87584082  0.87470225  1
  O  O183  1  0.87702737  0.38323215  0.38356085  1
  O  O184  1  0.89135192  0.37015747  0.88145053  1
  O  O185  1  0.87802952  0.88024543  0.38133470  1
  O  O186  1  0.88245515  0.87974745  0.87932321  1
  O  O187  1  0.25868249  -0.00445850  0.36769613  1
  O  O188  1  0.24858697  0.01267714  0.85792980  1
  O  O189  1  0.26121937  0.51363453  0.38065534  1
  O  O190  1  0.25951200  0.50522083  0.87641980  1
  O  O191  1  0.75754322  0.01058650  0.38255859  1
  O  O192  1  0.75713813  0.00388939  0.86986888  1
  O  O193  1  0.75522321  0.51283125  0.37766551  1
  O  O194  1  0.74540862  0.51014534  0.86715037  1
  O  O195  1  0.24784409  0.53983107  0.12650028  1
  O  O196  1  0.24396249  0.49285218  0.62196446  1
  O  O197  1  0.23691835  0.98716826  0.13532414  1
  O  O198  1  0.25360952  0.99650272  0.63815167  1
  O  O199  1  0.73992009  0.48852574  0.12645170  1
  O  O200  1  0.73558920  0.50482979  0.63513421  1
  O  O201  1  0.73943472  0.99231828  0.12193032  1
  O  O202  1  0.74674838  0.99372912  0.62979711  1
  O  O203  1  -0.00099279  0.37053200  0.26245738  1
  O  O204  1  0.00029566  0.37991688  0.76452045  1
  O  O205  1  0.00232475  0.86912015  0.25767306  1
  O  O206  1  0.00981074  0.86805240  0.75955875  1
  O  O207  1  0.50871689  0.36814210  0.25584555  1
  O  O208  1  0.50876165  0.37260150  0.76118441  1
  O  O209  1  0.50880241  0.87768232  0.26339066  1
  O  O210  1  0.50607770  0.86449871  0.75388270  1
  O  O211  1  0.50512145  0.13206341  0.24506448  1
  O  O212  1  0.50491685  0.12472117  0.73683921  1
  O  O213  1  0.52034586  0.63753965  0.25786446  1
  O  O214  1  0.50392155  0.63943392  0.74756943  1
  O  O215  1  0.99908337  0.13391849  0.24138194  1
  O  O216  1  0.98740767  0.11584724  0.74977345  1
  O  O217  1  0.99396985  0.63501365  0.25392221  1
  O  O218  1  0.99298119  0.62968893  0.75075007  1
  O  O219  1  0.35570965  0.21162561  0.01008099  1
  O  O220  1  0.36851047  0.25427266  0.50495256  1
  O  O221  1  0.36845758  0.75472869  -0.00298858  1
  O  O222  1  0.37740909  0.76659013  0.50137314  1
  O  O223  1  0.87138692  0.26564169  -0.00407949  1
  O  O224  1  0.86841319  0.25526257  0.51210193  1
  O  O225  1  0.87136649  0.75308827  0.00455546  1
  O  O226  1  0.86522024  0.76040655  0.50444178  1
  O  O227  1  0.13338129  0.25121453  0.48781294  1
  O  O228  1  0.12211387  0.23979255  0.98679490  1
  O  O229  1  0.11935710  0.75024849  0.49110213  1
  O  O230  1  0.13642253  0.75004690  0.98482748  1
  O  O231  1  0.63228616  0.24472733  0.50275312  1
  O  O232  1  0.63131279  0.25577823  0.98521695  1
  O  O233  1  0.63691788  0.75185129  0.50599301  1
  O  O234  1  0.63347322  0.73970619  1.00094584  1
  O  O235  1  0.51056072  0.23336972  0.13411499  1
  O  O236  1  0.49222328  0.24133771  0.62480260  1
  O  O237  1  0.49057984  0.75331807  0.12534400  1
  O  O238  1  0.50228002  0.74234550  0.63967511  1
  O  O239  1  1.00903643  0.23914319  0.13224623  1
  O  O240  1  0.99061957  0.25282273  0.62481128  1
  O  O241  1  0.99470533  0.74695993  0.13606233  1
  O  O242  1  0.99246766  0.75029005  0.63309237  1
  O  O243  1  0.00405476  0.25907050  0.36867961  1
  O  O244  1  0.00875727  0.25860108  0.87450166  1
  O  O245  1  0.00192044  0.76226625  0.37109453  1
  O  O246  1  0.01055381  0.75964517  0.86959808  1
  O  O247  1  0.50591995  0.25760659  0.37336042  1
  O  O248  1  0.50678164  0.25560218  0.87365524  1
  O  O249  1  0.50150061  0.75623431  0.38101010  1
  O  O250  1  0.50380724  0.75726343  0.86294039  1
  O  O251  1  0.25145878  0.14070693  0.49272866  1
  O  O252  1  0.23026297  0.11454557  0.97681829  1
  O  O253  1  0.23598242  0.62904921  0.49136343  1
  O  O254  1  0.24301571  0.63707982  0.98567087  1
  O  O255  1  0.74480125  0.13132251  0.49565731  1
  O  O256  1  0.75733132  0.12571497  0.98430242  1
  O  O257  1  0.74464239  0.63316694  0.49462229  1
  O  O258  1  0.74420422  0.62325888  0.99423650  1
  O  O259  1  0.23058197  0.36970421  0.02776135  1
  O  O260  1  0.25072020  0.36651826  0.50558412  1
  O  O261  1  0.25093501  0.86715256  0.00676331  1
  O  O262  1  0.25511393  0.88016590  0.51592501  1
  O  O263  1  0.75882836  0.37113878  0.00850571  1
  O  O264  1  0.75991331  0.36539319  0.49652543  1
  O  O265  1  0.75901918  0.86843036  0.00803609  1
  O  O266  1  0.75422605  0.86904182  0.50341024  1
  O  O267  1  0.10750652  0.49262428  0.25683640  1
  O  O268  1  0.13107998  0.49700050  0.73856037  1
  O  O269  1  0.12984009  0.99210383  0.24791410  1
  O  O270  1  0.13517677  0.99183255  0.74894649  1
  O  O271  1  0.62924279  0.48631138  0.24128326  1
  O  O272  1  0.63085653  0.49377625  0.74610949  1
  O  O273  1  0.62839961  0.98928545  0.24642058  1
  O  O274  1  0.63068544  0.98735661  0.74501095  1
  O  O275  1  0.36492543  -0.00553636  0.25800673  1
  O  O276  1  0.36214037  -0.00086957  0.75455749  1
  O  O277  1  0.39487771  0.50817774  0.26399374  1
  O  O278  1  0.37513901  0.49726659  0.76294396  1
  O  O279  1  0.87187317  0.00109497  0.26059690  1
  O  O280  1  0.86885748  0.00313847  0.76112506  1
  O  O281  1  0.87098076  0.50651163  0.26333783  1
  O  O282  1  0.86469732  0.50761312  0.74305422  1
  O  O283  1  0.11364070  0.37179248  0.37174491  1
  O  O284  1  0.11458043  0.36474474  0.87622828  1
  O  O285  1  0.11726964  0.86952259  0.37304277  1
  O  O286  1  0.12280170  0.87341375  0.86924754  1
  O  O287  1  0.61633578  0.37827941  0.36748757  1
  O  O288  1  0.61930288  0.36935603  0.86643329  1
  O  O289  1  0.61766579  0.87547057  0.36789924  1
  O  O290  1  0.61693133  0.87215491  0.86747250  1
  O  O291  1  0.39982376  0.10525660  0.13451572  1
  O  O292  1  0.38347536  0.13363334  0.61748432  1
  O  O293  1  0.38796478  0.64463986  0.11996599  1
  O  O294  1  0.38680388  0.61686293  0.62208747  1
  O  O295  1  0.88806420  0.11660150  0.12460683  1
  O  O296  1  0.87147076  0.13732223  0.63317135  1
  O  O297  1  0.86817145  0.63353702  0.13379563  1
  O  O298  1  0.87577274  0.63019995  0.63500978  1
  O  O299  1  0.26667957  0.24179021  0.16684001  1
  O  O300  1  0.25748104  0.25855966  0.61433633  1
  O  O301  1  0.26534955  0.75002878  0.11612722  1
  O  O302  1  0.25352026  0.76401905  0.63278236  1
  O  O303  1  0.74252645  0.25903360  0.12486250  1
  O  O304  1  0.75305196  0.24578837  0.61604499  1
  O  O305  1  0.75718721  0.75919723  0.11816102  1
  O  O306  1  0.75442869  0.75329795  0.61907493  1
  O  O307  1  0.24140473  0.25374979  0.37451843  1
  O  O308  1  0.23936851  0.23950979  0.86665950  1
  O  O309  1  0.24144053  0.74371622  0.37924055  1
  O  O310  1  0.24793166  0.74733406  0.87718583  1
  O  O311  1  0.74928248  0.24151897  0.38944461  1
  O  O312  1  0.74437174  0.24125845  0.87198851  1
  O  O313  1  0.75565704  0.73857879  0.38405906  1
  O  O314  1  0.74871027  0.73713436  0.88124712  1
  O  O315  1  0.00774289  0.12503755  0.00563457  1
  O  O316  1  -0.00439321  0.12334146  0.50466768  1
  O  O317  1  0.01596832  0.62667411  -0.00809671  1
  O  O318  1  0.01591444  0.63194449  0.50033310  1
  O  O319  1  0.50552981  0.12794575  0.01459175  1
  O  O320  1  0.50622936  0.11926902  0.50847044  1
  O  O321  1  0.51495388  0.61752542  -0.00280474  1
  O  O322  1  0.50290866  0.61792051  0.51009383  1
  O  O323  1  0.50157575  0.38185991  0.49345075  1
  O  O324  1  0.50752668  0.38267230  0.99044557  1
  O  O325  1  0.49385234  0.88109545  0.49354587  1
  O  O326  1  0.50242831  0.86932756  0.98414280  1
  O  O327  1  0.98637318  0.36842831  0.48809575  1
  O  O328  1  0.99425444  0.37494287  0.99375120  1
  O  O329  1  0.98922145  0.87369962  0.49186171  1
  O  O330  1  0.99336922  0.86582167  0.99241664  1
  O  O331  1  0.49677501  0.49466851  0.38756702  1
  O  O332  1  0.49646108  0.49259539  0.88047714  1
  O  O333  1  0.49414138  0.99202270  0.38029198  1
  O  O334  1  0.50055038  0.98434337  0.86621885  1
  O  O335  1  0.98381001  0.49466084  0.37944309  1
  O  O336  1  1.00691518  0.48656785  0.88015358  1
  O  O337  1  0.98786588  0.98722813  0.37008248  1
  O  O338  1  0.99216773  0.98557634  0.87249748  1
  O  O339  1  0.01220105  0.00880232  0.13225906  1
  O  O340  1  0.00375865  -0.01840731  0.62489638  1
  O  O341  1  -0.01411559  0.51043374  0.11605526  1
  O  O342  1  0.01152702  0.50018189  0.62625431  1
  O  O343  1  0.51807887  0.00521841  0.12878696  1
  O  O344  1  0.50254305  0.00535656  0.62216991  1
  O  O345  1  0.51189874  0.50148856  0.11901294  1
  O  O346  1  0.50636194  0.50418391  0.62279847  1
  O  O347  1  0.22681796  0.39287264  0.25357759  1
  O  O348  1  0.24899918  0.37656775  0.73458651  1
  O  O349  1  0.24266631  0.87798039  0.24600858  1
  O  O350  1  0.24605650  0.88544251  0.74185360  1
  O  O351  1  0.74369243  0.37269753  0.24562612  1
  O  O352  1  0.74426574  0.38629134  0.75830342  1
  O  O353  1  0.74547526  0.87124128  0.23829232  1
  O  O354  1  0.74367925  0.87819722  0.74734361  1
  O  O355  1  0.24758753  0.10672842  0.25401468  1
  O  O356  1  0.24681756  0.11754495  0.75724331  1
  O  O357  1  0.24578192  0.63420678  0.27264734  1
  O  O358  1  0.24724907  0.62436997  0.76290034  1
  O  O359  1  0.75001698  0.13348206  0.26619267  1
  O  O360  1  0.75804049  0.11666303  0.75945406  1
  O  O361  1  0.75546015  0.62436985  0.25988529  1
  O  O362  1  0.75558689  0.61696876  0.75760463  1
  O  O363  1  0.37524928  0.11032400  0.37172440  1
  O  O364  1  0.36008762  0.13157482  0.86887765  1
  O  O365  1  0.36286263  0.62094143  0.38302208  1
  O  O366  1  0.36833404  0.61521951  0.88001615  1
  O  O367  1  0.86640058  0.11592424  0.37388046  1
  O  O368  1  0.87272449  0.11778866  0.86879714  1
  O  O369  1  0.86852694  0.61980927  0.37537502  1
  O  O370  1  0.86855361  0.62811544  0.86334220  1
  O  O371  1  0.11339499  0.38364655  0.14289065  1
  O  O372  1  0.13163291  0.38153137  0.62260204  1
  O  O373  1  0.12707152  0.87767045  0.12996895  1
  O  O374  1  0.13943685  0.87089318  0.63430881  1
  O  O375  1  0.62978310  0.37824929  0.13172338  1
  O  O376  1  0.61831966  0.38320304  0.64065257  1
  O  O377  1  0.63224988  0.88461615  0.13021049  1
  O  O378  1  0.62824718  0.87980538  0.63154045  1
  O  O379  1  0.11144246  0.26313159  0.25619973  1
  O  O380  1  0.12457716  0.25669853  0.76219220  1
  O  O381  1  0.11097896  0.75629348  0.26443472  1
  O  O382  1  0.12459125  0.75850345  0.76014609  1
  O  O383  1  0.61820012  0.25890230  0.25572341  1
  O  O384  1  0.62393368  0.25803316  0.75753336  1
  O  O385  1  0.63135343  0.76189672  0.24749949  1
  O  O386  1  0.62514568  0.76090191  0.75004729  1
  O  O387  1  0.39392933  0.24591568  0.26479185  1
  O  O388  1  0.37692293  0.25465476  0.73379491  1
  O  O389  1  0.37579660  0.75381301  0.24047504  1
  O  O390  1  0.38630412  0.75237460  0.75077631  1
  O  O391  1  0.88813699  0.24853271  0.25499517  1
  O  O392  1  0.87204634  0.24216761  0.73611109  1
  O  O393  1  0.88497355  0.74607514  0.24781279  1
  O  O394  1  0.87973596  0.74202335  0.74611852  1
  O  O395  1  0.38779465  0.49860394  0.49479420  1
  O  O396  1  0.39231543  0.50403454  0.98988615  1
  O  O397  1  0.37791350  0.99414072  0.49236167  1
  O  O398  1  0.36405604  1.00359730  0.98896988  1
  O  O399  1  0.86611456  0.49023835  0.49760101  1
  O  O400  1  0.87243926  0.48004497  0.99440420  1
  O  O401  1  0.87370914  0.98693319  0.49329898  1
  O  O402  1  0.87241601  0.99215206  0.98679162  1
  O  O403  1  0.12573055  0.00199757  0.00905318  1
  O  O404  1  0.11333955  0.01565565  0.47534211  1
  O  O405  1  0.12759033  0.51815510  -0.00661450  1
  O  O406  1  0.12753676  0.50901467  0.50768585  1
  O  O407  1  0.62704309  -0.00513834  0.00964744  1
  O  O408  1  0.61724717  0.00361800  0.50788838  1
  O  O409  1  0.62070687  0.50303190  0.00562381  1
  O  O410  1  0.61567179  0.50058795  0.50983839  1
  O  O411  1  0.35589299  0.37975893  0.13200815  1
  O  O412  1  0.36884947  0.36984771  0.61955694  1
  O  O413  1  0.37262374  0.86579614  0.12384348  1
  O  O414  1  0.36303645  0.88052633  0.61850045  1
  O  O415  1  0.86723480  0.37569297  0.11737954  1
  O  O416  1  0.87667248  0.36192212  0.61891856  1
  O  O417  1  0.86965985  0.87157652  0.12162735  1
  O  O418  1  0.86541307  0.86893279  0.61906957  1
  O  O419  1  0.12419398  0.14371833  0.36757380  1
  O  O420  1  0.12437516  0.13953364  0.87656814  1
  O  O421  1  0.13146279  0.63377355  0.38314371  1
  O  O422  1  0.13222853  0.63542777  0.87923351  1
  O  O423  1  0.63188547  0.12417318  0.38584397  1
  O  O424  1  0.63520857  0.13377482  0.86761312  1
  O  O425  1  0.62911643  0.63293821  0.37347486  1
  O  O426  1  0.63381426  0.62577077  0.88254279  1
