# generated using pymatgen
data_V85Zn86O256
_symmetry_space_group_name_H-M   'P 1'
_cell_length_a   16.97437452
_cell_length_b   16.97199788
_cell_length_c   16.99324247
_cell_angle_alpha   90.09031286
_cell_angle_beta   90.08704177
_cell_angle_gamma   90.04651481
_symmetry_Int_Tables_number   1
_chemical_formula_structural   V85Zn86O256
_chemical_formula_sum   'V85 Zn86 O256'
_cell_volume   4895.55369809
_cell_formula_units_Z   1
loop_
 _symmetry_equiv_pos_site_id
 _symmetry_equiv_pos_as_xyz
  1  'x, y, z'
loop_
 _atom_site_type_symbol
 _atom_site_label
 _atom_site_symmetry_multiplicity
 _atom_site_fract_x
 _atom_site_fract_y
 _atom_site_fract_z
 _atom_site_occupancy
  V  V0  1  0.00048144  0.87426643  0.87591434  1
  V  V1  1  0.62428413  0.87709031  0.75120257  1
  V  V2  1  0.38218448  0.88560751  0.00204727  1
  V  V3  1  0.23756223  0.23033698  0.00478559  1
  V  V4  1  0.50234961  0.88974019  0.87557597  1
  V  V5  1  0.24433258  0.62077479  0.38158254  1
  V  V6  1  0.86937992  0.25106841  0.62309270  1
  V  V7  1  0.25959589  0.49445283  0.75540021  1
  V  V8  1  0.25298246  0.13299330  0.38439101  1
  V  V9  1  0.11739474  0.38036624  0.77591893  1
  V  V10  1  0.62086258  0.74904707  0.87977178  1
  V  V11  1  0.00432908  0.00206685  0.00091744  1
  V  V12  1  0.49862874  0.74726894  0.23371070  1
  V  V13  1  0.25023520  0.00135676  0.25134053  1
  V  V14  1  0.86595512  0.37356405  0.49610291  1
  V  V15  1  0.25231645  0.49953093  0.24823859  1
  V  V16  1  0.49988924  0.25184739  0.25267442  1
  V  V17  1  0.11827100  0.49358401  0.62564519  1
  V  V18  1  0.00485874  0.62963422  0.12452323  1
  V  V19  1  0.75083467  0.38443722  0.13140496  1
  V  V20  1  0.36801017  0.00820064  0.87205015  1
  V  V21  1  0.87334731  -0.00207251  0.87591111  1
  V  V22  1  0.37070505  0.12787313  0.74337388  1
  V  V23  1  0.86931026  0.61710363  0.75081275  1
  V  V24  1  0.12785867  0.86224444  0.24923243  1
  V  V25  1  0.00762799  0.49469241  -0.01121804  1
  V  V26  1  0.61644374  0.12310601  0.00109283  1
  V  V27  1  0.50177330  0.50641750  0.50945287  1
  V  V28  1  -0.00344842  0.87078415  0.37951670  1
  V  V29  1  0.75194916  0.61873994  0.87882518  1
  V  V30  1  0.11857942  0.00248508  0.62504317  1
  V  V31  1  0.12598338  0.00343409  0.12550284  1
  V  V32  1  0.13209726  0.62532408  -0.00407870  1
  V  V33  1  0.50463895  0.86260610  0.37886353  1
  V  V34  1  0.87132167  0.11598079  0.24985352  1
  V  V35  1  0.49802983  0.13602924  0.62328872  1
  V  V36  1  -0.00153558  0.25040277  0.25175131  1
  V  V37  1  0.74875347  0.11940005  0.37243404  1
  V  V38  1  0.24783489  0.36569961  0.12457859  1
  V  V39  1  0.88042425  0.37496582  -0.00706567  1
  V  V40  1  0.63013465  0.12807545  0.50145639  1
  V  V41  1  0.12717219  0.75776912  0.87509950  1
  V  V42  1  0.63187955  0.00143659  0.12865115  1
  V  V43  1  0.49620914  0.74662859  0.74106913  1
  V  V44  1  0.74548274  0.00003391  0.75309815  1
  V  V45  1  0.86635680  0.75033736  0.62586718  1
  V  V46  1  0.63012297  0.50429644  0.62921143  1
  V  V47  1  0.87321363  0.87291182  0.00263660  1
  V  V48  1  0.74641883  0.73985782  0.00526425  1
  V  V49  1  0.88170711  0.00195520  0.38351151  1
  V  V50  1  0.62058999  0.00114152  0.62675726  1
  V  V51  1  0.74763131  0.24906396  -0.00079116  1
  V  V52  1  0.41239242  0.29626176  0.07665801  1
  V  V53  1  0.25717340  0.87618617  0.12483702  1
  V  V54  1  0.55943567  0.56554322  -0.04597764  1
  V  V55  1  0.24241532  0.00556022  0.74693042  1
  V  V56  1  0.62479356  0.36735955  0.75992149  1
  V  V57  1  -0.00732449  0.75371210  0.75192217  1
  V  V58  1  0.37943776  0.50457454  0.37317259  1
  V  V59  1  0.75329524  0.60555526  0.37142056  1
  V  V60  1  0.38054500  -0.00118216  0.37674804  1
  V  V61  1  0.18387229  0.79769693  0.43081560  1
  V  V62  1  0.75017451  0.37897337  0.63046087  1
  V  V63  1  -0.00660458  0.38191742  0.37524875  1
  V  V64  1  0.50283889  0.37840245  0.37924953  1
  V  V65  1  0.12535790  0.25134140  0.38373698  1
  V  V66  1  0.87267490  0.12709235  0.75108549  1
  V  V67  1  0.11842511  0.22636707  0.88181560  1
  V  V68  1  0.26111924  0.62597138  0.86935737  1
  V  V69  1  0.12824210  0.49811569  0.12203469  1
  V  V70  1  -0.00565009  0.12406111  0.61845488  1
  V  V71  1  0.87424079  0.24977744  0.12538393  1
  V  V72  1  0.00108072  0.12348128  0.12543833  1
  V  V73  1  0.25776627  0.75542991  -0.00192650  1
  V  V74  1  0.74891840  0.75400171  0.48607233  1
  V  V75  1  0.62847172  0.87338647  0.25404799  1
  V  V76  1  0.17480188  0.82623401  0.69469032  1
  V  V77  1  0.75243951  0.87740764  0.13186113  1
  V  V78  1  0.74617952  0.12746812  0.87788519  1
  V  V79  1  0.49783842  0.11630078  0.12724685  1
  V  V80  1  0.63223406  0.25160204  0.37886053  1
  V  V81  1  -0.00870191  0.50302967  0.49870825  1
  V  V82  1  0.61458145  0.51345364  0.13432558  1
  V  V83  1  0.62515367  0.63104123  0.49917403  1
  V  V84  1  0.37573610  0.12848218  0.25090607  1
  Zn  Zn85  1  0.12370158  0.37414914  0.25199094  1
  Zn  Zn86  1  0.38122701  0.61534619  0.73523279  1
  Zn  Zn87  1  0.00344243  0.74320451  0.25617025  1
  Zn  Zn88  1  0.36482110  0.36771802  0.49949700  1
  Zn  Zn89  1  0.42288635  0.42139996  -0.07003826  1
  Zn  Zn90  1  0.87758163  0.61701274  0.26052899  1
  Zn  Zn91  1  0.38731052  0.62454312  0.23557560  1
  Zn  Zn92  1  0.87615095  0.49629030  0.87280385  1
  Zn  Zn93  1  0.35261186  0.24301310  0.60623658  1
  Zn  Zn94  1  0.36363548  0.87085296  0.50413477  1
  Zn  Zn95  1  0.74791836  0.87655064  0.62201487  1
  Zn  Zn96  1  0.50040713  -0.00263157  0.49925663  1
  Zn  Zn97  1  0.37122644  0.74751178  0.60951739  1
  Zn  Zn98  1  0.63211258  0.38198514  0.25470897  1
  Zn  Zn99  1  0.47661833  0.28134702  0.79168653  1
  Zn  Zn100  1  0.24395521  0.36594374  0.61939659  1
  Zn  Zn101  1  0.11860798  0.62460813  0.49579387  1
  Zn  Zn102  1  -0.00526265  0.25510011  0.75823516  1
  Zn  Zn103  1  0.87471259  0.88089209  0.50456941  1
  Zn  Zn104  1  0.12859022  0.13283656  0.51033563  1
  Zn  Zn105  1  0.00020791  0.62662004  0.62506353  1
  Zn  Zn106  1  0.88037181  0.75142542  0.13039782  1
  Zn  Zn107  1  0.18472135  0.18583268  0.19514562  1
  Zn  Zn108  1  0.18332042  0.19175492  0.69392138  1
  Zn  Zn109  1  0.22811055  0.66867072  0.16531212  1
  Zn  Zn110  1  0.22493793  0.64983297  0.65163279  1
  Zn  Zn111  1  0.68809615  0.19156917  0.18980992  1
  Zn  Zn112  1  0.68875863  0.19049533  0.68696404  1
  Zn  Zn113  1  0.68716251  0.69069318  0.19265404  1
  Zn  Zn114  1  0.68708768  0.68690761  0.68972310  1
  Zn  Zn115  1  0.31516005  0.31511553  0.31568641  1
  Zn  Zn116  1  0.29927090  0.30645085  0.81534904  1
  Zn  Zn117  1  0.32259418  0.81201211  0.30918715  1
  Zn  Zn118  1  0.32038263  0.81592383  0.81282073  1
  Zn  Zn119  1  0.81271603  0.30946297  0.31249671  1
  Zn  Zn120  1  0.80604496  0.31251933  0.81175757  1
  Zn  Zn121  1  0.82040714  0.80740676  0.30759156  1
  Zn  Zn122  1  0.80810674  0.80805808  0.81652198  1
  Zn  Zn123  1  0.18216495  0.43705642  0.43797801  1
  Zn  Zn124  1  0.23007206  0.44701680  0.95399885  1
  Zn  Zn125  1  0.18046259  0.96245857  0.43650491  1
  Zn  Zn126  1  0.18837510  0.94337122  0.93644588  1
  Zn  Zn127  1  0.68663351  0.43783285  0.44388329  1
  Zn  Zn128  1  0.69172607  0.43545015  0.94194424  1
  Zn  Zn129  1  0.68935376  0.94041858  0.43702214  1
  Zn  Zn130  1  0.68670108  0.93900943  0.94319768  1
  Zn  Zn131  1  0.31641346  0.06294042  0.06359162  1
  Zn  Zn132  1  0.30991058  0.05432086  0.56399956  1
  Zn  Zn133  1  0.33412510  0.55820206  0.05549900  1
  Zn  Zn134  1  0.30450401  0.53669154  0.55693105  1
  Zn  Zn135  1  0.81243811  0.06009241  0.06370647  1
  Zn  Zn136  1  0.80657182  0.06381736  0.56234118  1
  Zn  Zn137  1  0.83189660  0.54821099  0.09190973  1
  Zn  Zn138  1  0.81117207  0.56413130  0.56064167  1
  Zn  Zn139  1  0.44469583  0.44108371  0.19236050  1
  Zn  Zn140  1  0.43650725  0.42770591  0.68063625  1
  Zn  Zn141  1  0.44113526  0.93799869  0.19170009  1
  Zn  Zn142  1  0.43238570  0.93450056  0.68246817  1
  Zn  Zn143  1  0.93938964  0.44100366  0.18654267  1
  Zn  Zn144  1  0.94061070  0.43549100  0.68935110  1
  Zn  Zn145  1  0.94092534  0.93512577  0.19337486  1
  Zn  Zn146  1  0.93512758  0.93747607  0.68814461  1
  Zn  Zn147  1  0.06356656  0.06232358  0.31355466  1
  Zn  Zn148  1  0.05603633  0.05936273  0.80383015  1
  Zn  Zn149  1  0.06704380  0.56079844  0.31032421  1
  Zn  Zn150  1  0.06634050  0.57025107  0.81106899  1
  Zn  Zn151  1  0.56507219  0.05898790  0.31089167  1
  Zn  Zn152  1  0.54334314  0.09688211  0.82769639  1
  Zn  Zn153  1  0.56867584  0.56903362  0.31432100  1
  Zn  Zn154  1  0.55804656  0.55632282  0.79453758  1
  Zn  Zn155  1  0.44338408  0.18772976  0.44012575  1
  Zn  Zn156  1  0.42382715  0.21117793  0.92141793  1
  Zn  Zn157  1  0.43476457  0.68631440  0.43761070  1
  Zn  Zn158  1  0.43485794  0.69953994  0.93166355  1
  Zn  Zn159  1  0.93511064  0.19212674  0.43891792  1
  Zn  Zn160  1  0.93630470  0.18512369  0.93903478  1
  Zn  Zn161  1  0.93225110  0.68867715  0.43669225  1
  Zn  Zn162  1  0.93768554  0.68328806  0.94323286  1
  Zn  Zn163  1  0.06383732  0.31187389  0.06042695  1
  Zn  Zn164  1  0.05557459  0.31371603  0.56596037  1
  Zn  Zn165  1  0.06877060  0.81475982  0.06273631  1
  Zn  Zn166  1  0.04714981  0.81256123  0.56133818  1
  Zn  Zn167  1  0.57669269  0.31515234  0.06203510  1
  Zn  Zn168  1  0.56379336  0.31487326  0.56206806  1
  Zn  Zn169  1  0.56489894  0.81651210  0.06062851  1
  Zn  Zn170  1  0.56319789  0.81270043  0.56246013  1
  O  O171  1  0.11721870  0.11010790  0.13606617  1
  O  O172  1  0.11048906  0.12035034  0.63058215  1
  O  O173  1  0.12865385  0.61625753  0.11541258  1
  O  O174  1  0.12189050  0.60917393  0.61788334  1
  O  O175  1  0.62211269  0.11931722  0.12396598  1
  O  O176  1  0.62037619  0.12145495  0.61957217  1
  O  O177  1  0.63216129  0.61143441  0.12779034  1
  O  O178  1  0.63551791  0.61522184  0.61473938  1
  O  O179  1  0.38508283  0.38854754  0.37569231  1
  O  O180  1  0.39657405  0.32897265  0.86926958  1
  O  O181  1  0.38998620  0.88249810  0.37353683  1
  O  O182  1  0.38341575  0.88786967  0.87953971  1
  O  O183  1  0.88049905  0.36780197  0.38406369  1
  O  O184  1  0.86535644  0.37705306  0.88902372  1
  O  O185  1  0.88223138  0.88623805  0.37077788  1
  O  O186  1  0.87737954  0.87860539  0.88413598  1
  O  O187  1  0.25796034  0.00942257  0.36779551  1
  O  O188  1  0.25630940  -0.00575156  0.86098051  1
  O  O189  1  0.25872378  0.50146124  0.36504767  1
  O  O190  1  0.23675789  0.51492315  0.86319004  1
  O  O191  1  0.75734198  0.01389700  0.37417307  1
  O  O192  1  0.75673229  0.00304987  0.87272971  1
  O  O193  1  0.74889778  0.50629245  0.37582679  1
  O  O194  1  0.75300019  0.51567478  0.88716586  1
  O  O195  1  0.24183389  0.48654751  0.13009945  1
  O  O196  1  0.23353570  0.49859799  0.64413611  1
  O  O197  1  0.24405851  0.99362491  0.12974129  1
  O  O198  1  0.23718610  0.99945632  0.63599114  1
  O  O199  1  0.73622908  0.48531125  0.11148908  1
  O  O200  1  0.74291548  0.49071571  0.61944273  1
  O  O201  1  0.74576201  0.98952720  0.12551975  1
  O  O202  1  0.73786928  1.00129214  0.63410487  1
  O  O203  1  -0.00410488  0.36892355  0.25666934  1
  O  O204  1  0.01283175  0.37260804  0.75462848  1
  O  O205  1  0.01275961  0.87382170  0.26100519  1
  O  O206  1  -0.01208876  0.86207821  0.76068284  1
  O  O207  1  0.50415694  0.36878467  0.26323619  1
  O  O208  1  0.51776162  0.37702689  0.74569253  1
  O  O209  1  0.50750992  0.86884836  0.25816357  1
  O  O210  1  0.51010165  0.87085653  0.75566932  1
  O  O211  1  0.49919926  0.13261371  0.24407855  1
  O  O212  1  0.48350079  0.11245398  0.73148121  1
  O  O213  1  0.50523388  0.64291096  0.25154326  1
  O  O214  1  0.49587015  0.64035177  0.75331488  1
  O  O215  1  0.99287500  0.13205119  0.24638803  1
  O  O216  1  0.98645453  0.12957070  0.74338900  1
  O  O217  1  1.00484513  0.62318370  0.23662032  1
  O  O218  1  0.99212218  0.63948984  0.75084099  1
  O  O219  1  0.35770479  0.23348117  0.01013324  1
  O  O220  1  0.37496281  0.25449912  0.49279918  1
  O  O221  1  0.36381882  0.76842051  -0.00839027  1
  O  O222  1  0.37439002  0.75720926  0.49488527  1
  O  O223  1  0.86815789  0.25396254  0.00645215  1
  O  O224  1  0.87763597  0.26126588  0.51051069  1
  O  O225  1  0.86938357  0.76362489  -0.00167878  1
  O  O226  1  0.86522259  0.75237712  0.51045070  1
  O  O227  1  0.11385102  0.24997354  0.48700997  1
  O  O228  1  0.12603640  0.24248636  0.99288010  1
  O  O229  1  0.12403644  0.74925783  0.49823026  1
  O  O230  1  0.13783939  0.75003648  0.99166823  1
  O  O231  1  0.62046174  0.24139681  0.49016609  1
  O  O232  1  0.64038778  0.23875117  1.00615168  1
  O  O233  1  0.63637206  0.74141305  0.50834578  1
  O  O234  1  0.63536979  0.75655857  0.99338049  1
  O  O235  1  0.49647396  0.24593613  0.13273117  1
  O  O236  1  0.50149604  0.23741573  0.62146988  1
  O  O237  1  0.50171462  0.75749863  0.13522981  1
  O  O238  1  0.50516560  0.75102242  0.64010521  1
  O  O239  1  0.99509831  0.24483263  0.13222534  1
  O  O240  1  0.98637980  0.24465261  0.63202071  1
  O  O241  1  1.00915933  0.74266334  0.12729887  1
  O  O242  1  0.98541409  0.74872986  0.63420913  1
  O  O243  1  0.00281799  0.25832168  0.36800510  1
  O  O244  1  0.01345813  0.24451809  0.87939685  1
  O  O245  1  -0.00488621  0.76134380  0.37307859  1
  O  O246  1  0.00705134  0.75261846  0.87099287  1
  O  O247  1  0.51261469  0.25713387  0.37021779  1
  O  O248  1  0.51685059  0.20418741  0.86316176  1
  O  O249  1  0.50205643  0.76193009  0.36753303  1
  O  O250  1  0.50452534  0.76536364  0.86580024  1
  O  O251  1  0.24849648  0.11829459  0.48639882  1
  O  O252  1  0.24038847  0.13116929  1.01149032  1
  O  O253  1  0.24543783  0.61203228  0.48442717  1
  O  O254  1  0.24939862  0.63950484  0.98810444  1
  O  O255  1  0.73737868  0.12534096  0.49186413  1
  O  O256  1  0.74667611  0.13064009  0.99701044  1
  O  O257  1  0.74612000  0.63224396  0.49045408  1
  O  O258  1  0.75975622  0.63861727  0.99782801  1
  O  O259  1  0.24553933  0.35409217  0.01928535  1
  O  O260  1  0.26057615  0.41848544  0.51328334  1
  O  O261  1  0.25761891  0.87519526  0.00613461  1
  O  O262  1  0.23803911  0.86758014  0.48026815  1
  O  O263  1  0.75500253  0.36527511  0.00898628  1
  O  O264  1  0.76056424  0.37742848  0.50969726  1
  O  O265  1  0.75744547  0.86935484  0.01010160  1
  O  O266  1  0.75130953  0.86815226  0.50177135  1
  O  O267  1  0.13301799  0.49427053  0.23960341  1
  O  O268  1  0.12196412  0.49003288  0.74764673  1
  O  O269  1  0.13261298  0.99153112  0.24609279  1
  O  O270  1  0.13076921  0.99910204  0.74136464  1
  O  O271  1  0.62284695  0.49882559  0.23906469  1
  O  O272  1  0.62561214  0.49172692  0.73452876  1
  O  O273  1  0.62330131  0.98875714  0.23878847  1
  O  O274  1  0.62852113  0.99301487  0.74491869  1
  O  O275  1  0.37098755  0.00480465  0.26096706  1
  O  O276  1  0.36317270  0.00467263  0.75187758  1
  O  O277  1  0.37016475  0.50296522  0.25515987  1
  O  O278  1  0.36371108  0.49537013  0.74829942  1
  O  O279  1  0.88011935  0.01228231  0.25812224  1
  O  O280  1  0.86535132  0.00618117  0.75613102  1
  O  O281  1  0.86638021  0.52161363  0.20152031  1
  O  O282  1  0.88236276  0.51357599  0.75362387  1
  O  O283  1  0.11483151  0.36839061  0.37314895  1
  O  O284  1  0.12517236  0.38045090  0.87309639  1
  O  O285  1  0.12442680  0.86898508  0.37360730  1
  O  O286  1  0.11760057  0.86532210  0.88230842  1
  O  O287  1  0.62268599  0.36816698  0.37517370  1
  O  O288  1  0.63490725  0.38098724  0.85862898  1
  O  O289  1  0.61499823  0.88488570  0.36548168  1
  O  O290  1  0.61899563  0.87415953  0.87071994  1
  O  O291  1  0.38654992  0.11788882  0.13605839  1
  O  O292  1  0.38081980  0.12381143  0.62521517  1
  O  O293  1  0.33587765  0.63141384  0.13464544  1
  O  O294  1  0.34040856  0.63379613  0.62750666  1
  O  O295  1  0.87925842  0.12824428  0.13340855  1
  O  O296  1  0.87430458  0.13185801  0.62972495  1
  O  O297  1  0.90286395  0.63860988  0.09819762  1
  O  O298  1  0.87225601  0.63292271  0.63466603  1
  O  O299  1  0.23941374  0.25157266  0.11934812  1
  O  O300  1  0.23786910  0.25156065  0.61978780  1
  O  O301  1  0.24324379  0.77002886  0.11144856  1
  O  O302  1  0.22801136  0.76551713  0.63676124  1
  O  O303  1  0.75610462  0.25749697  0.11920470  1
  O  O304  1  0.76207662  0.25819636  0.62754449  1
  O  O305  1  0.75212582  0.75770411  0.11934657  1
  O  O306  1  0.75794411  0.75152839  0.62213614  1
  O  O307  1  0.23813100  0.24442817  0.36735029  1
  O  O308  1  0.23165471  0.24856775  0.89498323  1
  O  O309  1  0.24800390  0.74213282  0.37040932  1
  O  O310  1  0.24450676  0.75063809  0.87693338  1
  O  O311  1  0.73846829  0.24035014  0.37018352  1
  O  O312  1  0.75447097  0.23838691  0.88605892  1
  O  O313  1  0.75441993  0.75157767  0.38551845  1
  O  O314  1  0.74017358  0.73955896  0.88313472  1
  O  O315  1  -0.00954342  0.10878945  0.00909930  1
  O  O316  1  -0.00330050  0.13051332  0.51582327  1
  O  O317  1  0.01631049  0.61787938  0.00152928  1
  O  O318  1  -0.00380349  0.61636229  0.50127734  1
  O  O319  1  0.51432086  0.13068314  0.01350527  1
  O  O320  1  0.51250968  0.11824438  0.50497190  1
  O  O321  1  0.49572526  0.62744573  -0.00045249  1
  O  O322  1  0.51304098  0.61776703  0.49217284  1
  O  O323  1  0.50518710  0.38619137  0.48849969  1
  O  O324  1  0.47951517  0.35267778  1.01550974  1
  O  O325  1  0.50856232  0.87804919  0.48508189  1
  O  O326  1  0.49188319  0.87524593  0.99047504  1
  O  O327  1  0.98744305  0.38027470  0.49284967  1
  O  O328  1  0.99235984  0.38215662  1.00504815  1
  O  O329  1  0.99370574  0.87688008  0.48586709  1
  O  O330  1  0.99284047  0.88247489  0.99756174  1
  O  O331  1  0.49755541  0.49502902  0.37677120  1
  O  O332  1  0.50509718  0.50617888  0.88929954  1
  O  O333  1  0.49298100  0.99389499  0.37445391  1
  O  O334  1  0.49235751  0.99340875  0.86727462  1
  O  O335  1  1.00131541  0.48799113  0.37923135  1
  O  O336  1  1.00082436  0.50828630  0.88719277  1
  O  O337  1  0.99148320  0.99284172  0.37078834  1
  O  O338  1  0.99404820  0.99513147  0.88227011  1
  O  O339  1  0.00712889  0.00063987  0.12019667  1
  O  O340  1  0.00434230  0.01103825  0.63503672  1
  O  O341  1  0.01674609  0.50621534  0.11381403  1
  O  O342  1  0.00185192  0.50314160  0.61837783  1
  O  O343  1  0.50993785  0.01136578  0.13079488  1
  O  O344  1  0.51151956  0.00428858  0.62195738  1
  O  O345  1  0.51424418  0.49956190  0.12419823  1
  O  O346  1  0.50809402  0.49821791  0.61468398  1
  O  O347  1  0.24879074  0.38192737  0.24406490  1
  O  O348  1  0.23350327  0.38100432  0.75500084  1
  O  O349  1  0.24877032  0.87945381  0.24331397  1
  O  O350  1  0.24230598  0.87920828  0.75179360  1
  O  O351  1  0.75315303  0.37033023  0.23468540  1
  O  O352  1  0.74260534  0.37642701  0.73834397  1
  O  O353  1  0.74446822  0.86792866  0.23984886  1
  O  O354  1  0.73632642  0.87688537  0.75304373  1
  O  O355  1  0.25660564  0.12148527  0.26013082  1
  O  O356  1  0.25522742  0.11456983  0.74668612  1
  O  O357  1  0.24380202  0.60705967  0.26207249  1
  O  O358  1  0.24611724  0.61157323  0.75867663  1
  O  O359  1  0.76039618  0.13135449  0.25835940  1
  O  O360  1  0.75157678  0.12178423  0.76048444  1
  O  O361  1  0.74451579  0.63072416  0.27177981  1
  O  O362  1  0.75823412  0.63109529  0.76410770  1
  O  O363  1  0.37157063  0.11799145  0.37061689  1
  O  O364  1  0.37467066  0.11236346  0.86389671  1
  O  O365  1  0.36935273  0.61391322  0.36740452  1
  O  O366  1  0.36292049  0.63515417  0.86559833  1
  O  O367  1  0.86982206  0.12158340  0.37035552  1
  O  O368  1  0.86448376  0.11774962  0.87321404  1
  O  O369  1  0.85909112  0.62130776  0.37746228  1
  O  O370  1  0.86632003  0.62598251  0.86990534  1
  O  O371  1  0.13056654  0.37970283  0.12899872  1
  O  O372  1  0.11917535  0.38506380  0.63103600  1
  O  O373  1  0.13248622  0.88636068  0.13289901  1
  O  O374  1  0.11366847  0.88103598  0.63064694  1
  O  O375  1  0.63789294  0.38102117  0.13037556  1
  O  O376  1  0.63485162  0.38195965  0.62611066  1
  O  O377  1  0.63388593  0.88363123  0.12952249  1
  O  O378  1  0.62559344  0.88375805  0.63414381  1
  O  O379  1  0.11035772  0.25051155  0.25975635  1
  O  O380  1  0.12353943  0.25975655  0.77251830  1
  O  O381  1  0.12984637  0.76310615  0.24394198  1
  O  O382  1  0.11550379  0.76150046  0.75461856  1
  O  O383  1  0.61469221  0.25240076  0.25773189  1
  O  O384  1  0.62945607  0.26695652  0.74665408  1
  O  O385  1  0.61511878  0.76589221  0.24508714  1
  O  O386  1  0.61643863  0.75638495  0.75704001  1
  O  O387  1  0.39142081  0.24476441  0.26111516  1
  O  O388  1  0.36890491  0.23305196  0.74572724  1
  O  O389  1  0.39415756  0.74935607  0.24890357  1
  O  O390  1  0.39096026  0.75331650  0.74795801  1
  O  O391  1  0.88445113  0.24111830  0.24668250  1
  O  O392  1  0.87331514  0.24442337  0.74562117  1
  O  O393  1  0.88273483  0.73667934  0.24487157  1
  O  O394  1  0.87701163  0.74275003  0.74660817  1
  O  O395  1  0.39263830  0.50577217  0.48884296  1
  O  O396  1  0.34202629  0.47995566  0.98155880  1
  O  O397  1  0.37453303  0.99276403  0.48758515  1
  O  O398  1  0.36867165  0.99353384  0.98809959  1
  O  O399  1  0.88408223  0.49023054  0.50612314  1
  O  O400  1  0.88939701  0.49043700  1.00137914  1
  O  O401  1  0.86866202  1.00153043  0.48727675  1
  O  O402  1  0.88006461  0.98850509  0.99747770  1
  O  O403  1  0.11510083  -0.00602757  0.01097701  1
  O  O404  1  0.12343251  0.00944568  0.51928622  1
  O  O405  1  0.12794965  0.50162963  0.00540134  1
  O  O406  1  0.10518434  0.49576432  0.50788726  1
  O  O407  1  0.63085577  0.00920100  0.01686477  1
  O  O408  1  0.62711381  0.00824537  0.51039829  1
  O  O409  1  0.61800788  0.50028635  0.00840897  1
  O  O410  1  0.61965218  0.50707550  0.50920682  1
  O  O411  1  0.36663816  0.36780495  0.13858430  1
  O  O412  1  0.36793699  0.36424473  0.62066511  1
  O  O413  1  0.36862012  0.88832217  0.11565268  1
  O  O414  1  0.37745774  0.86436681  0.61749198  1
  O  O415  1  0.86562051  0.36984813  0.11478170  1
  O  O416  1  0.86888569  0.36969267  0.62236622  1
  O  O417  1  0.87030225  0.87438293  0.12098873  1
  O  O418  1  0.86939163  0.86721547  0.62515304  1
  O  O419  1  0.13342725  0.13289893  0.37712716  1
  O  O420  1  0.12091070  0.12851552  0.87215860  1
  O  O421  1  0.13400575  0.62135890  0.37893356  1
  O  O422  1  0.13282241  0.64214253  0.87720330  1
  O  O423  1  0.63116783  0.12862066  0.38003418  1
  O  O424  1  0.64121614  0.10751423  0.88946701  1
  O  O425  1  0.63849032  0.62116155  0.39052173  1
  O  O426  1  0.62151953  0.62117290  0.88431659  1
