# generated using pymatgen
data_V85Zn86O256
_symmetry_space_group_name_H-M   'P 1'
_cell_length_a   16.96638149
_cell_length_b   16.96748153
_cell_length_c   16.97841303
_cell_angle_alpha   90.08475469
_cell_angle_beta   89.96591752
_cell_angle_gamma   90.08121645
_symmetry_Int_Tables_number   1
_chemical_formula_structural   V85Zn86O256
_chemical_formula_sum   'V85 Zn86 O256'
_cell_volume   4887.67949542
_cell_formula_units_Z   1
loop_
 _symmetry_equiv_pos_site_id
 _symmetry_equiv_pos_as_xyz
  1  'x, y, z'
loop_
 _atom_site_type_symbol
 _atom_site_label
 _atom_site_symmetry_multiplicity
 _atom_site_fract_x
 _atom_site_fract_y
 _atom_site_fract_z
 _atom_site_occupancy
  V  V0  1  0.74059264  0.49257379  0.75353870  1
  V  V1  1  0.88349830  0.37634960  0.00127121  1
  V  V2  1  0.74899778  0.37211119  0.12291374  1
  V  V3  1  0.88255383  0.49738774  0.87690964  1
  V  V4  1  0.25656761  0.88117533  0.62687417  1
  V  V5  1  0.74956683  0.25111875  0.50033857  1
  V  V6  1  0.24578805  0.49446996  0.24407066  1
  V  V7  1  0.25037989  0.62194850  0.38271639  1
  V  V8  1  0.76458414  0.75279616  0.00586962  1
  V  V9  1  0.87772744  0.62516850  0.74123318  1
  V  V10  1  0.74431987  0.24660210  -0.00341643  1
  V  V11  1  0.75173589  -0.00637571  0.74290783  1
  V  V12  1  0.62754086  -0.00940441  0.62383036  1
  V  V13  1  0.74998403  0.75204757  0.50309835  1
  V  V14  1  0.50998796  0.12332572  0.10829872  1
  V  V15  1  0.12687390  0.75298740  0.87766082  1
  V  V16  1  0.74279319  0.37329445  0.62886404  1
  V  V17  1  0.25163615  0.12003185  0.85581371  1
  V  V18  1  0.88202774  0.49469374  0.37304734  1
  V  V19  1  0.25224767  0.62426439  0.87637657  1
  V  V20  1  0.13262747  0.12494091  -0.00343723  1
  V  V21  1  0.00014308  0.25364176  0.25184224  1
  V  V22  1  0.37520685  0.24659326  0.62980125  1
  V  V23  1  0.11729781  0.62993886  0.50775969  1
  V  V24  1  0.37232139  0.50179297  0.37216979  1
  V  V25  1  0.49808378  0.37690930  0.37434538  1
  V  V26  1  0.49307675  0.49920677  -0.00095374  1
  V  V27  1  0.12574535  0.87417295  0.74985460  1
  V  V28  1  0.61993357  0.24388895  0.87505017  1
  V  V29  1  -0.00049262  0.49974470  0.50190149  1
  V  V30  1  -0.00123139  0.24826135  0.74818873  1
  V  V31  1  0.87732726  0.12120375  0.74837527  1
  V  V32  1  0.62246823  0.37631878  0.25049874  1
  V  V33  1  0.37704968  0.63583296  0.75512593  1
  V  V34  1  0.87322985  0.24190674  0.12312644  1
  V  V35  1  0.11995181  0.50408926  0.62702156  1
  V  V36  1  0.12506803  0.00316101  0.63249465  1
  V  V37  1  0.62277909  0.25059642  0.37562992  1
  V  V38  1  0.87918598  0.24711826  0.62379981  1
  V  V39  1  0.76256995  0.87469729  0.13415569  1
  V  V40  1  0.62154181  0.12262596  0.50032358  1
  V  V41  1  0.13362480  0.89305765  0.25367884  1
  V  V42  1  0.75072783  0.11965661  0.87028378  1
  V  V43  1  0.25059739  0.37683550  0.62778929  1
  V  V44  1  0.62448958  0.49698993  0.12323058  1
  V  V45  1  0.37104022  0.36528152  -0.00086841  1
  V  V46  1  0.50356324  0.63325516  0.12653650  1
  V  V47  1  0.75098785  0.62040502  0.87913694  1
  V  V48  1  0.25029154  0.11867142  0.37209769  1
  V  V49  1  -0.00173106  0.87189999  0.37155204  1
  V  V50  1  0.87451193  0.00014449  0.37466087  1
  V  V51  1  0.25453183  0.75650671  0.50420335  1
  V  V52  1  0.49707562  0.12156609  0.63227228  1
  V  V53  1  0.75161160  0.49904361  0.25078138  1
  V  V54  1  0.50591578  0.25442670  0.74975617  1
  V  V55  1  0.37029972  0.24604504  0.12727391  1
  V  V56  1  0.87982539  0.37411381  0.49700925  1
  V  V57  1  0.74829966  0.12379292  0.37421810  1
  V  V58  1  0.37445004  0.37592685  0.50095552  1
  V  V59  1  0.88404989  0.63108166  0.25225558  1
  V  V60  1  0.62841248  0.62677908  -0.00116631  1
  V  V61  1  0.62344821  0.74930311  0.37141279  1
  V  V62  1  0.50567528  0.37768581  0.87209474  1
  V  V63  1  0.39358208  -0.01441841  0.87469477  1
  V  V64  1  0.12067906  0.74835907  0.36912433  1
  V  V65  1  0.11739247  0.49269780  0.11846162  1
  V  V66  1  0.12442661  0.37622405  0.75077315  1
  V  V67  1  0.00314576  0.63041610  0.12481981  1
  V  V68  1  0.12640421  0.25183530  0.87709649  1
  V  V69  1  -0.02100953  0.87301267  0.87476964  1
  V  V70  1  0.49101891  0.87325741  0.37511774  1
  V  V71  1  0.49983694  0.50364257  0.50235533  1
  V  V72  1  0.12091551  0.25574881  0.37328378  1
  V  V73  1  0.75014798  0.62256054  0.37558766  1
  V  V74  1  -0.00133345  0.00321176  0.50651527  1
  V  V75  1  -0.01632088  -0.00302457  -0.00843728  1
  V  V76  1  0.00056211  0.11895829  0.12023195  1
  V  V77  1  0.48866299  -0.00527274  0.50089627  1
  V  V78  1  0.34805824  0.64295825  0.21974912  1
  V  V79  1  0.38250426  0.11555038  0.25331235  1
  V  V80  1  0.11573020  0.61999457  -0.00567825  1
  V  V81  1  0.24950113  0.24975468  0.49975297  1
  V  V82  1  0.87073977  0.87516509  0.50732536  1
  V  V83  1  0.50118291  0.63327000  0.63297927  1
  V  V84  1  0.12015138  0.12676465  0.50407402  1
  Zn  Zn85  1  0.87758023  0.74904897  0.62467774  1
  Zn  Zn86  1  0.24690170  0.36454212  0.12232992  1
  Zn  Zn87  1  0.89110688  0.75291767  0.12837004  1
  Zn  Zn88  1  0.62099722  0.85824778  0.73858698  1
  Zn  Zn89  1  0.37612795  0.49922221  0.87122975  1
  Zn  Zn90  1  0.62000498  -0.00484906  0.11646397  1
  Zn  Zn91  1  0.49626842  0.74933933  0.24886783  1
  Zn  Zn92  1  0.87523025  0.12405008  0.24951085  1
  Zn  Zn93  1  0.49974704  0.25078112  0.24952518  1
  Zn  Zn94  1  0.62204941  0.87792771  0.24763700  1
  Zn  Zn95  1  0.00075076  0.74579231  0.74308113  1
  Zn  Zn96  1  0.12313298  0.37190891  0.25079567  1
  Zn  Zn97  1  0.25362042  0.50135423  0.74943620  1
  Zn  Zn98  1  0.62372465  0.62311812  0.49975026  1
  Zn  Zn99  1  0.74586804  -0.00052106  0.25210799  1
  Zn  Zn100  1  0.30818555  0.84363398  0.04311485  1
  Zn  Zn101  1  0.61880968  0.49518468  0.63230635  1
  Zn  Zn102  1  0.00319978  0.37645696  0.87977471  1
  Zn  Zn103  1  0.52767255  0.86087304  0.86784929  1
  Zn  Zn104  1  0.17117921  -0.03546602  0.09740017  1
  Zn  Zn105  1  0.38238746  0.76213582  0.62721336  1
  Zn  Zn106  1  0.36667580  -0.00959513  0.37682200  1
  Zn  Zn107  1  0.21046789  0.14558650  0.16510963  1
  Zn  Zn108  1  0.18284792  0.19075298  0.68446345  1
  Zn  Zn109  1  0.17394805  0.68253299  0.19201219  1
  Zn  Zn110  1  0.18998604  0.69107608  0.69038023  1
  Zn  Zn111  1  0.68677171  0.18794425  0.19115791  1
  Zn  Zn112  1  0.68506614  0.18490185  0.68701585  1
  Zn  Zn113  1  0.69178681  0.68690636  0.18820382  1
  Zn  Zn114  1  0.69674162  0.67386325  0.67934848  1
  Zn  Zn115  1  0.31070099  0.30683636  0.31030521  1
  Zn  Zn116  1  0.31629268  0.30499950  0.81421254  1
  Zn  Zn117  1  0.30749859  0.81027745  0.31315126  1
  Zn  Zn118  1  0.31031015  0.81483746  0.81494703  1
  Zn  Zn119  1  0.81273497  0.31149900  0.31105189  1
  Zn  Zn120  1  0.81265377  0.31092981  0.81348278  1
  Zn  Zn121  1  0.81417984  0.80998463  0.31610071  1
  Zn  Zn122  1  0.75236716  0.80651328  0.81427406  1
  Zn  Zn123  1  0.18572720  0.43698916  0.44062875  1
  Zn  Zn124  1  0.19183484  0.43999373  0.93801372  1
  Zn  Zn125  1  0.18438381  0.93707067  0.44166904  1
  Zn  Zn126  1  0.18534700  0.94389510  0.92814876  1
  Zn  Zn127  1  0.68823320  0.43766159  0.43941677  1
  Zn  Zn128  1  0.68664689  0.43347019  0.93637659  1
  Zn  Zn129  1  0.68236826  0.93457951  0.43682049  1
  Zn  Zn130  1  0.67592038  0.93601985  0.93660840  1
  Zn  Zn131  1  0.33940772  0.02427548  0.07111068  1
  Zn  Zn132  1  0.30927446  0.06472835  0.56520042  1
  Zn  Zn133  1  0.31413012  0.65452646  0.05070907  1
  Zn  Zn134  1  0.31354734  0.56550624  0.56702681  1
  Zn  Zn135  1  0.78107926  0.04075103  0.03797592  1
  Zn  Zn136  1  0.81232529  0.06460579  0.56200176  1
  Zn  Zn137  1  0.81819124  0.56011640  0.06484251  1
  Zn  Zn138  1  0.80806253  0.55858432  0.56171890  1
  Zn  Zn139  1  0.43208415  0.44173939  0.18565353  1
  Zn  Zn140  1  0.43720478  0.44182716  0.69149604  1
  Zn  Zn141  1  0.43948094  0.93387350  0.18274854  1
  Zn  Zn142  1  0.43912756  0.94027383  0.70196702  1
  Zn  Zn143  1  0.93884479  0.43551456  0.18601748  1
  Zn  Zn144  1  0.93505431  0.43601297  0.68899109  1
  Zn  Zn145  1  0.94094854  0.93911860  0.18847053  1
  Zn  Zn146  1  0.93935576  0.93447381  0.68905470  1
  Zn  Zn147  1  0.05832541  0.06901667  0.31583567  1
  Zn  Zn148  1  0.05685780  0.06280995  0.81443244  1
  Zn  Zn149  1  0.06300623  0.55961513  0.31375437  1
  Zn  Zn150  1  0.05950756  0.56170975  0.81066078  1
  Zn  Zn151  1  0.56292280  0.05474138  0.30954045  1
  Zn  Zn152  1  0.56217549  0.05775533  0.81134638  1
  Zn  Zn153  1  0.55911365  0.56556432  0.30995429  1
  Zn  Zn154  1  0.57897872  0.69320235  0.81525939  1
  Zn  Zn155  1  0.43732067  0.18637393  0.43931873  1
  Zn  Zn156  1  0.41054050  0.15852685  0.95229247  1
  Zn  Zn157  1  0.43516911  0.68832220  0.43985895  1
  Zn  Zn158  1  0.44561094  0.75795393  0.95864198  1
  Zn  Zn159  1  0.93815283  0.18662162  0.43757001  1
  Zn  Zn160  1  0.93600429  0.18735265  0.93493575  1
  Zn  Zn161  1  0.93797626  0.68689350  0.43922728  1
  Zn  Zn162  1  0.93980200  0.68633694  0.93400372  1
  Zn  Zn163  1  0.06261660  0.30605493  0.06507144  1
  Zn  Zn164  1  0.06094049  0.31418198  0.56372996  1
  Zn  Zn165  1  0.08898649  0.82417931  0.05130149  1
  Zn  Zn166  1  0.05904398  0.81353721  0.56474842  1
  Zn  Zn167  1  0.55707157  0.30571637  0.06008001  1
  Zn  Zn168  1  0.56072380  0.31223746  0.56082184  1
  Zn  Zn169  1  0.57802226  0.81439720  0.06034434  1
  Zn  Zn170  1  0.56362369  0.81295128  0.55632045  1
  O  O171  1  0.11082087  0.14083411  0.10495019  1
  O  O172  1  0.12803062  0.11895398  0.61190158  1
  O  O173  1  0.11903456  0.61407939  0.11593092  1
  O  O174  1  0.12988323  0.61656022  0.61891249  1
  O  O175  1  0.61042867  0.13094576  0.13097575  1
  O  O176  1  0.61540016  0.12008771  0.61670020  1
  O  O177  1  0.62313345  0.61350977  0.12271385  1
  O  O178  1  0.61325230  0.61830138  0.62077891  1
  O  O179  1  0.37735351  0.38125794  0.38066316  1
  O  O180  1  0.38539206  0.37060986  0.88262559  1
  O  O181  1  0.38549813  0.87246828  0.37184675  1
  O  O182  1  0.36100021  0.88828483  0.88673644  1
  O  O183  1  0.86821791  0.38254358  0.38443850  1
  O  O184  1  0.87555005  0.37917897  0.88458902  1
  O  O185  1  0.88084078  0.88207353  0.38196116  1
  O  O186  1  0.88311219  0.86200917  0.86739382  1
  O  O187  1  0.25085558  0.01416275  0.38764960  1
  O  O188  1  0.25189154  0.01761416  0.87266695  1
  O  O189  1  0.25219389  0.50414743  0.37256958  1
  O  O190  1  0.25351110  0.50822057  0.86908604  1
  O  O191  1  0.75577411  0.00715027  0.37667481  1
  O  O192  1  0.74858233  0.01682244  0.86048045  1
  O  O193  1  0.75966300  0.50356886  0.37157199  1
  O  O194  1  0.75828927  0.49949558  0.87032184  1
  O  O195  1  0.23499425  0.49814314  0.14047717  1
  O  O196  1  0.23902881  0.49392170  0.62450754  1
  O  O197  1  0.24023681  1.04530445  0.12015124  1
  O  O198  1  0.23656793  0.99350368  0.61754124  1
  O  O199  1  0.74105667  0.49377804  0.12999169  1
  O  O200  1  0.74819824  0.48943124  0.63281997  1
  O  O201  1  0.77053796  0.98035363  0.13629974  1
  O  O202  1  0.73756336  1.01156646  0.62944485  1
  O  O203  1  -0.00011592  0.35786727  0.24511635  1
  O  O204  1  0.00459065  0.36528642  0.75129131  1
  O  O205  1  0.00605083  0.88316521  0.26839202  1
  O  O206  1  0.00756005  0.87507859  0.75946287  1
  O  O207  1  0.50388762  0.37839732  0.25743221  1
  O  O208  1  0.49684822  0.36796765  0.75899873  1
  O  O209  1  0.50066988  0.86914404  0.25579243  1
  O  O210  1  0.51080931  0.87390845  0.75264183  1
  O  O211  1  0.48860495  0.12979148  0.26095719  1
  O  O212  1  0.50466867  0.13240072  0.73644704  1
  O  O213  1  0.49175406  0.62457068  0.23796093  1
  O  O214  1  0.49619407  0.62892849  0.73630398  1
  O  O215  1  0.99781748  0.13198905  0.23878700  1
  O  O216  1  0.99206873  0.13829288  0.75232770  1
  O  O217  1  0.99416112  0.61850620  0.24235266  1
  O  O218  1  0.98144961  0.62515747  0.75575818  1
  O  O219  1  0.38171096  0.25519159  0.01226888  1
  O  O220  1  0.37144725  0.25672301  0.50954368  1
  O  O221  1  0.34780625  0.74982937  0.00287414  1
  O  O222  1  0.35770880  0.74497980  0.50505802  1
  O  O223  1  0.86919485  0.25705283  0.00664190  1
  O  O224  1  0.87154268  0.25598316  0.50468818  1
  O  O225  1  0.86728346  0.73395560  0.01132943  1
  O  O226  1  0.86800188  0.75926896  0.49576826  1
  O  O227  1  0.12644136  0.24313124  0.49729498  1
  O  O228  1  0.11066966  0.23884847  0.98582993  1
  O  O229  1  0.13083158  0.74351637  0.49516689  1
  O  O230  1  0.11990962  0.73450519  0.98809071  1
  O  O231  1  0.62960158  0.24372911  0.49451322  1
  O  O232  1  0.63433871  0.25298041  0.98986902  1
  O  O233  1  0.63329476  0.74750574  0.48824130  1
  O  O234  1  0.64746348  0.73001135  1.01138618  1
  O  O235  1  0.49232665  0.23980267  0.12968760  1
  O  O236  1  0.49480171  0.24416604  0.62850531  1
  O  O237  1  0.51054485  0.73600055  0.12628392  1
  O  O238  1  0.49899837  0.73703483  0.61432307  1
  O  O239  1  0.99000892  0.24097499  0.13024243  1
  O  O240  1  0.98951192  0.25513916  0.63252568  1
  O  O241  1  1.00874737  0.73273131  0.12104051  1
  O  O242  1  0.99080333  0.75514512  0.62936751  1
  O  O243  1  0.00756613  0.24098677  0.36487657  1
  O  O244  1  0.00602699  0.25355668  0.86463094  1
  O  O245  1  0.00867720  0.75998292  0.38437975  1
  O  O246  1  0.00824829  0.75702971  0.87120900  1
  O  O247  1  0.50628625  0.25980522  0.37819797  1
  O  O248  1  0.50644994  0.25342873  0.86429674  1
  O  O249  1  0.50729782  0.75460561  0.37805875  1
  O  O250  1  0.49559766  0.74449948  0.86251806  1
  O  O251  1  0.24229732  0.13338996  0.49497337  1
  O  O252  1  0.23028963  0.13444206  0.98222956  1
  O  O253  1  0.23822821  0.62864381  0.49744518  1
  O  O254  1  0.23235947  0.61576920  0.98256265  1
  O  O255  1  0.74412886  0.13115948  0.49042422  1
  O  O256  1  0.76332479  0.14182086  0.98396227  1
  O  O257  1  0.74886273  0.62814936  0.49036174  1
  O  O258  1  0.74739783  0.62083660  0.99676226  1
  O  O259  1  0.26775003  0.37903528  0.00161261  1
  O  O260  1  0.25389065  0.36942706  0.50850823  1
  O  O261  1  0.20084436  0.87943714  0.02078138  1
  O  O262  1  0.24270411  0.86667999  0.51107042  1
  O  O263  1  0.75635127  0.36363763  0.00483796  1
  O  O264  1  0.75965745  0.37034568  0.50608302  1
  O  O265  1  0.75699473  0.85530663  0.01397899  1
  O  O266  1  0.75877274  0.86470013  0.48993753  1
  O  O267  1  0.12916477  0.49222990  0.24767478  1
  O  O268  1  0.12466624  0.49386416  0.74223780  1
  O  O269  1  0.12725949  0.99276064  0.26379116  1
  O  O270  1  0.11287499  0.99560367  0.73696401  1
  O  O271  1  0.63027846  0.49516885  0.24342764  1
  O  O272  1  0.64154921  0.49634537  0.75044481  1
  O  O273  1  0.63020851  0.99663020  0.24096378  1
  O  O274  1  0.63576894  1.00325785  0.73727770  1
  O  O275  1  0.38033105  0.01354059  0.25774474  1
  O  O276  1  0.38063489  0.00678397  0.77608808  1
  O  O277  1  0.36124136  0.51321269  0.25109116  1
  O  O278  1  0.37442890  0.51623168  0.75116362  1
  O  O279  1  0.87645724  0.00296595  0.26650493  1
  O  O280  1  0.87158800  0.01668369  0.73548265  1
  O  O281  1  0.87183395  0.50138009  0.25799875  1
  O  O282  1  0.86892432  0.50348418  0.75847766  1
  O  O283  1  0.12724271  0.35908230  0.37891523  1
  O  O284  1  0.12306733  0.37062075  0.86998466  1
  O  O285  1  0.11816530  0.86863282  0.37095475  1
  O  O286  1  0.12102534  0.86816327  0.86495318  1
  O  O287  1  0.61969177  0.37188222  0.37071955  1
  O  O288  1  0.61304916  0.36288832  0.87954100  1
  O  O289  1  0.61390925  0.86557091  0.37165657  1
  O  O290  1  0.65290880  0.86483444  0.85904457  1
  O  O291  1  0.39023289  0.12801259  0.13928779  1
  O  O292  1  0.38337932  0.13502322  0.61973953  1
  O  O293  1  0.39383980  0.60898414  0.12290854  1
  O  O294  1  0.38657965  0.62826932  0.63160223  1
  O  O295  1  0.87924466  0.13616412  0.12397097  1
  O  O296  1  0.86986128  0.14088981  0.62837001  1
  O  O297  1  0.88708743  0.61881900  0.13637810  1
  O  O298  1  0.87074314  0.61670911  0.63899778  1
  O  O299  1  0.26622001  0.24436760  0.12945259  1
  O  O300  1  0.25744992  0.25530510  0.62031466  1
  O  O301  1  0.27781856  0.69690188  0.15239311  1
  O  O302  1  0.24779653  0.76243818  0.61854182  1
  O  O303  1  0.75488606  0.25083539  0.11726004  1
  O  O304  1  0.75474045  0.25517109  0.61867635  1
  O  O305  1  0.76035827  0.75198137  0.12199416  1
  O  O306  1  0.75764281  0.74024221  0.60575769  1
  O  O307  1  0.24226503  0.24232519  0.38280115  1
  O  O308  1  0.22869739  0.24832298  0.86337655  1
  O  O309  1  0.24119172  0.74110167  0.38468846  1
  O  O310  1  0.23334773  0.74089014  0.86713259  1
  O  O311  1  0.74481204  0.24385030  0.38131236  1
  O  O312  1  0.73996292  0.24775298  0.87856054  1
  O  O313  1  0.74407511  0.74145594  0.38105046  1
  O  O314  1  0.76372998  0.73216801  0.89761497  1
  O  O315  1  -0.00011173  0.11623440  0.00120807  1
  O  O316  1  0.00867242  0.11692339  0.49613241  1
  O  O317  1  0.00854144  0.61936996  0.00509089  1
  O  O318  1  0.01123554  0.61865305  0.49812129  1
  O  O319  1  0.50780078  0.13434275  0.00994562  1
  O  O320  1  0.50475565  0.11836996  0.50791530  1
  O  O321  1  0.51494325  0.61334333  0.00969656  1
  O  O322  1  0.49847668  0.61679206  0.50775025  1
  O  O323  1  0.49349924  0.38311719  0.49540026  1
  O  O324  1  0.49425168  0.37881327  0.99410911  1
  O  O325  1  0.50162136  0.88415885  0.49123070  1
  O  O326  1  0.51186168  0.85154201  0.98236354  1
  O  O327  1  0.98619591  0.37984546  0.50336933  1
  O  O328  1  0.98638392  0.36962695  1.00213283  1
  O  O329  1  0.99376997  0.88469259  0.49034640  1
  O  O330  1  1.00538447  0.88980991  0.99137149  1
  O  O331  1  0.49120186  0.49787792  0.38110723  1
  O  O332  1  0.49855684  0.48760141  0.88580703  1
  O  O333  1  0.49856995  0.99008224  0.38490821  1
  O  O334  1  0.49882202  0.98884124  0.87649312  1
  O  O335  1  0.98813487  0.50104062  0.38218197  1
  O  O336  1  0.98637882  0.49513049  0.87215212  1
  O  O337  1  0.99194793  0.99764614  0.38630450  1
  O  O338  1  0.99611087  0.99152014  0.88354659  1
  O  O339  1  -0.00658161  0.01255159  0.11486517  1
  O  O340  1  0.00620513  -0.00427812  0.61221447  1
  O  O341  1  0.01290934  0.50454470  0.13087026  1
  O  O342  1  0.01238729  0.49315310  0.61962911  1
  O  O343  1  0.50381171  0.01848513  0.12466696  1
  O  O344  1  0.50472518  0.00644961  0.61988314  1
  O  O345  1  0.51323974  0.49973983  0.11989815  1
  O  O346  1  0.50000496  0.50888395  0.61812259  1
  O  O347  1  0.24827411  0.38163601  0.24874222  1
  O  O348  1  0.24533605  0.37506364  0.74173316  1
  O  O349  1  0.23273318  0.87385101  0.25627061  1
  O  O350  1  0.23392468  0.87365381  0.74216099  1
  O  O351  1  0.74434847  0.37992494  0.24291201  1
  O  O352  1  0.75850035  0.37954850  0.73926203  1
  O  O353  1  0.74983520  0.87037311  0.24333006  1
  O  O354  1  0.76384393  0.89377826  0.74052540  1
  O  O355  1  0.26732800  0.13265583  0.26462443  1
  O  O356  1  0.23373711  0.12255659  0.75746354  1
  O  O357  1  0.24494279  0.61257934  0.26825786  1
  O  O358  1  0.25554604  0.62336383  0.75776797  1
  O  O359  1  0.75306529  0.12595618  0.26387783  1
  O  O360  1  0.75847543  0.12392175  0.75236816  1
  O  O361  1  0.75968228  0.61591868  0.25596002  1
  O  O362  1  0.75945938  0.60973716  0.76020602  1
  O  O363  1  0.36787530  0.12558068  0.36939694  1
  O  O364  1  0.34725030  0.15615470  0.85869801  1
  O  O365  1  0.36009974  0.61717031  0.38341679  1
  O  O366  1  0.36171976  0.62407246  0.86802499  1
  O  O367  1  0.86530278  0.11740118  0.37783868  1
  O  O368  1  0.86412377  0.13779849  0.85833092  1
  O  O369  1  0.87209747  0.61531222  0.36994579  1
  O  O370  1  0.86789128  0.61332074  0.87157874  1
  O  O371  1  0.12818765  0.37805301  0.12463233  1
  O  O372  1  0.13174722  0.38154790  0.62931330  1
  O  O373  1  0.10841984  0.88186805  0.15125062  1
  O  O374  1  0.12909335  0.88473841  0.63114723  1
  O  O375  1  0.62889965  0.37842794  0.12877619  1
  O  O376  1  0.63867905  0.37485977  0.61755401  1
  O  O377  1  0.64612391  0.87370972  0.12962240  1
  O  O378  1  0.62633326  0.88682579  0.62014357  1
  O  O379  1  0.11575792  0.24933921  0.26068830  1
  O  O380  1  0.11421369  0.25761818  0.75101878  1
  O  O381  1  0.12427991  0.75259889  0.26640977  1
  O  O382  1  0.12011193  0.75841798  0.75511345  1
  O  O383  1  0.62302456  0.25932861  0.25891108  1
  O  O384  1  0.61321866  0.24980765  0.75294530  1
  O  O385  1  0.62424446  0.74580508  0.26328926  1
  O  O386  1  0.65997955  0.74842396  0.75394474  1
  O  O387  1  0.38002409  0.24214294  0.24444023  1
  O  O388  1  0.38657723  0.25717634  0.73422708  1
  O  O389  1  0.37783619  0.73116145  0.26510050  1
  O  O390  1  0.36477821  0.73944423  0.74419274  1
  O  O391  1  0.87939423  0.24740905  0.24129071  1
  O  O392  1  0.88057575  0.24625492  0.74090700  1
  O  O393  1  0.87658434  0.73361836  0.25339808  1
  O  O394  1  0.86376999  0.72794243  0.74806176  1
  O  O395  1  0.38298833  0.49555413  0.49664389  1
  O  O396  1  0.39074051  0.48927986  1.00061272  1
  O  O397  1  0.38640545  1.00531407  0.49947479  1
  O  O398  1  0.37876194  1.04236036  0.96508140  1
  O  O399  1  0.87849192  0.49271945  0.49399888  1
  O  O400  1  0.86773408  0.48728600  0.99088449  1
  O  O401  1  0.87880391  0.99622539  0.49309388  1
  O  O402  1  0.88508702  1.00281709  0.99746802  1
  O  O403  1  0.11252741  0.01791519  -0.00448523  1
  O  O404  1  0.11552415  0.00763411  0.50649663  1
  O  O405  1  0.12567632  0.50296497  0.00917464  1
  O  O406  1  0.11933078  0.50728196  0.50668817  1
  O  O407  1  0.67200406  0.00954808  0.01530010  1
  O  O408  1  0.61733591  0.00542405  0.50573435  1
  O  O409  1  0.62304506  0.50363715  0.00787449  1
  O  O410  1  0.60969832  0.49900433  0.49934503  1
  O  O411  1  0.37525143  0.36409556  0.11890838  1
  O  O412  1  0.36969811  0.37117044  0.61940181  1
  O  O413  1  0.36164073  0.91728447  0.10609363  1
  O  O414  1  0.36026019  0.88116656  0.63487368  1
  O  O415  1  0.86811386  0.36650353  0.11944727  1
  O  O416  1  0.86590106  0.36615075  0.61727473  1
  O  O417  1  0.86961143  0.86553727  0.13624635  1
  O  O418  1  0.87564125  0.87827745  0.60925140  1
  O  O419  1  0.13200882  0.13267548  0.38467309  1
  O  O420  1  0.12447198  0.13268773  0.87867211  1
  O  O421  1  0.12974062  0.63008103  0.38442922  1
  O  O422  1  0.12492110  0.62890912  0.87800688  1
  O  O423  1  0.63082014  0.12846903  0.38041998  1
  O  O424  1  0.63327793  0.13702540  0.86585703  1
  O  O425  1  0.63065022  0.62964412  0.37652269  1
  O  O426  1  0.64212792  0.62003476  0.88466134  1
