# generated using pymatgen
data_V85Zn86O256
_symmetry_space_group_name_H-M   'P 1'
_cell_length_a   16.95945448
_cell_length_b   16.96220716
_cell_length_c   16.94873850
_cell_angle_alpha   89.92472160
_cell_angle_beta   90.06484828
_cell_angle_gamma   89.90682258
_symmetry_Int_Tables_number   1
_chemical_formula_structural   V85Zn86O256
_chemical_formula_sum   'V85 Zn86 O256'
_cell_volume   4875.62609016
_cell_formula_units_Z   1
loop_
 _symmetry_equiv_pos_site_id
 _symmetry_equiv_pos_as_xyz
  1  'x, y, z'
loop_
 _atom_site_type_symbol
 _atom_site_label
 _atom_site_symmetry_multiplicity
 _atom_site_fract_x
 _atom_site_fract_y
 _atom_site_fract_z
 _atom_site_occupancy
  V  V0  1  0.37303275  0.24914442  0.12446752  1
  V  V1  1  0.49266673  0.63101511  0.11003601  1
  V  V2  1  0.12417723  0.74200405  0.38405316  1
  V  V3  1  0.74879690  -0.00006659  0.75140621  1
  V  V4  1  0.75070363  0.87428213  0.62640251  1
  V  V5  1  0.75074537  0.12187792  0.37165227  1
  V  V6  1  0.24610938  0.00658475  0.73828121  1
  V  V7  1  0.61594464  0.87529198  0.25214752  1
  V  V8  1  0.26013732  0.87181935  0.12106052  1
  V  V9  1  0.74569121  -0.00088901  0.23796031  1
  V  V10  1  0.61840889  0.86718724  0.75150094  1
  V  V11  1  0.74695287  0.62605635  0.37344629  1
  V  V12  1  0.87484206  0.50181118  0.87433145  1
  V  V13  1  0.25711022  0.12360213  0.37757056  1
  V  V14  1  0.00143285  0.63016715  0.62186933  1
  V  V15  1  0.12093468  0.36697351  0.24609944  1
  V  V16  1  0.12596516  0.24539555  0.87702681  1
  V  V17  1  0.49399289  0.38187329  0.37403547  1
  V  V18  1  0.12520035  0.37523601  0.75109393  1
  V  V19  1  0.62561820  0.00118864  0.62510606  1
  V  V20  1  0.75401875  0.25688498  0.00396728  1
  V  V21  1  0.48612439  0.63409787  0.63607123  1
  V  V22  1  0.75289950  0.75067002  0.49975333  1
  V  V23  1  -0.00738156  0.62852931  0.12608979  1
  V  V24  1  0.74926068  0.50126714  0.75102192  1
  V  V25  1  0.50340099  0.87330725  0.87825570  1
  V  V26  1  0.00233047  0.10843241  0.61739491  1
  V  V27  1  0.50193347  0.25095720  0.74979418  1
  V  V28  1  0.49465000  0.50357777  0.49951065  1
  V  V29  1  0.12597306  0.50313232  0.12407785  1
  V  V30  1  0.00160212  0.24686899  0.74339255  1
  V  V31  1  0.88287553  0.87342643  0.00755423  1
  V  V32  1  0.11111226  0.00204831  0.12738805  1
  V  V33  1  -0.00904876  0.74909023  0.24916700  1
  V  V34  1  0.74886937  0.49956989  0.24335308  1
  V  V35  1  0.87323058  -0.00439458  0.37821806  1
  V  V36  1  0.26590320  0.75474885  -0.00320004  1
  V  V37  1  0.24507584  0.63136550  0.87023648  1
  V  V38  1  0.37950130  0.12114125  0.75534796  1
  V  V39  1  0.74725562  0.74497973  -0.00733823  1
  V  V40  1  0.37590701  0.12442787  0.24975590  1
  V  V41  1  0.25431833  0.37699100  0.12152670  1
  V  V42  1  0.62677500  0.25037170  0.87274673  1
  V  V43  1  -0.00270586  0.37314053  0.37705914  1
  V  V44  1  0.25768193  0.50505329  0.75082698  1
  V  V45  1  0.62498374  0.12689108  0.49911748  1
  V  V46  1  0.63009709  0.12442642  0.01495644  1
  V  V47  1  0.75726349  0.37698888  0.62022843  1
  V  V48  1  0.12263609  0.64082806  -0.00225046  1
  V  V49  1  0.12442036  0.50201098  0.62054176  1
  V  V50  1  -0.00081014  0.87249998  0.38609472  1
  V  V51  1  0.25071117  0.61973643  0.37619050  1
  V  V52  1  0.00181110  0.50151799  -0.00204830  1
  V  V53  1  0.61852825  0.50092764  0.11715176  1
  V  V54  1  0.12462060  0.87112040  0.24891371  1
  V  V55  1  0.87813179  0.12553645  0.75007142  1
  V  V56  1  0.24991651  0.37503475  0.62527306  1
  V  V57  1  0.76109111  0.25505936  0.49608129  1
  V  V58  1  0.62677574  0.37836459  0.24514552  1
  V  V59  1  0.25702482  0.50049233  0.25105994  1
  V  V60  1  0.25046486  0.24881899  0.50127981  1
  V  V61  1  0.37259371  -0.00206767  0.88640045  1
  V  V62  1  0.62520323  0.25278876  0.37486100  1
  V  V63  1  0.50450662  -0.01224172  0.49710746  1
  V  V64  1  0.87996469  -0.00495087  0.88291447  1
  V  V65  1  0.87447784  0.37770886  0.00973461  1
  V  V66  1  0.00425115  0.75367216  0.76906685  1
  V  V67  1  0.50642071  0.00007659  0.00641727  1
  V  V68  1  0.11307462  0.12236160  0.00950596  1
  V  V69  1  0.25642715  0.74449364  0.50629852  1
  V  V70  1  0.62273092  0.62412502  0.50325396  1
  V  V71  1  0.37664087  0.25024286  0.62588483  1
  V  V72  1  0.49910685  0.38167447  0.87922918  1
  V  V73  1  0.87207881  0.49701523  0.37839762  1
  V  V74  1  0.37495355  0.63273775  0.24610610  1
  V  V75  1  -0.00086318  0.50254684  0.49934361  1
  V  V76  1  0.74949857  0.12528562  0.87617455  1
  V  V77  1  0.25199860  -0.00256827  0.24778005  1
  V  V78  1  0.74593314  0.86400865  0.12503160  1
  V  V79  1  0.12440872  0.24991809  0.37709312  1
  V  V80  1  0.87244818  0.62657763  0.75270830  1
  V  V81  1  0.37494321  0.37825630  0.49787008  1
  V  V82  1  0.50444997  0.12538235  0.62380102  1
  V  V83  1  0.50317712  0.25151297  0.24942463  1
  V  V84  1  0.38284474  -0.01463187  0.37428956  1
  Zn  Zn85  1  0.62651406  0.37633025  0.74632470  1
  Zn  Zn86  1  0.38281944  0.37720674  0.00216127  1
  Zn  Zn87  1  0.62638483  0.73696661  0.86796224  1
  Zn  Zn88  1  0.37769960  0.50569348  0.88037240  1
  Zn  Zn89  1  0.00120972  0.37493108  0.87399631  1
  Zn  Zn90  1  0.25177068  0.87510742  0.62493682  1
  Zn  Zn91  1  0.61484844  0.75590897  0.37675320  1
  Zn  Zn92  1  0.87903798  0.87882147  0.50493506  1
  Zn  Zn93  1  0.11990950  0.87645646  0.75156919  1
  Zn  Zn94  1  0.87870806  0.75269018  0.62781999  1
  Zn  Zn95  1  0.62394765  0.49884736  0.62492209  1
  Zn  Zn96  1  0.88021857  0.25151348  0.61843671  1
  Zn  Zn97  1  0.89138970  0.24412033  0.12970632  1
  Zn  Zn98  1  0.38226789  0.86378341  0.50760777  1
  Zn  Zn99  1  0.86959914  0.62792926  0.24660539  1
  Zn  Zn100  1  0.25011944  0.24782298  0.00216595  1
  Zn  Zn101  1  0.50702420  0.12438753  0.12884139  1
  Zn  Zn102  1  0.13620099  0.09561629  0.51545674  1
  Zn  Zn103  1  0.89783306  0.12512795  0.24552596  1
  Zn  Zn104  1  0.49554223  0.75066192  0.24959456  1
  Zn  Zn105  1  0.62269301  0.61975030  -0.00728552  1
  Zn  Zn106  1  0.25110396  0.12596865  0.88252519  1
  Zn  Zn107  1  0.05709562  0.18165841  0.19672252  1
  Zn  Zn108  1  0.18589347  0.18139017  0.68848057  1
  Zn  Zn109  1  0.18747903  0.69032005  0.18411222  1
  Zn  Zn110  1  0.17995582  0.68899822  0.68889800  1
  Zn  Zn111  1  0.72411845  0.20595959  0.20069855  1
  Zn  Zn112  1  0.69293963  0.19097836  0.68599933  1
  Zn  Zn113  1  0.68089998  0.68853421  0.18338326  1
  Zn  Zn114  1  0.68745511  0.68545158  0.68524112  1
  Zn  Zn115  1  0.31251777  0.31259864  0.30895266  1
  Zn  Zn116  1  0.31222163  0.31167896  0.81196884  1
  Zn  Zn117  1  0.31037995  0.80849800  0.31433537  1
  Zn  Zn118  1  0.30065774  0.82264565  0.81920530  1
  Zn  Zn119  1  0.81582442  0.31514787  0.31068570  1
  Zn  Zn120  1  0.81599456  0.31664901  0.81249838  1
  Zn  Zn121  1  0.80877953  0.81280158  0.31317533  1
  Zn  Zn122  1  0.81537806  0.81439559  0.81484864  1
  Zn  Zn123  1  0.18592383  0.43807625  0.43790345  1
  Zn  Zn124  1  0.18966686  0.43867594  0.93808361  1
  Zn  Zn125  1  0.19049909  0.93065708  0.43675344  1
  Zn  Zn126  1  0.18390591  0.93396887  0.93883221  1
  Zn  Zn127  1  0.68438198  0.43852722  0.43649596  1
  Zn  Zn128  1  0.68859043  0.43830100  0.93182635  1
  Zn  Zn129  1  0.68767366  0.93628913  0.43494372  1
  Zn  Zn130  1  0.68785125  0.93727551  0.94142414  1
  Zn  Zn131  1  0.30535361  0.06569630  0.06501696  1
  Zn  Zn132  1  0.32563463  0.06055034  0.56145289  1
  Zn  Zn133  1  0.31580490  0.56481504  0.05454404  1
  Zn  Zn134  1  0.31155940  0.56390014  0.55990327  1
  Zn  Zn135  1  0.81926870  0.06389560  0.06577858  1
  Zn  Zn136  1  0.81519448  0.06460685  0.56097591  1
  Zn  Zn137  1  0.81090250  0.56151871  0.06310894  1
  Zn  Zn138  1  0.81566734  0.56264447  0.56297454  1
  Zn  Zn139  1  0.43919870  0.44385921  0.18445845  1
  Zn  Zn140  1  0.43980133  0.43977531  0.68726975  1
  Zn  Zn141  1  0.43916984  0.93947380  0.18211388  1
  Zn  Zn142  1  0.42594138  0.81122426  0.69277939  1
  Zn  Zn143  1  0.93895536  0.43753015  0.18994643  1
  Zn  Zn144  1  0.93713598  0.43512383  0.68626702  1
  Zn  Zn145  1  0.93163571  0.93559849  0.19389667  1
  Zn  Zn146  1  0.93503090  0.93661570  0.69292076  1
  Zn  Zn147  1  0.07219446  0.05151842  0.34221368  1
  Zn  Zn148  1  0.08231973  0.02968305  0.84140815  1
  Zn  Zn149  1  0.06472153  0.56083806  0.30967162  1
  Zn  Zn150  1  0.06365616  0.56558032  0.81067712  1
  Zn  Zn151  1  0.56584186  0.06017070  0.31110796  1
  Zn  Zn152  1  0.56291285  0.05861205  0.81525137  1
  Zn  Zn153  1  0.55905706  0.56612632  0.31227235  1
  Zn  Zn154  1  0.56603671  0.56357017  0.81213815  1
  Zn  Zn155  1  0.44003437  0.18913040  0.43713057  1
  Zn  Zn156  1  0.44183249  0.18920638  0.94132349  1
  Zn  Zn157  1  0.43578159  0.68324715  0.42908278  1
  Zn  Zn158  1  0.41718750  0.70968579  0.87428029  1
  Zn  Zn159  1  0.94174739  0.18004632  0.42859092  1
  Zn  Zn160  1  0.93839423  0.18874878  0.93572840  1
  Zn  Zn161  1  0.93459050  0.68501139  0.43732365  1
  Zn  Zn162  1  0.92920764  0.68711020  0.94167736  1
  Zn  Zn163  1  0.06103408  0.31288390  0.06030030  1
  Zn  Zn164  1  0.06329379  0.31297959  0.55896869  1
  Zn  Zn165  1  0.06181457  0.81526809  0.06835523  1
  Zn  Zn166  1  0.07179436  0.81619472  0.57062258  1
  Zn  Zn167  1  0.56568890  0.30975876  0.06279842  1
  Zn  Zn168  1  0.56803067  0.31536327  0.56190736  1
  Zn  Zn169  1  0.56278076  0.81168057  0.06436704  1
  Zn  Zn170  1  0.56690848  0.80740464  0.56506266  1
  O  O171  1  0.12169083  0.11771496  0.11920482  1
  O  O172  1  0.10907695  0.12733018  0.62151463  1
  O  O173  1  0.11696991  0.61884742  0.11904571  1
  O  O174  1  0.10970602  0.61475785  0.63011844  1
  O  O175  1  0.63037907  0.13640623  0.11507316  1
  O  O176  1  0.62510911  0.12248737  0.61846146  1
  O  O177  1  0.61351674  0.61733532  0.12048103  1
  O  O178  1  0.61734801  0.62489502  0.61327739  1
  O  O179  1  0.38764493  0.37030812  0.37849926  1
  O  O180  1  0.39181225  0.36821582  0.87332200  1
  O  O181  1  0.37408806  0.88347869  0.37739256  1
  O  O182  1  0.38485168  0.89474654  0.87617310  1
  O  O183  1  0.88547550  0.38283715  0.37024848  1
  O  O184  1  0.88115572  0.38778665  0.87935135  1
  O  O185  1  0.88012697  0.87701701  0.37871849  1
  O  O186  1  0.87163091  0.88822478  0.88630876  1
  O  O187  1  0.26542537  0.00687666  0.36864445  1
  O  O188  1  0.26533278  0.00550446  0.87540481  1
  O  O189  1  0.23963159  0.50679602  0.36346841  1
  O  O190  1  0.24424130  0.50617302  0.86317135  1
  O  O191  1  0.75303854  0.00566094  0.36783702  1
  O  O192  1  0.75495576  0.00918971  0.87168315  1
  O  O193  1  0.75513262  0.50556270  0.36917542  1
  O  O194  1  0.75909134  0.49523616  0.85899993  1
  O  O195  1  0.24330190  0.49592349  0.13025856  1
  O  O196  1  0.24165965  0.49788236  0.62961035  1
  O  O197  1  0.24278699  0.99255824  0.13265048  1
  O  O198  1  0.25740989  1.00804009  0.63615397  1
  O  O199  1  0.74257520  0.50626914  0.13872638  1
  O  O200  1  0.75234749  0.49368148  0.63170200  1
  O  O201  1  0.75100429  0.99286687  0.13535434  1
  O  O202  1  0.74559001  0.99418149  0.62877393  1
  O  O203  1  0.01154984  0.38709706  0.26528874  1
  O  O204  1  0.00883859  0.36722734  0.74960449  1
  O  O205  1  0.00560992  0.86426398  0.25588961  1
  O  O206  1  -0.00694895  0.85542593  0.74733673  1
  O  O207  1  0.50444099  0.37431298  0.25770169  1
  O  O208  1  0.50364293  0.36635063  0.75522952  1
  O  O209  1  0.51288365  0.87540604  0.24253869  1
  O  O210  1  0.51074292  0.87723727  0.76018569  1
  O  O211  1  0.49325359  0.13074236  0.25035668  1
  O  O212  1  0.49779062  0.13047074  0.74586742  1
  O  O213  1  0.48654720  0.62022203  0.24293823  1
  O  O214  1  0.49998273  0.61635345  0.73356522  1
  O  O215  1  1.00787077  0.12451719  0.27955817  1
  O  O216  1  0.99346427  0.13356822  0.73660531  1
  O  O217  1  0.99929215  0.63113148  0.24311346  1
  O  O218  1  0.99139087  0.63418328  0.74439192  1
  O  O219  1  0.37434642  0.25466374  0.00993239  1
  O  O220  1  0.37120775  0.25687641  0.50612336  1
  O  O221  1  0.36251140  0.74970528  -0.01201680  1
  O  O222  1  0.35978365  0.74628215  0.49119114  1
  O  O223  1  0.87061708  0.26019527  -0.00051726  1
  O  O224  1  0.86311956  0.24417213  0.49423223  1
  O  O225  1  0.86349544  0.76553017  -0.00394268  1
  O  O226  1  0.86182055  0.74978355  0.50214316  1
  O  O227  1  0.13638791  0.25188855  0.49103984  1
  O  O228  1  0.12483939  0.24298639  0.99254097  1
  O  O229  1  0.13146461  0.74832035  0.48702871  1
  O  O230  1  0.12073286  0.74176182  1.00240108  1
  O  O231  1  0.63246565  0.24508128  0.49270141  1
  O  O232  1  0.63162526  0.24504311  0.98691498  1
  O  O233  1  0.63554514  0.74195741  0.49740988  1
  O  O234  1  0.64077291  0.75003787  1.00133836  1
  O  O235  1  0.49126999  0.25025326  0.13251921  1
  O  O236  1  0.49836605  0.24635260  0.63012641  1
  O  O237  1  0.50416474  0.73490738  0.13035773  1
  O  O238  1  0.49893623  0.73969038  0.62654533  1
  O  O239  1  1.00378808  0.26351721  0.14088579  1
  O  O240  1  0.99939942  0.25224464  0.63340856  1
  O  O241  1  1.00516148  0.74032899  0.13699854  1
  O  O242  1  0.99769732  0.74018934  0.62346336  1
  O  O243  1  0.01245035  0.26097771  0.38473768  1
  O  O244  1  0.01097140  0.24871536  0.86259276  1
  O  O245  1  0.00628960  0.74988673  0.36938052  1
  O  O246  1  -0.00511617  0.74563589  0.86722545  1
  O  O247  1  0.50670226  0.25876850  0.36899687  1
  O  O248  1  0.51049970  0.25428805  0.86856208  1
  O  O249  1  0.50357137  0.74051133  0.36378174  1
  O  O250  1  0.51139391  0.76993876  0.88960096  1
  O  O251  1  0.25253151  0.12770416  0.49440169  1
  O  O252  1  0.23689069  0.13169257  1.00192415  1
  O  O253  1  0.25069353  0.63113416  0.48841118  1
  O  O254  1  0.24026148  0.63907295  0.99773610  1
  O  O255  1  0.74378009  0.13052494  0.48992085  1
  O  O256  1  0.74681711  0.13308299  0.99209529  1
  O  O257  1  0.74316298  0.62939489  0.49612177  1
  O  O258  1  0.75452665  0.64307819  1.00636049  1
  O  O259  1  0.24449839  0.36918962  0.01492356  1
  O  O260  1  0.25655764  0.37123594  0.50505819  1
  O  O261  1  0.24460157  0.86353423  0.00540633  1
  O  O262  1  0.25067969  0.85575839  0.49590315  1
  O  O263  1  0.76304996  0.36782976  -0.01382529  1
  O  O264  1  0.74534656  0.36595199  0.50394500  1
  O  O265  1  0.75304472  0.86828022  0.00902590  1
  O  O266  1  0.74761304  0.86622987  0.50822432  1
  O  O267  1  0.13253271  0.49377206  0.23843554  1
  O  O268  1  0.12673729  0.49252794  0.73880085  1
  O  O269  1  0.13330670  0.98649064  0.25000218  1
  O  O270  1  0.14780965  1.02606667  0.74489502  1
  O  O271  1  0.62962470  0.49618429  0.24358379  1
  O  O272  1  0.63708004  0.49851203  0.74441126  1
  O  O273  1  0.63204004  0.98674557  0.25186097  1
  O  O274  1  0.63078235  0.99379852  0.74358863  1
  O  O275  1  0.37658313  0.00572944  0.25702949  1
  O  O276  1  0.36993140  0.01582942  0.76445365  1
  O  O277  1  0.36067142  0.50572477  0.24540473  1
  O  O278  1  0.35981493  0.49412019  0.75235213  1
  O  O279  1  0.86064611  -0.00040720  0.26015981  1
  O  O280  1  0.86757829  0.00401882  0.76281168  1
  O  O281  1  0.86598471  0.50170761  0.25950641  1
  O  O282  1  0.87337171  0.50609915  0.75598930  1
  O  O283  1  0.12192836  0.36733006  0.36854525  1
  O  O284  1  0.12348977  0.36618259  0.86897692  1
  O  O285  1  0.11686572  0.86179909  0.36605901  1
  O  O286  1  0.11080854  0.91875194  0.85783632  1
  O  O287  1  0.61292294  0.37384369  0.36743025  1
  O  O288  1  0.61651606  0.36756351  0.87039751  1
  O  O289  1  0.63113468  0.87344580  0.35749796  1
  O  O290  1  0.61916481  0.88179177  0.86496526  1
  O  O291  1  0.37639215  0.13259938  0.13426171  1
  O  O292  1  0.38587950  0.13121512  0.63344584  1
  O  O293  1  0.38579735  0.61997983  0.12932958  1
  O  O294  1  0.38820137  0.62229471  0.62152776  1
  O  O295  1  0.87578804  0.12853442  0.13245676  1
  O  O296  1  0.88336884  0.12788455  0.63032371  1
  O  O297  1  0.88884216  0.61820873  0.12767290  1
  O  O298  1  0.88659866  0.62390668  0.63326706  1
  O  O299  1  0.26677870  0.26181255  0.13024705  1
  O  O300  1  0.25555808  0.25300442  0.62019326  1
  O  O301  1  0.24524264  0.75767662  0.10863755  1
  O  O302  1  0.24389666  0.73783960  0.60729989  1
  O  O303  1  0.74198849  0.26079368  0.10313970  1
  O  O304  1  0.75411473  0.25677809  0.61336618  1
  O  O305  1  0.75111946  0.75924641  0.11912039  1
  O  O306  1  0.75204667  0.75790465  0.61791313  1
  O  O307  1  0.25104006  0.24567059  0.38264960  1
  O  O308  1  0.23675035  0.24901013  0.87444567  1
  O  O309  1  0.24149226  0.73955069  0.37961799  1
  O  O310  1  0.24059129  0.74671863  0.88846721  1
  O  O311  1  0.74386037  0.24341214  0.38020779  1
  O  O312  1  0.74495893  0.24481498  0.87746481  1
  O  O313  1  0.74680292  0.74076322  0.38216610  1
  O  O314  1  0.74732257  0.75762804  0.88915123  1
  O  O315  1  0.01389074  0.13221218  0.00104475  1
  O  O316  1  -0.00197351  0.12794078  0.51587053  1
  O  O317  1  0.00393353  0.62179129  0.00716448  1
  O  O318  1  -0.00482593  0.61245616  0.50661886  1
  O  O319  1  0.51481579  0.12242286  0.00250306  1
  O  O320  1  0.50978817  0.12368721  0.50392245  1
  O  O321  1  0.49766779  0.62917181  0.01178263  1
  O  O322  1  0.50504321  0.61892116  0.50390666  1
  O  O323  1  0.49636756  0.38207665  0.49391467  1
  O  O324  1  0.50435087  0.36870265  0.98255598  1
  O  O325  1  0.50573124  0.88473232  0.50287173  1
  O  O326  1  0.51218753  0.88952121  0.99444627  1
  O  O327  1  1.00535293  0.38854052  0.48792097  1
  O  O328  1  0.99299421  0.38456089  0.99595108  1
  O  O329  1  0.99944305  0.86386225  0.48949966  1
  O  O330  1  0.98173154  0.87195534  1.00867990  1
  O  O331  1  0.50343138  0.49420118  0.38808179  1
  O  O332  1  0.49770240  0.48393577  0.86521217  1
  O  O333  1  0.49368809  1.00719090  0.38528083  1
  O  O334  1  0.49258352  0.99769273  0.88458378  1
  O  O335  1  0.99384212  0.49811494  0.38087484  1
  O  O336  1  0.99421421  0.50118220  0.88140991  1
  O  O337  1  0.98344516  0.97972304  0.36398645  1
  O  O338  1  0.97546035  1.01780902  0.88008549  1
  O  O339  1  0.01249388  -0.00750577  0.13610712  1
  O  O340  1  -0.00472714  0.00948230  0.62671129  1
  O  O341  1  0.00838765  0.50627654  0.12076005  1
  O  O342  1  0.00429757  0.50283100  0.61719717  1
  O  O343  1  0.49712247  0.00715583  0.11098380  1
  O  O344  1  0.51189066  0.01197110  0.61133687  1
  O  O345  1  0.50937431  0.51244011  0.12616536  1
  O  O346  1  0.50184842  0.50538563  0.61320328  1
  O  O347  1  0.24436054  0.38225540  0.24123973  1
  O  O348  1  0.24303400  0.38107150  0.74404745  1
  O  O349  1  0.24235829  0.87530213  0.24467282  1
  O  O350  1  0.24885543  0.90001170  0.75422419  1
  O  O351  1  0.73613994  0.38739618  0.25909572  1
  O  O352  1  0.75121095  0.38290290  0.74098151  1
  O  O353  1  0.74574046  0.87989939  0.24176266  1
  O  O354  1  0.74667001  0.88139112  0.74331521  1
  O  O355  1  0.26811087  0.11717634  0.25905811  1
  O  O356  1  0.26362749  0.12315611  0.75450633  1
  O  O357  1  0.25383015  0.61790673  0.25010082  1
  O  O358  1  0.23723498  0.61660684  0.75823290  1
  O  O359  1  0.73277805  0.11151259  0.26476269  1
  O  O360  1  0.75712915  0.12102233  0.75615672  1
  O  O361  1  0.74703459  0.61994685  0.25776148  1
  O  O362  1  0.76458975  0.61708534  0.73984070  1
  O  O363  1  0.37006842  0.12246324  0.37115136  1
  O  O364  1  0.37791995  0.12142896  0.87071253  1
  O  O365  1  0.35870681  0.62169914  0.36220105  1
  O  O366  1  0.35049460  0.61925889  0.88005534  1
  O  O367  1  0.86461805  0.11571912  0.37077122  1
  O  O368  1  0.86267612  0.12215485  0.87323899  1
  O  O369  1  0.86154035  0.61735225  0.37313997  1
  O  O370  1  0.87737387  0.61190235  0.86763901  1
  O  O371  1  0.13253914  0.38345122  0.13116546  1
  O  O372  1  0.13167915  0.38066505  0.62996376  1
  O  O373  1  0.13198790  0.88081420  0.13332193  1
  O  O374  1  0.13816079  0.87234295  0.63784114  1
  O  O375  1  0.61479453  0.38361199  0.13746641  1
  O  O376  1  0.63978166  0.37672345  0.62666637  1
  O  O377  1  0.63540214  0.87354184  0.13679188  1
  O  O378  1  0.63403106  0.87961461  0.63163185  1
  O  O379  1  0.13104252  0.26457690  0.25837828  1
  O  O380  1  0.11990872  0.25348761  0.75529070  1
  O  O381  1  0.11935908  0.75780997  0.25559301  1
  O  O382  1  0.10788495  0.74860904  0.75595069  1
  O  O383  1  0.62493403  0.26088905  0.25489990  1
  O  O384  1  0.62348285  0.24962020  0.76006649  1
  O  O385  1  0.62697829  0.76394694  0.25172929  1
  O  O386  1  0.63465913  0.76317585  0.75130390  1
  O  O387  1  0.38288076  0.24254486  0.24613010  1
  O  O388  1  0.38123673  0.24091604  0.74584505  1
  O  O389  1  0.36956676  0.73614696  0.24749642  1
  O  O390  1  0.37741623  0.75476265  0.77628123  1
  O  O391  1  0.83731773  0.23599378  0.23674736  1
  O  O392  1  0.88531935  0.24486484  0.75043061  1
  O  O393  1  0.88691884  0.74723962  0.25618746  1
  O  O394  1  0.88032537  0.74134937  0.75048605  1
  O  O395  1  0.38190256  0.49008952  0.50228907  1
  O  O396  1  0.36217889  0.48710617  0.99189718  1
  O  O397  1  0.38850991  0.99740394  0.49033698  1
  O  O398  1  0.38404488  1.01322325  0.98998885  1
  O  O399  1  0.88108021  0.50229363  0.48625868  1
  O  O400  1  0.87745709  0.49609659  0.99271273  1
  O  O401  1  0.86624827  0.99647725  0.48401973  1
  O  O402  1  0.86346834  0.98761196  0.99093454  1
  O  O403  1  0.12709395  0.01390626  0.01285398  1
  O  O404  1  0.11733560  0.01214984  0.44642688  1
  O  O405  1  0.12269798  0.50594041  0.01147934  1
  O  O406  1  0.11790706  0.49685877  0.51278817  1
  O  O407  1  0.61981470  0.01425679  -0.00477639  1
  O  O408  1  0.62210076  0.00658836  0.50240004  1
  O  O409  1  0.63715639  0.49821490  0.01446527  1
  O  O410  1  0.61731655  0.50828747  0.50249599  1
  O  O411  1  0.36985425  0.37015045  0.12721574  1
  O  O412  1  0.36977641  0.36880708  0.62037992  1
  O  O413  1  0.35932968  0.87848894  0.12916224  1
  O  O414  1  0.36599508  0.87157622  0.61970321  1
  O  O415  1  0.87683350  0.37875284  0.11252564  1
  O  O416  1  0.86308150  0.37160673  0.62481903  1
  O  O417  1  0.86417714  0.88122552  0.11387489  1
  O  O418  1  0.86240906  0.87536350  0.62380578  1
  O  O419  1  0.14812689  0.14369959  0.36484193  1
  O  O420  1  0.12627157  0.12854204  0.88888425  1
  O  O421  1  0.13626877  0.63225223  0.36469920  1
  O  O422  1  0.13233924  0.61782877  0.88822431  1
  O  O423  1  0.63022057  0.13063840  0.38179013  1
  O  O424  1  0.63636673  0.13161097  0.87688151  1
  O  O425  1  0.63524277  0.62094629  0.38557428  1
  O  O426  1  0.62556975  0.62469167  0.88030815  1
