# generated using pymatgen
data_V85Zn86O256
_symmetry_space_group_name_H-M   'P 1'
_cell_length_a   16.93253198
_cell_length_b   16.93842181
_cell_length_c   16.93088290
_cell_angle_alpha   90.01511181
_cell_angle_beta   89.95814146
_cell_angle_gamma   89.92400133
_symmetry_Int_Tables_number   1
_chemical_formula_structural   V85Zn86O256
_chemical_formula_sum   'V85 Zn86 O256'
_cell_volume   4855.94703607
_cell_formula_units_Z   1
loop_
 _symmetry_equiv_pos_site_id
 _symmetry_equiv_pos_as_xyz
  1  'x, y, z'
loop_
 _atom_site_type_symbol
 _atom_site_label
 _atom_site_symmetry_multiplicity
 _atom_site_fract_x
 _atom_site_fract_y
 _atom_site_fract_z
 _atom_site_occupancy
  V  V0  1  -0.00398748  0.37047296  0.38206656  1
  V  V1  1  0.87588968  -0.00698201  0.37391191  1
  V  V2  1  -0.00491705  0.75289567  0.26274823  1
  V  V3  1  0.12872749  -0.00186813  0.61887166  1
  V  V4  1  0.75188536  0.00065986  0.74941984  1
  V  V5  1  0.37411377  0.12599654  0.74032748  1
  V  V6  1  0.24699237  0.75587426  0.01571922  1
  V  V7  1  0.00460472  0.24792009  0.25465068  1
  V  V8  1  0.87451735  0.49880026  0.88406529  1
  V  V9  1  0.87652788  0.25968442  0.12219722  1
  V  V10  1  0.74858043  -0.00069177  0.24935083  1
  V  V11  1  0.62520615  0.24995477  0.87418241  1
  V  V12  1  0.24537500  0.75694019  0.50511525  1
  V  V13  1  0.12351504  0.25015378  0.86154859  1
  V  V14  1  0.62195572  0.26214596  0.37493674  1
  V  V15  1  0.75761712  0.37675100  0.62080662  1
  V  V16  1  0.37400888  0.24555550  0.12554518  1
  V  V17  1  0.13571945  0.13101935  0.48219362  1
  V  V18  1  0.50638414  0.49972059  0.01599737  1
  V  V19  1  0.11490975  0.62375672  0.00310319  1
  V  V20  1  0.24688547  0.25023580  -0.00215642  1
  V  V21  1  0.88235611  0.25175604  0.62470446  1
  V  V22  1  0.75704798  0.25424450  0.49761406  1
  V  V23  1  0.88092682  0.87294213  0.50078447  1
  V  V24  1  0.62578837  0.12687415  -0.00005816  1
  V  V25  1  0.36728917  0.13102349  0.27015014  1
  V  V26  1  0.75526950  0.25816415  -0.00156726  1
  V  V27  1  0.75130062  0.62724759  0.37197054  1
  V  V28  1  0.13271292  0.87251950  0.25199615  1
  V  V29  1  0.61085896  0.75364882  0.37288772  1
  V  V30  1  0.24236365  0.62330925  0.38441850  1
  V  V31  1  0.74597351  0.49797323  0.24371883  1
  V  V32  1  0.37356923  0.37593962  0.00147184  1
  V  V33  1  0.11273396  0.50360874  0.12726976  1
  V  V34  1  0.38488504  0.62746792  0.24344985  1
  V  V35  1  0.88510113  0.12831542  0.74783865  1
  V  V36  1  0.75421954  0.87160778  0.62598827  1
  V  V37  1  0.50620132  0.87380943  0.87786895  1
  V  V38  1  0.87673407  -0.00072333  0.87574633  1
  V  V39  1  0.39045446  0.49428979  0.37795655  1
  V  V40  1  0.62360819  0.62206995  0.49986215  1
  V  V41  1  0.00759861  0.50078836  0.50001969  1
  V  V42  1  -0.00612120  0.36889226  0.87353981  1
  V  V43  1  0.24565543  0.37504523  0.12657244  1
  V  V44  1  0.12952174  0.86958091  0.74452154  1
  V  V45  1  0.37282861  -0.00146935  0.87333330  1
  V  V46  1  0.38919150  0.37907138  0.51304774  1
  V  V47  1  0.37356075  0.50402541  0.88025648  1
  V  V48  1  0.24828966  0.50388969  0.25277947  1
  V  V49  1  -0.00448226  -0.00407479  0.00178517  1
  V  V50  1  0.25091290  -0.00515281  0.74225494  1
  V  V51  1  0.49799111  0.24941670  0.74102535  1
  V  V52  1  -0.00683726  0.74873202  0.74501433  1
  V  V53  1  -0.00404687  0.87312660  0.87704307  1
  V  V54  1  0.74857938  0.12531074  0.37328568  1
  V  V55  1  0.49851615  0.25747179  0.25562073  1
  V  V56  1  0.75721213  0.87561128  0.12280246  1
  V  V57  1  0.87350254  0.49641648  0.38074717  1
  V  V58  1  0.49969427  0.37417805  0.87595375  1
  V  V59  1  0.49719720  0.00250820  0.00124851  1
  V  V60  1  0.37602795  -0.01608260  0.37553967  1
  V  V61  1  0.25215228  0.26773456  0.50030926  1
  V  V62  1  0.37446916  0.75667678  0.62658080  1
  V  V63  1  -0.00399885  0.62997407  0.61687514  1
  V  V64  1  0.75341062  0.74962517  0.50250685  1
  V  V65  1  0.62376829  0.50015865  0.62418843  1
  V  V66  1  0.74185076  0.62861054  0.87328676  1
  V  V67  1  0.62306771  0.12594524  0.49831729  1
  V  V68  1  0.88217259  0.74542224  0.11666686  1
  V  V69  1  0.12695312  0.74705580  0.87188262  1
  V  V70  1  0.00011760  0.12377848  0.12460611  1
  V  V71  1  0.12466506  0.12574876  0.00013544  1
  V  V72  1  0.62419391  -0.00005832  0.62504127  1
  V  V73  1  0.00382065  -0.00027019  0.49602583  1
  V  V74  1  0.49993380  0.62528606  0.62363889  1
  V  V75  1  0.74602228  0.75485275  -0.00387284  1
  V  V76  1  0.62609959  0.00202608  0.12636137  1
  V  V77  1  0.62398597  0.62328061  0.01498922  1
  V  V78  1  0.87557952  0.12371099  0.24929551  1
  V  V79  1  0.61157723  0.87296005  0.25204177  1
  V  V80  1  0.75224661  0.12568873  0.87344104  1
  V  V81  1  0.75374663  0.49906223  0.75040162  1
  V  V82  1  0.50774714  0.74903984  0.75993311  1
  V  V83  1  0.37444410  0.62634166  0.75769336  1
  V  V84  1  0.12389313  0.37224304  0.25685986  1
  Zn  Zn85  1  0.87301426  0.62859285  0.74752328  1
  Zn  Zn86  1  0.38486097  0.86795728  0.49759274  1
  Zn  Zn87  1  0.12730829  0.37645396  0.74163106  1
  Zn  Zn88  1  0.88202138  0.62238037  0.24544623  1
  Zn  Zn89  1  0.50635474  -0.01075815  0.48914603  1
  Zn  Zn90  1  0.49998442  0.12854807  0.12772413  1
  Zn  Zn91  1  0.62923915  0.87115502  0.75439375  1
  Zn  Zn92  1  0.61500847  0.38522275  0.24382449  1
  Zn  Zn93  1  0.62593047  0.37391998  0.74912676  1
  Zn  Zn94  1  0.00590391  0.12806216  0.62374096  1
  Zn  Zn95  1  0.40342570  0.76644201  0.14432867  1
  Zn  Zn96  1  0.25510986  0.48467152  0.73835027  1
  Zn  Zn97  1  0.24950178  0.00180291  0.24790116  1
  Zn  Zn98  1  0.24826771  0.12349188  0.87174243  1
  Zn  Zn99  1  0.74604790  0.38232924  0.11762535  1
  Zn  Zn100  1  0.35893972  0.88165829  0.01221520  1
  Zn  Zn101  1  -0.00599478  0.49680886  0.00357289  1
  Zn  Zn102  1  0.49820696  0.12559935  0.62131455  1
  Zn  Zn103  1  0.24812730  0.62328362  0.87979227  1
  Zn  Zn104  1  0.13346599  -0.01481104  0.11839674  1
  Zn  Zn105  1  0.11802437  0.75169714  0.38288449  1
  Zn  Zn106  1  0.12908829  0.49782733  0.62540786  1
  Zn  Zn107  1  0.18684918  0.18417599  0.18675633  1
  Zn  Zn108  1  0.19334446  0.18513067  0.67877664  1
  Zn  Zn109  1  0.18200605  0.68518772  0.19234203  1
  Zn  Zn110  1  0.20214392  0.64993256  0.66756760  1
  Zn  Zn111  1  0.68623547  0.19421312  0.18601529  1
  Zn  Zn112  1  0.69007863  0.18795179  0.68678373  1
  Zn  Zn113  1  0.68893284  0.69169768  0.18996621  1
  Zn  Zn114  1  0.68889830  0.68841630  0.68761383  1
  Zn  Zn115  1  0.30808860  0.31249367  0.32204232  1
  Zn  Zn116  1  0.31199010  0.31063698  0.80982957  1
  Zn  Zn117  1  0.31033583  0.80610423  0.31266373  1
  Zn  Zn118  1  0.31510931  0.81190860  0.81658572  1
  Zn  Zn119  1  0.81466816  0.31365322  0.31052724  1
  Zn  Zn120  1  0.81552537  0.31377165  0.80908536  1
  Zn  Zn121  1  0.80832367  0.81245295  0.31051381  1
  Zn  Zn122  1  0.81312959  0.81375990  0.81539470  1
  Zn  Zn123  1  0.18705874  0.43548527  0.43746838  1
  Zn  Zn124  1  0.18340165  0.43617671  0.93267217  1
  Zn  Zn125  1  0.19209207  0.93439286  0.42766767  1
  Zn  Zn126  1  0.18319861  0.93633929  0.93318720  1
  Zn  Zn127  1  0.68874150  0.43945487  0.43783248  1
  Zn  Zn128  1  0.68498370  0.43993664  0.93765211  1
  Zn  Zn129  1  0.68651349  0.93516802  0.43636692  1
  Zn  Zn130  1  0.68715744  0.93872475  0.93878417  1
  Zn  Zn131  1  0.30854580  0.06235108  0.06527157  1
  Zn  Zn132  1  0.31190610  0.05869153  0.55802272  1
  Zn  Zn133  1  0.30520149  0.56604570  0.06299815  1
  Zn  Zn134  1  0.31918190  0.55943193  0.56043579  1
  Zn  Zn135  1  0.81404218  0.06691665  0.06171653  1
  Zn  Zn136  1  0.81176898  0.06361306  0.56185536  1
  Zn  Zn137  1  0.81098889  0.56801288  0.06170755  1
  Zn  Zn138  1  0.81844648  0.56399504  0.56229533  1
  Zn  Zn139  1  0.43177182  0.43644420  0.19042679  1
  Zn  Zn140  1  0.44023574  0.44121700  0.69227205  1
  Zn  Zn141  1  0.43157509  0.94600931  0.18552461  1
  Zn  Zn142  1  0.44202148  0.93518144  0.68616713  1
  Zn  Zn143  1  0.93360284  0.43666584  0.19433719  1
  Zn  Zn144  1  0.94341418  0.43677021  0.68925850  1
  Zn  Zn145  1  0.94208109  0.93110322  0.18664331  1
  Zn  Zn146  1  0.94021969  0.93790167  0.68507439  1
  Zn  Zn147  1  0.06156301  0.05457193  0.31217383  1
  Zn  Zn148  1  0.06497032  0.06058128  0.81162765  1
  Zn  Zn149  1  0.05937762  0.56678062  0.31205932  1
  Zn  Zn150  1  0.06187401  0.56028738  0.80825727  1
  Zn  Zn151  1  0.55683533  0.06809648  0.31138216  1
  Zn  Zn152  1  0.56209122  0.06229397  0.81094701  1
  Zn  Zn153  1  0.56439325  0.56689271  0.31091571  1
  Zn  Zn154  1  0.56263524  0.56069877  0.81573612  1
  Zn  Zn155  1  0.43799958  0.19778346  0.44406172  1
  Zn  Zn156  1  0.43466803  0.18592892  0.93301862  1
  Zn  Zn157  1  0.43187983  0.68059469  0.43811797  1
  Zn  Zn158  1  0.45122601  0.70384509  0.97086926  1
  Zn  Zn159  1  0.94017108  0.18195157  0.43797931  1
  Zn  Zn160  1  0.93911182  0.18858504  0.93672636  1
  Zn  Zn161  1  0.93275233  0.68540350  0.43856962  1
  Zn  Zn162  1  0.93447907  0.68465161  0.93515264  1
  Zn  Zn163  1  0.05995169  0.31529809  0.05929642  1
  Zn  Zn164  1  0.06774300  0.31198764  0.56014514  1
  Zn  Zn165  1  0.06299656  0.81236764  0.06303515  1
  Zn  Zn166  1  0.06329121  0.81128003  0.56452750  1
  Zn  Zn167  1  0.56398678  0.31504033  0.06631057  1
  Zn  Zn168  1  0.56703420  0.31521468  0.56166380  1
  Zn  Zn169  1  0.56554102  0.81553906  0.06427068  1
  Zn  Zn170  1  0.56435758  0.81093289  0.56405708  1
  O  O171  1  0.11675503  0.12777426  0.11202764  1
  O  O172  1  0.12413609  0.10983966  0.61759721  1
  O  O173  1  0.12763391  0.61352162  0.11908782  1
  O  O174  1  0.09951902  0.61913797  0.62757929  1
  O  O175  1  0.62446948  0.12094323  0.11759063  1
  O  O176  1  0.62804401  0.11776938  0.61608525  1
  O  O177  1  0.63014034  0.62648351  0.11384043  1
  O  O178  1  0.62157042  0.62021812  0.61914545  1
  O  O179  1  0.37132088  0.39153650  0.38057657  1
  O  O180  1  0.38280442  0.37920944  0.88349838  1
  O  O181  1  0.37929672  0.88209738  0.36878222  1
  O  O182  1  0.38191113  0.88749301  0.87895557  1
  O  O183  1  0.88429082  0.38381309  0.36917761  1
  O  O184  1  0.88471219  0.38024066  0.87283042  1
  O  O185  1  0.86445089  0.88650667  0.38399595  1
  O  O186  1  0.88828923  0.88247294  0.87111328  1
  O  O187  1  0.26872023  -0.00288669  0.36598690  1
  O  O188  1  0.25528795  -0.00078416  0.86346228  1
  O  O189  1  0.24979934  0.50831756  0.36810188  1
  O  O190  1  0.26580775  0.50149690  0.88225288  1
  O  O191  1  0.75529691  0.00619472  0.36993149  1
  O  O192  1  0.75728702  0.00462744  0.87124127  1
  O  O193  1  0.75552673  0.50785936  0.37012983  1
  O  O194  1  0.75477219  0.50377402  0.86746270  1
  O  O195  1  0.24240262  0.49419595  0.13765963  1
  O  O196  1  0.24051442  0.53870472  0.63502758  1
  O  O197  1  0.24291036  1.00823523  0.13444493  1
  O  O198  1  0.24490271  0.99759050  0.63415179  1
  O  O199  1  0.75941812  0.50075970  0.14032607  1
  O  O200  1  0.74682294  0.49512573  0.62950114  1
  O  O201  1  0.74770245  0.99435055  0.12733259  1
  O  O202  1  0.74195532  0.99471944  0.62786641  1
  O  O203  1  0.00490231  0.36685247  0.25799908  1
  O  O204  1  0.00412797  0.37896354  0.76821863  1
  O  O205  1  0.00382499  0.85891128  0.25067203  1
  O  O206  1  0.00824100  0.87036736  0.75370234  1
  O  O207  1  0.49720138  0.36280930  0.24955794  1
  O  O208  1  0.50152030  0.36772091  0.75845339  1
  O  O209  1  0.51314704  0.88127892  0.24165366  1
  O  O210  1  0.50254206  0.86681697  0.75951970  1
  O  O211  1  0.48579304  0.13909579  0.24827222  1
  O  O212  1  0.49357944  0.13263014  0.74850398  1
  O  O213  1  0.48426445  0.61826938  0.24935627  1
  O  O214  1  0.49465515  0.63060776  0.74868919  1
  O  O215  1  0.99705480  0.13016531  0.24609906  1
  O  O216  1  0.98878426  0.11841015  0.74553974  1
  O  O217  1  0.99911429  0.64389185  0.25026458  1
  O  O218  1  0.99477932  0.63377671  0.74322453  1
  O  O219  1  0.36920495  0.25376912  0.00639562  1
  O  O220  1  0.36889148  0.27124013  0.49919685  1
  O  O221  1  0.34750883  0.75509285  -0.01274807  1
  O  O222  1  0.36800135  0.74663614  0.50977046  1
  O  O223  1  0.86698040  0.24262653  0.00906590  1
  O  O224  1  0.86216968  0.24071469  0.50507451  1
  O  O225  1  0.86550341  0.74575914  0.01002917  1
  O  O226  1  0.86214209  0.75907246  0.49423600  1
  O  O227  1  0.13340941  0.23774046  0.49902829  1
  O  O228  1  0.12807014  0.24285040  0.99340804  1
  O  O229  1  0.13974380  0.75259261  0.50119871  1
  O  O230  1  0.12855322  0.74363249  0.99418929  1
  O  O231  1  0.63495696  0.24550733  0.49398412  1
  O  O232  1  0.63143160  0.24311948  0.99351678  1
  O  O233  1  0.63535034  0.74080755  0.49566831  1
  O  O234  1  0.63877298  0.73832796  1.00146391  1
  O  O235  1  0.48910820  0.24938134  0.13157843  1
  O  O236  1  0.50747321  0.24958273  0.63804413  1
  O  O237  1  0.48823908  0.73825818  0.07704148  1
  O  O238  1  0.49567682  0.74145744  0.63641352  1
  O  O239  1  0.99333718  0.24557824  0.13001209  1
  O  O240  1  0.98507838  0.24725950  0.61356182  1
  O  O241  1  0.98364594  0.75516256  0.12781661  1
  O  O242  1  0.99925859  0.74068514  0.62984403  1
  O  O243  1  -0.00839456  0.25660176  0.36577293  1
  O  O244  1  0.00631499  0.25984276  0.87668186  1
  O  O245  1  -0.00397740  0.74994497  0.36718018  1
  O  O246  1  0.00604325  0.75577574  0.87074827  1
  O  O247  1  0.51060970  0.24777950  0.36901976  1
  O  O248  1  0.50366915  0.25929749  0.87055251  1
  O  O249  1  0.51267468  0.74018922  0.38146945  1
  O  O250  1  0.49280775  0.76249482  0.87332818  1
  O  O251  1  0.23570590  0.11705930  0.49532777  1
  O  O252  1  0.24020954  0.13042925  0.99531089  1
  O  O253  1  0.25694061  0.63094813  0.48689245  1
  O  O254  1  0.23685114  0.63587963  0.99802194  1
  O  O255  1  0.74064057  0.13199610  0.49479794  1
  O  O256  1  0.74536119  0.13302760  0.99208967  1
  O  O257  1  0.74599409  0.63219886  0.49495458  1
  O  O258  1  0.74024310  0.62997245  0.99365749  1
  O  O259  1  0.25352821  0.37025498  0.00532882  1
  O  O260  1  0.25584542  0.37311020  0.50347645  1
  O  O261  1  0.23868093  0.86150277  -0.00024784  1
  O  O262  1  0.25866548  0.85853269  0.49459116  1
  O  O263  1  0.74817976  0.36193095  -0.00309108  1
  O  O264  1  0.74776739  0.36659203  0.50778972  1
  O  O265  1  0.74430215  0.86662427  0.00799154  1
  O  O266  1  0.75625975  0.86904644  0.50654283  1
  O  O267  1  0.12869538  0.49461933  0.24544205  1
  O  O268  1  0.13546823  0.49936789  0.75152200  1
  O  O269  1  0.12391976  0.98404985  0.25009597  1
  O  O270  1  0.13195215  0.99337415  0.74185543  1
  O  O271  1  0.64141016  0.50116178  0.25699348  1
  O  O272  1  0.63731445  0.50030612  0.74291584  1
  O  O273  1  0.62947071  0.99830418  0.24506452  1
  O  O274  1  0.63396834  1.00036443  0.74203451  1
  O  O275  1  0.37713296  0.01755637  0.26020659  1
  O  O276  1  0.36874219  0.00057768  0.75404940  1
  O  O277  1  0.36566372  0.50330792  0.26027687  1
  O  O278  1  0.37485817  0.50892103  0.76112336  1
  O  O279  1  0.87193144  0.00130149  0.25669858  1
  O  O280  1  0.87065108  0.00667107  0.75369483  1
  O  O281  1  0.86687842  0.50454170  0.26091991  1
  O  O282  1  0.86344117  0.49912545  0.75784625  1
  O  O283  1  0.11610888  0.37859610  0.36264195  1
  O  O284  1  0.11610202  0.36348259  0.87302290  1
  O  O285  1  0.12356768  0.86902598  0.36135598  1
  O  O286  1  0.11284508  0.86963504  0.86525295  1
  O  O287  1  0.63019264  0.36460857  0.37138158  1
  O  O288  1  0.61653298  0.36948314  0.87328657  1
  O  O289  1  0.62957464  0.86600435  0.36509831  1
  O  O290  1  0.61154665  0.88298085  0.87228181  1
  O  O291  1  0.37465021  0.13879378  0.12821856  1
  O  O292  1  0.37948859  0.11329182  0.63609105  1
  O  O293  1  0.36764894  0.61981958  0.14308870  1
  O  O294  1  0.38693999  0.63081288  0.63550298  1
  O  O295  1  0.88214170  0.13158606  0.13216157  1
  O  O296  1  0.87480763  0.13223886  0.63140487  1
  O  O297  1  0.86928761  0.64201129  0.12814905  1
  O  O298  1  0.88729000  0.62453429  0.62987849  1
  O  O299  1  0.25373538  0.25552251  0.11877212  1
  O  O300  1  0.25373641  0.23543029  0.59823649  1
  O  O301  1  0.24727929  0.74567797  0.11523038  1
  O  O302  1  0.25803482  0.73792551  0.61197441  1
  O  O303  1  0.76105030  0.24651828  0.11495371  1
  O  O304  1  0.75606313  0.25826937  0.61700317  1
  O  O305  1  0.75766571  0.75815629  0.11910485  1
  O  O306  1  0.74625857  0.75913348  0.61626758  1
  O  O307  1  0.25236653  0.24955315  0.39780838  1
  O  O308  1  0.24115426  0.24587067  0.88283839  1
  O  O309  1  0.25139775  0.73801723  0.38756725  1
  O  O310  1  0.23272769  0.75278177  0.87525509  1
  O  O311  1  0.74662903  0.24570193  0.37993934  1
  O  O312  1  0.74750008  0.24558851  0.87964848  1
  O  O313  1  0.74400207  0.74219335  0.38118640  1
  O  O314  1  0.75573459  0.74254221  0.88391423  1
  O  O315  1  0.00601480  0.11844848  0.00380414  1
  O  O316  1  0.01248069  0.11585036  0.50065422  1
  O  O317  1  0.01043508  0.62159714  -0.00226445  1
  O  O318  1  -0.00649943  0.61863270  0.50821306  1
  O  O319  1  0.50545430  0.11697027  -0.00277785  1
  O  O320  1  0.51320624  0.12788390  0.50255387  1
  O  O321  1  0.51918650  0.61087601  -0.01191371  1
  O  O322  1  0.50843043  0.62925943  0.51436266  1
  O  O323  1  0.48905588  0.37412458  0.50284638  1
  O  O324  1  0.49551283  0.37983629  0.99410328  1
  O  O325  1  0.49815324  0.87689138  0.50593633  1
  O  O326  1  0.50272927  0.89271665  0.99353514  1
  O  O327  1  1.00116442  0.38041945  0.48621835  1
  O  O328  1  1.00490830  0.38025715  0.98220451  1
  O  O329  1  0.98665796  0.87877712  0.50475639  1
  O  O330  1  1.00567347  0.88384272  0.98995440  1
  O  O331  1  0.48890689  0.50198941  0.37249022  1
  O  O332  1  0.49356340  0.48747715  0.87943614  1
  O  O333  1  0.48210467  1.00912027  0.37468554  1
  O  O334  1  0.49216147  0.99629091  0.87958898  1
  O  O335  1  0.99254882  0.49524697  0.37852516  1
  O  O336  1  0.98879564  0.49407090  0.87681554  1
  O  O337  1  0.98987789  1.00018386  0.38694843  1
  O  O338  1  0.99703294  0.99255630  0.88014649  1
  O  O339  1  0.00122774  0.00458675  0.11665744  1
  O  O340  1  0.00677079  0.00104602  0.61121134  1
  O  O341  1  0.00862546  0.49266620  0.12571734  1
  O  O342  1  -0.00882958  0.50844605  0.61259976  1
  O  O343  1  0.50530268  0.00826962  0.11594877  1
  O  O344  1  0.51605324  0.00173641  0.62644079  1
  O  O345  1  0.49700621  0.49279054  0.11487560  1
  O  O346  1  0.51610891  0.51028849  0.63535386  1
  O  O347  1  0.24140338  0.38105281  0.24957321  1
  O  O348  1  0.24369271  0.37297169  0.75297187  1
  O  O349  1  0.23573853  0.86849270  0.25125014  1
  O  O350  1  0.23725701  0.87878021  0.75501072  1
  O  O351  1  0.75175646  0.39160689  0.25210301  1
  O  O352  1  0.74730214  0.38245703  0.74171024  1
  O  O353  1  0.74364974  0.88261599  0.24081529  1
  O  O354  1  0.75054330  0.88020358  0.74329883  1
  O  O355  1  0.26501135  0.13194488  0.25144667  1
  O  O356  1  0.25732627  0.11455203  0.75047326  1
  O  O357  1  0.25419028  0.61806758  0.26047304  1
  O  O358  1  0.26898092  0.63611831  0.76293765  1
  O  O359  1  0.75576810  0.11970923  0.25310440  1
  O  O360  1  0.75915218  0.11968041  0.75497353  1
  O  O361  1  0.75123915  0.61697018  0.25762560  1
  O  O362  1  0.75177669  0.61926384  0.75559695  1
  O  O363  1  0.37551914  0.13018489  0.37002446  1
  O  O364  1  0.37425861  0.11178106  0.86414653  1
  O  O365  1  0.36580969  0.61180153  0.36840210  1
  O  O366  1  0.38091276  0.61598554  0.87337436  1
  O  O367  1  0.86940657  0.11360293  0.36961921  1
  O  O368  1  0.87247778  0.12103194  0.86612514  1
  O  O369  1  0.86307389  0.61950518  0.37226881  1
  O  O370  1  0.86340972  0.61610098  0.87211903  1
  O  O371  1  0.12763368  0.38031346  0.13577639  1
  O  O372  1  0.11177902  0.38517812  0.62754766  1
  O  O373  1  0.11545715  0.87188124  0.14359340  1
  O  O374  1  0.12056632  0.88645387  0.63230731  1
  O  O375  1  0.63529736  0.36445612  0.13372024  1
  O  O376  1  0.63611745  0.38462232  0.62548295  1
  O  O377  1  0.63491434  0.88174853  0.13016738  1
  O  O378  1  0.63809994  0.88234460  0.62756922  1
  O  O379  1  0.11264263  0.25628252  0.24394678  1
  O  O380  1  0.12886896  0.23972270  0.76013170  1
  O  O381  1  0.11247632  0.75522901  0.25403939  1
  O  O382  1  0.11371906  0.75687054  0.75576637  1
  O  O383  1  0.61540352  0.24710819  0.26038645  1
  O  O384  1  0.61839923  0.24938955  0.75757434  1
  O  O385  1  0.62791704  0.75949150  0.25964046  1
  O  O386  1  0.61180776  0.74956884  0.74922947  1
  O  O387  1  0.37727321  0.24661953  0.24776205  1
  O  O388  1  0.38526145  0.23678185  0.75798408  1
  O  O389  1  0.37508914  0.73327400  0.25218412  1
  O  O390  1  0.38528334  0.74517958  0.74774523  1
  O  O391  1  0.88357583  0.24407086  0.24252509  1
  O  O392  1  0.86916823  0.23988123  0.73788242  1
  O  O393  1  0.88253846  0.75098433  0.24276814  1
  O  O394  1  0.88957944  0.75313952  0.75459984  1
  O  O395  1  0.37512438  0.49268326  0.48731732  1
  O  O396  1  0.38244265  0.49715840  0.99795633  1
  O  O397  1  0.37591106  0.99471136  0.48535452  1
  O  O398  1  0.38026688  1.00294535  0.99176921  1
  O  O399  1  0.88096147  0.50207942  0.48609528  1
  O  O400  1  0.87169606  0.50297360  0.98874360  1
  O  O401  1  0.88094357  0.99514265  0.49364347  1
  O  O402  1  0.88803245  1.00723095  0.99319532  1
  O  O403  1  0.11428364  0.00779039  -0.00201078  1
  O  O404  1  0.12104545  -0.00044289  0.50095615  1
  O  O405  1  0.12562269  0.50688743  0.01008525  1
  O  O406  1  0.11020366  0.50034525  0.49550902  1
  O  O407  1  0.61889992  0.00866008  0.00524346  1
  O  O408  1  0.62655730  0.00894490  0.50501909  1
  O  O409  1  0.62117590  0.51014668  0.00220701  1
  O  O410  1  0.63199256  0.51354900  0.50794158  1
  O  O411  1  0.36612329  0.36475129  0.12191159  1
  O  O412  1  0.37743928  0.39145677  0.61182654  1
  O  O413  1  0.37619855  0.87373997  0.12355666  1
  O  O414  1  0.37610890  0.85918677  0.62945037  1
  O  O415  1  0.87104923  0.36271472  0.12882264  1
  O  O416  1  0.86538563  0.36799113  0.63010957  1
  O  O417  1  0.86342474  0.86586918  0.12733968  1
  O  O418  1  0.86252796  0.88319821  0.61588694  1
  O  O419  1  0.12196309  0.12103192  0.38422597  1
  O  O420  1  0.12187396  0.13138112  0.88457860  1
  O  O421  1  0.13906622  0.62877605  0.37133954  1
  O  O422  1  0.12361257  0.63265046  0.88247457  1
  O  O423  1  0.63077386  0.13219536  0.38132879  1
  O  O424  1  0.63138471  0.12960598  0.87950742  1
  O  O425  1  0.63356209  0.62939200  0.38235265  1
  O  O426  1  0.63881273  0.61917734  0.88018141  1
