# generated using pymatgen
data_V85Zn86O256
_symmetry_space_group_name_H-M   'P 1'
_cell_length_a   16.92928579
_cell_length_b   16.92722835
_cell_length_c   16.92490963
_cell_angle_alpha   89.97549468
_cell_angle_beta   90.00742347
_cell_angle_gamma   90.02162290
_symmetry_Int_Tables_number   1
_chemical_formula_structural   V85Zn86O256
_chemical_formula_sum   'V85 Zn86 O256'
_cell_volume   4850.10090088
_cell_formula_units_Z   1
loop_
 _symmetry_equiv_pos_site_id
 _symmetry_equiv_pos_as_xyz
  1  'x, y, z'
loop_
 _atom_site_type_symbol
 _atom_site_label
 _atom_site_symmetry_multiplicity
 _atom_site_fract_x
 _atom_site_fract_y
 _atom_site_fract_z
 _atom_site_occupancy
  V  V0  1  0.36498953  0.11585667  0.24565740  1
  V  V1  1  0.49990625  0.24986763  0.74792433  1
  V  V2  1  0.00376553  0.37828533  0.87556766  1
  V  V3  1  0.74436677  0.50053181  0.24682137  1
  V  V4  1  0.61955672  0.37471726  0.24433147  1
  V  V5  1  0.63025507  0.12591264  0.49615510  1
  V  V6  1  0.87455560  0.63061092  0.75699822  1
  V  V7  1  0.24766462  0.87383023  0.62970021  1
  V  V8  1  0.63002406  0.73832990  0.87337579  1
  V  V9  1  0.75048759  0.87831185  0.62201529  1
  V  V10  1  0.62468330  0.00059599  0.62619342  1
  V  V11  1  0.87704139  0.37604599  0.00249671  1
  V  V12  1  0.25190784  0.74987129  0.50134277  1
  V  V13  1  0.74952445  0.37556276  0.12587453  1
  V  V14  1  0.12253415  0.62897823  0.50104510  1
  V  V15  1  0.00260741  0.62754388  0.12160796  1
  V  V16  1  -0.00123875  0.75117810  0.25306397  1
  V  V17  1  0.62321584  0.12056342  0.00220579  1
  V  V18  1  0.75354307  0.37595166  0.61973701  1
  V  V19  1  0.24552734  -0.00435864  0.75083953  1
  V  V20  1  0.38018391  0.86699995  -0.00447539  1
  V  V21  1  0.49667319  0.62571481  0.62888987  1
  V  V22  1  0.75166919  0.75505919  0.49805716  1
  V  V23  1  0.11497093  0.37167011  0.24943764  1
  V  V24  1  0.49266663  0.37328818  0.38123418  1
  V  V25  1  0.75362220  0.74806532  -0.00424882  1
  V  V26  1  -0.00109086  0.62545353  0.63219134  1
  V  V27  1  0.49682440  0.75255899  0.75926473  1
  V  V28  1  0.12237548  0.74668244  0.85857601  1
  V  V29  1  0.49349916  0.38138181  0.87602886  1
  V  V30  1  0.25092009  0.26157773  0.50094869  1
  V  V31  1  0.62571749  0.24572561  0.37033614  1
  V  V32  1  0.12315439  0.75150501  0.37821592  1
  V  V33  1  0.49436992  0.12862885  0.12259696  1
  V  V34  1  0.50260255  0.87512762  0.35932813  1
  V  V35  1  0.24130017  0.74126862  0.01044975  1
  V  V36  1  0.87263221  0.49071178  0.37866626  1
  V  V37  1  0.62214211  0.62552461  0.49785391  1
  V  V38  1  0.74891758  0.62507132  0.37517705  1
  V  V39  1  0.12587131  0.50190635  0.12068344  1
  V  V40  1  0.11855153  0.24823941  0.37173852  1
  V  V41  1  -0.00318214  0.49482443  0.49979050  1
  V  V42  1  0.25130574  0.50191684  0.25136157  1
  V  V43  1  0.12832909  0.12020348  0.49904336  1
  V  V44  1  0.74610807  0.00928315  0.25987071  1
  V  V45  1  0.88597484  0.12040937  0.26085231  1
  V  V46  1  0.25219294  0.12227622  0.87782846  1
  V  V47  1  0.00266476  0.25386497  0.74946678  1
  V  V48  1  0.75619049  0.25310571  0.49205124  1
  V  V49  1  0.25677053  0.24698580  0.00637904  1
  V  V50  1  0.75225153  0.50556512  0.75247023  1
  V  V51  1  0.74498119  0.87699289  0.12927049  1
  V  V52  1  0.12702077  0.25164492  0.87713440  1
  V  V53  1  0.88539837  0.88231106  -0.00549054  1
  V  V54  1  0.87665109  0.50410650  0.87533492  1
  V  V55  1  0.49817288  -0.00302521  0.49755263  1
  V  V56  1  0.62878425  0.37493158  0.74971278  1
  V  V57  1  0.37084556  0.26256931  0.61952695  1
  V  V58  1  0.26653228  0.50012172  0.75303167  1
  V  V59  1  0.75140127  0.24869808  0.00263374  1
  V  V60  1  0.25735842  0.37011146  0.12848561  1
  V  V61  1  -0.01322002  -0.00500735  0.49958039  1
  V  V62  1  0.87445021  0.75368890  0.62773960  1
  V  V63  1  0.48499957  0.25213627  0.24605215  1
  V  V64  1  0.62656420  0.50041196  0.62307815  1
  V  V65  1  0.37169485  0.49820675  0.38469652  1
  V  V66  1  0.26329315  0.62449243  0.87498925  1
  V  V67  1  0.11165174  -0.00176727  0.12155029  1
  V  V68  1  0.13053419  0.49502999  0.63007364  1
  V  V69  1  -0.01390866  0.87555826  0.38327102  1
  V  V70  1  0.75255700  0.11807098  0.87576885  1
  V  V71  1  0.87384606  0.62561928  0.24997476  1
  V  V72  1  0.37363502  0.12453322  0.74706035  1
  V  V73  1  0.37624752  0.74785376  0.63038594  1
  V  V74  1  0.62239493  0.87755995  0.76045750  1
  V  V75  1  0.25692021  0.88076802  0.12963337  1
  V  V76  1  0.11420203  0.11835868  0.00250285  1
  V  V77  1  0.49816147  0.12645514  0.62233446  1
  V  V78  1  0.12675901  0.88112841  0.25420134  1
  V  V79  1  0.00292197  0.50519554  0.00025357  1
  V  V80  1  0.87687600  0.25801092  0.62157580  1
  V  V81  1  0.62703223  0.24943477  0.87460405  1
  V  V82  1  0.89024897  0.23980018  0.12901242  1
  V  V83  1  0.00064177  0.12698947  0.62445155  1
  V  V84  1  0.62808252  0.61570940  0.00958265  1
  Zn  Zn85  1  0.49355775  0.61583076  0.12873141  1
  Zn  Zn86  1  0.49802690  -0.00622647  -0.00353789  1
  Zn  Zn87  1  0.12196068  -0.00458823  0.62760402  1
  Zn  Zn88  1  0.50127680  0.74594334  0.23404087  1
  Zn  Zn89  1  0.75121813  0.00165839  0.75181018  1
  Zn  Zn90  1  0.37978880  -0.00839600  0.87324816  1
  Zn  Zn91  1  -0.00628821  0.36969654  0.37497309  1
  Zn  Zn92  1  0.62110903  -0.00285829  0.13047710  1
  Zn  Zn93  1  0.13230704  0.37797830  0.75060611  1
  Zn  Zn94  1  0.37375503  0.63661320  0.24681861  1
  Zn  Zn95  1  0.62473941  0.75865584  0.36793927  1
  Zn  Zn96  1  0.49417324  0.49549983  0.50361334  1
  Zn  Zn97  1  0.87467385  0.12738885  0.75264804  1
  Zn  Zn98  1  0.03226401  0.88105156  0.82352911  1
  Zn  Zn99  1  0.89633209  0.00185496  0.87570570  1
  Zn  Zn100  1  0.37453499  0.37354618  0.00227672  1
  Zn  Zn101  1  0.48462606  0.50396558  0.00102618  1
  Zn  Zn102  1  0.37641593  0.87625176  0.49942563  1
  Zn  Zn103  1  0.25116071  0.62688471  0.37505658  1
  Zn  Zn104  1  0.87559106  0.75308482  0.12328788  1
  Zn  Zn105  1  0.24637869  0.11818125  0.37038594  1
  Zn  Zn106  1  0.36413374  -0.00279221  0.37351798  1
  Zn  Zn107  1  0.17938852  0.18579722  0.18555965  1
  Zn  Zn108  1  0.18789947  0.18910578  0.68647324  1
  Zn  Zn109  1  0.18656902  0.68779902  0.19030692  1
  Zn  Zn110  1  0.19272031  0.67872792  0.68917865  1
  Zn  Zn111  1  0.68846853  0.18574646  0.18748189  1
  Zn  Zn112  1  0.68913688  0.18755665  0.68557832  1
  Zn  Zn113  1  0.68083131  0.69435915  0.18728623  1
  Zn  Zn114  1  0.68705045  0.68882764  0.68738574  1
  Zn  Zn115  1  0.30637142  0.31235434  0.31621170  1
  Zn  Zn116  1  0.31065852  0.31074097  0.80911949  1
  Zn  Zn117  1  0.31649282  0.81416742  0.31419697  1
  Zn  Zn118  1  0.30871390  0.80814648  0.81549016  1
  Zn  Zn119  1  0.81355757  0.30655900  0.30709221  1
  Zn  Zn120  1  0.81501930  0.31262580  0.81223954  1
  Zn  Zn121  1  0.80867403  0.81404078  0.30963562  1
  Zn  Zn122  1  0.81186177  0.81686449  0.81248468  1
  Zn  Zn123  1  0.18224245  0.43819155  0.43640205  1
  Zn  Zn124  1  0.19493769  0.44028725  0.93930592  1
  Zn  Zn125  1  0.18504921  0.93719567  0.44089853  1
  Zn  Zn126  1  0.18721525  0.93159752  0.93943730  1
  Zn  Zn127  1  0.68317213  0.43489908  0.43454389  1
  Zn  Zn128  1  0.69134331  0.43545404  0.93304758  1
  Zn  Zn129  1  0.68677235  0.93897522  0.43601438  1
  Zn  Zn130  1  0.68819211  0.93364451  0.94187731  1
  Zn  Zn131  1  0.31132429  0.05632423  0.06339753  1
  Zn  Zn132  1  0.31148984  0.06365240  0.56147257  1
  Zn  Zn133  1  0.31700759  0.55699635  0.05724907  1
  Zn  Zn134  1  0.31236198  0.56271237  0.56494782  1
  Zn  Zn135  1  0.81455992  0.05867317  0.06435400  1
  Zn  Zn136  1  0.81177405  0.06830332  0.56275629  1
  Zn  Zn137  1  0.81155135  0.56520641  0.06293142  1
  Zn  Zn138  1  0.81326351  0.56523529  0.56247265  1
  Zn  Zn139  1  0.43442199  0.45545531  0.18244137  1
  Zn  Zn140  1  0.44038567  0.43756719  0.68861927  1
  Zn  Zn141  1  0.43671341  0.94053163  0.18028998  1
  Zn  Zn142  1  0.43539289  0.93614817  0.68712157  1
  Zn  Zn143  1  0.93438922  0.43869496  0.18767052  1
  Zn  Zn144  1  0.94028852  0.43884684  0.68787176  1
  Zn  Zn145  1  0.93150693  0.93628284  0.18989030  1
  Zn  Zn146  1  0.92932370  0.94509628  0.69131365  1
  Zn  Zn147  1  0.06142484  0.05777708  0.31472800  1
  Zn  Zn148  1  0.06440429  0.06529072  0.81237989  1
  Zn  Zn149  1  0.06258721  0.56132443  0.31205010  1
  Zn  Zn150  1  0.06924696  0.56963207  0.81481164  1
  Zn  Zn151  1  0.55955951  0.06234497  0.31061997  1
  Zn  Zn152  1  0.56030472  0.06076233  0.81546867  1
  Zn  Zn153  1  0.55989188  0.56159923  0.31231202  1
  Zn  Zn154  1  0.56149068  0.56401742  0.81141591  1
  Zn  Zn155  1  0.43502599  0.18476924  0.43348502  1
  Zn  Zn156  1  0.43747647  0.18847709  0.93494198  1
  Zn  Zn157  1  0.43582030  0.68850812  0.43155130  1
  Zn  Zn158  1  0.44013763  0.69212646  0.94989008  1
  Zn  Zn159  1  0.93814633  0.18412506  0.43769275  1
  Zn  Zn160  1  0.93717605  0.18975026  0.93887298  1
  Zn  Zn161  1  0.93523682  0.68570510  0.44131686  1
  Zn  Zn162  1  0.94403027  0.69668497  0.93636294  1
  Zn  Zn163  1  0.06816719  0.31354793  0.05989007  1
  Zn  Zn164  1  0.06684112  0.31440251  0.55948478  1
  Zn  Zn165  1  0.06623492  0.81124648  0.06293966  1
  Zn  Zn166  1  0.03961509  0.83398133  0.61190337  1
  Zn  Zn167  1  0.56167491  0.31165115  0.06300803  1
  Zn  Zn168  1  0.56479066  0.31134256  0.56151901  1
  Zn  Zn169  1  0.56476926  0.80450393  0.06478803  1
  Zn  Zn170  1  0.56556977  0.81204257  0.56384133  1
  O  O171  1  0.12863876  0.10677195  0.11906561  1
  O  O172  1  0.11288687  0.12903052  0.61767414  1
  O  O173  1  0.11446640  0.61381201  0.13346769  1
  O  O174  1  0.11642530  0.61893147  0.62035319  1
  O  O175  1  0.61708003  0.12666075  0.11604113  1
  O  O176  1  0.61859811  0.12301186  0.61613015  1
  O  O177  1  0.63315844  0.62090218  0.11017963  1
  O  O178  1  0.62095477  0.62102630  0.61549536  1
  O  O179  1  0.38292267  0.37994663  0.37168195  1
  O  O180  1  0.39307328  0.36551955  0.86939333  1
  O  O181  1  0.38847390  0.88065488  0.38153623  1
  O  O182  1  0.36832064  0.87226972  0.89149901  1
  O  O183  1  0.87438895  0.38642970  0.36737185  1
  O  O184  1  0.88308568  0.38075071  0.88210887  1
  O  O185  1  0.88707238  0.86745838  0.37643821  1
  O  O186  1  0.87254466  0.87665591  0.88859994  1
  O  O187  1  0.25028459  0.00461584  0.38150951  1
  O  O188  1  0.25274540  0.00683237  0.86895204  1
  O  O189  1  0.25358312  0.49968525  0.36982365  1
  O  O190  1  0.24485651  0.51463357  0.86648822  1
  O  O191  1  0.75042120  -0.00584723  0.35856671  1
  O  O192  1  0.74447837  0.01349055  0.87713497  1
  O  O193  1  0.75530756  0.50377313  0.36973879  1
  O  O194  1  0.76067638  0.49374353  0.85987256  1
  O  O195  1  0.23995133  0.49106323  0.13311184  1
  O  O196  1  0.24389462  0.51101521  0.64226300  1
  O  O197  1  0.24126235  0.98314538  0.12535730  1
  O  O198  1  0.25239325  0.99110522  0.63181411  1
  O  O199  1  0.75760831  0.48568302  0.13309239  1
  O  O200  1  0.74837322  0.49428272  0.63125018  1
  O  O201  1  0.74680709  0.99014582  0.12958752  1
  O  O202  1  0.74351797  0.99494151  0.62373227  1
  O  O203  1  0.01109172  0.38143044  0.25207227  1
  O  O204  1  0.00425326  0.37120105  0.75752269  1
  O  O205  1  0.00384592  0.87065753  0.26089250  1
  O  O206  1  0.00086683  0.86509548  0.71651167  1
  O  O207  1  0.50487411  0.36888374  0.25448322  1
  O  O208  1  0.50858010  0.37025165  0.75777974  1
  O  O209  1  0.49907652  0.88111816  0.25807015  1
  O  O210  1  0.51028397  0.86457209  0.74151769  1
  O  O211  1  0.49026791  0.13237796  0.24208756  1
  O  O212  1  0.49433942  0.13232079  0.74358791  1
  O  O213  1  0.49447210  0.62231048  0.24944668  1
  O  O214  1  0.50812697  0.63489320  0.73656130  1
  O  O215  1  0.98620584  0.11725703  0.25130746  1
  O  O216  1  1.00174421  0.13580969  0.74020467  1
  O  O217  1  0.99356927  0.62873246  0.24371703  1
  O  O218  1  0.99242429  0.62097657  0.73870318  1
  O  O219  1  0.36075712  0.25322684  -0.00387060  1
  O  O220  1  0.35955011  0.24249569  0.50377223  1
  O  O221  1  0.35972083  0.75962183  -0.00027904  1
  O  O222  1  0.36687749  0.74911850  0.50959666  1
  O  O223  1  0.87084392  0.25546180  0.01060557  1
  O  O224  1  0.86422533  0.24673880  0.50463612  1
  O  O225  1  0.86779064  0.75639870  0.00064307  1
  O  O226  1  0.85881946  0.74058904  0.51095413  1
  O  O227  1  0.13396109  0.24362457  0.49589976  1
  O  O228  1  0.13352382  0.24023814  0.99545430  1
  O  O229  1  0.13088870  0.73761500  0.50025823  1
  O  O230  1  0.13978253  0.75184556  0.99553446  1
  O  O231  1  0.63211828  0.24424298  0.49184377  1
  O  O232  1  0.63200108  0.24158030  0.99487949  1
  O  O233  1  0.63470043  0.74164625  0.49914473  1
  O  O234  1  0.63388752  0.74166664  0.98984107  1
  O  O235  1  0.50198466  0.24053647  0.13381851  1
  O  O236  1  0.49444120  0.24535773  0.62769661  1
  O  O237  1  0.50342671  0.73166170  0.11842170  1
  O  O238  1  0.49451381  0.74450269  0.63110321  1
  O  O239  1  0.98815206  0.25374982  0.12072146  1
  O  O240  1  0.99498534  0.24865893  0.62572680  1
  O  O241  1  1.00049043  0.74231247  0.13286447  1
  O  O242  1  0.98302169  0.73543304  0.60902463  1
  O  O243  1  0.01348194  0.25380699  0.38576708  1
  O  O244  1  0.00735854  0.25632953  0.87074228  1
  O  O245  1  0.00460840  0.75481452  0.37589052  1
  O  O246  1  0.01892002  0.75387532  0.87259644  1
  O  O247  1  0.50464980  0.25549355  0.36713889  1
  O  O248  1  0.50867067  0.25478902  0.86632478  1
  O  O249  1  0.50303556  0.77068785  0.38634188  1
  O  O250  1  0.50671807  0.74500808  0.86353702  1
  O  O251  1  0.23592605  0.13109595  0.50284716  1
  O  O252  1  0.24606307  0.12855823  0.99426634  1
  O  O253  1  0.24162608  0.63458380  0.50228640  1
  O  O254  1  0.25078389  0.63581727  0.99430538  1
  O  O255  1  0.73762833  0.13561413  0.50350295  1
  O  O256  1  0.74351603  0.12957261  0.99621623  1
  O  O257  1  0.74177655  0.63050422  0.49577408  1
  O  O258  1  0.74569098  0.63911615  1.00265978  1
  O  O259  1  0.24565019  0.36409967  0.01099768  1
  O  O260  1  0.24406490  0.36039601  0.49756663  1
  O  O261  1  0.25445969  0.86460665  0.01313379  1
  O  O262  1  0.25106273  0.86142925  0.50719040  1
  O  O263  1  0.75599871  0.37082618  0.00726613  1
  O  O264  1  0.74262289  0.36511812  0.50761534  1
  O  O265  1  0.75772865  0.86690580  0.00770468  1
  O  O266  1  0.74210218  0.86645906  0.50753441  1
  O  O267  1  0.13233951  0.49222055  0.24540612  1
  O  O268  1  0.13105762  0.50162673  0.74269500  1
  O  O269  1  0.12125776  0.98734938  0.24150619  1
  O  O270  1  0.14195719  1.00956676  0.74356992  1
  O  O271  1  0.63770643  0.48938609  0.25848147  1
  O  O272  1  0.63510599  0.49701315  0.74411223  1
  O  O273  1  0.63968543  1.00951829  0.24693257  1
  O  O274  1  0.62561854  0.99387223  0.74396365  1
  O  O275  1  0.37573031  0.01327992  0.24867380  1
  O  O276  1  0.36729575  0.00954799  0.74972257  1
  O  O277  1  0.35867518  0.49287004  0.26236125  1
  O  O278  1  0.36552113  0.50043422  0.74852153  1
  O  O279  1  0.86455018  0.01370656  0.24326165  1
  O  O280  1  0.86765279  0.00983773  0.75715561  1
  O  O281  1  0.86393249  0.50497075  0.25666983  1
  O  O282  1  0.87069587  0.50835895  0.75366856  1
  O  O283  1  0.12219437  0.36749226  0.36647436  1
  O  O284  1  0.11998238  0.36957316  0.87836615  1
  O  O285  1  0.11689010  0.86931306  0.36994224  1
  O  O286  1  0.13662047  0.85524935  0.87212279  1
  O  O287  1  0.61733849  0.36552357  0.36350674  1
  O  O288  1  0.62188191  0.36670293  0.86871584  1
  O  O289  1  0.60653900  0.87913262  0.38031158  1
  O  O290  1  0.62882462  0.86769742  0.86424110  1
  O  O291  1  0.38026437  0.12264076  0.13360803  1
  O  O292  1  0.38049397  0.13276347  0.62957702  1
  O  O293  1  0.37453332  0.60724745  0.13583374  1
  O  O294  1  0.38583908  0.63394594  0.62154954  1
  O  O295  1  0.87459301  0.13702260  0.12548469  1
  O  O296  1  0.88565524  0.13897922  0.62415608  1
  O  O297  1  0.88243154  0.62555814  0.13481776  1
  O  O298  1  0.88020100  0.62969215  0.63490428  1
  O  O299  1  0.24054911  0.25737280  0.11695498  1
  O  O300  1  0.25595786  0.24824433  0.61190348  1
  O  O301  1  0.24145156  0.75693758  0.11552857  1
  O  O302  1  0.25861245  0.75187328  0.62310266  1
  O  O303  1  0.75676950  0.25975461  0.12152152  1
  O  O304  1  0.75876441  0.25531289  0.61729943  1
  O  O305  1  0.75215662  0.76172204  0.11893585  1
  O  O306  1  0.75316716  0.75726920  0.61815049  1
  O  O307  1  0.24021757  0.24413127  0.38631697  1
  O  O308  1  0.24370161  0.24360739  0.88078628  1
  O  O309  1  0.24232261  0.75128725  0.38614630  1
  O  O310  1  0.24489244  0.73933742  0.88315927  1
  O  O311  1  0.74016577  0.25704737  0.38181448  1
  O  O312  1  0.74674923  0.24406093  0.88213700  1
  O  O313  1  0.74752074  0.74507135  0.38184300  1
  O  O314  1  0.74216697  0.75521062  0.88370395  1
  O  O315  1  0.01520288  0.12650457  -0.00648651  1
  O  O316  1  0.00810915  0.11829798  0.50488380  1
  O  O317  1  -0.00615949  0.62196838  0.01399752  1
  O  O318  1  0.00554095  0.61545899  0.50738627  1
  O  O319  1  0.50696726  0.13186551  0.00744922  1
  O  O320  1  0.50904350  0.11866928  0.50132133  1
  O  O321  1  0.51931245  0.62031092  -0.00842831  1
  O  O322  1  0.50770677  0.62504655  0.50886116  1
  O  O323  1  0.50701797  0.37442924  0.48509123  1
  O  O324  1  0.50146478  0.36915508  0.98432741  1
  O  O325  1  0.50184970  0.89065466  0.50689558  1
  O  O326  1  0.48311016  0.87066062  1.00827963  1
  O  O327  1  1.00551282  0.39108733  0.49771223  1
  O  O328  1  0.99535340  0.38345903  0.99617348  1
  O  O329  1  1.00182393  0.88896423  0.50309826  1
  O  O330  1  0.98327120  0.86694244  1.00634554  1
  O  O331  1  0.48991866  0.48960924  0.37777111  1
  O  O332  1  0.50838532  0.48392054  0.87467467  1
  O  O333  1  0.49764454  0.99236872  0.38156623  1
  O  O334  1  0.49156524  1.00870966  0.88355028  1
  O  O335  1  0.99017091  0.50051215  0.38207522  1
  O  O336  1  0.99736233  0.49947404  0.88089298  1
  O  O337  1  1.00364330  0.99045782  0.39126698  1
  O  O338  1  1.00854733  0.98505018  0.86309968  1
  O  O339  1  0.01326665  -0.00930066  0.12551731  1
  O  O340  1  -0.00106081  0.01192819  0.61662974  1
  O  O341  1  0.00541584  0.50659288  0.12152370  1
  O  O342  1  0.00535881  0.50790372  0.61870273  1
  O  O343  1  0.50310983  0.01312903  0.11834585  1
  O  O344  1  0.50539601  0.00739710  0.61923922  1
  O  O345  1  0.50803124  0.49916881  0.11367801  1
  O  O346  1  0.50649987  0.50788936  0.62441784  1
  O  O347  1  0.23827083  0.37871975  0.24520904  1
  O  O348  1  0.24950034  0.39415201  0.75958399  1
  O  O349  1  0.24087961  0.86606168  0.23778174  1
  O  O350  1  0.25993461  0.88489522  0.74353055  1
  O  O351  1  0.74316480  0.37879979  0.24345740  1
  O  O352  1  0.74773133  0.38114422  0.74134278  1
  O  O353  1  0.75711894  0.88618962  0.23561565  1
  O  O354  1  0.73973639  0.87795580  0.74160582  1
  O  O355  1  0.26326076  0.13249714  0.24707212  1
  O  O356  1  0.25589065  0.12168396  0.75660533  1
  O  O357  1  0.24623834  0.61419300  0.25531146  1
  O  O358  1  0.25411154  0.61627641  0.76460935  1
  O  O359  1  0.75886108  0.11452475  0.24496237  1
  O  O360  1  0.75011839  0.12771114  0.76173353  1
  O  O361  1  0.75286093  0.61699324  0.25274539  1
  O  O362  1  0.75950981  0.61514685  0.74272644  1
  O  O363  1  0.37433146  0.12280458  0.35788887  1
  O  O364  1  0.36230718  0.12938405  0.86744813  1
  O  O365  1  0.37074001  0.61230577  0.37484028  1
  O  O366  1  0.36219522  0.63246091  0.88152313  1
  O  O367  1  0.87392631  0.13152439  0.35967430  1
  O  O368  1  0.86620969  0.12450886  0.87714694  1
  O  O369  1  0.86805625  0.61669984  0.36837017  1
  O  O370  1  0.88307422  0.62521870  0.86239001  1
  O  O371  1  0.12891668  0.38200973  0.13265944  1
  O  O372  1  0.12302350  0.39175649  0.62545677  1
  O  O373  1  0.13134196  0.88166813  0.13152345  1
  O  O374  1  0.14416531  0.87638356  0.62040286  1
  O  O375  1  0.63275814  0.36772214  0.13715009  1
  O  O376  1  0.63083699  0.38042389  0.63088338  1
  O  O377  1  0.64085332  0.87865077  0.11384041  1
  O  O378  1  0.63380785  0.87960821  0.63304312  1
  O  O379  1  0.12703642  0.25709985  0.25955548  1
  O  O380  1  0.12167924  0.25524351  0.75677278  1
  O  O381  1  0.11736720  0.75989260  0.25641161  1
  O  O382  1  0.13063119  0.74511269  0.75822239  1
  O  O383  1  0.61719550  0.25417802  0.25570907  1
  O  O384  1  0.62105260  0.25559404  0.75337567  1
  O  O385  1  0.61629315  0.75008535  0.25589278  1
  O  O386  1  0.62014558  0.75673936  0.75547182  1
  O  O387  1  0.38279248  0.24458565  0.25426744  1
  O  O388  1  0.37744908  0.24331851  0.73968579  1
  O  O389  1  0.38787767  0.74915464  0.26175955  1
  O  O390  1  0.38313678  0.75523215  0.73992667  1
  O  O391  1  0.87304761  0.23706455  0.23711517  1
  O  O392  1  0.88376399  0.25012525  0.74050173  1
  O  O393  1  0.88039402  0.74226074  0.24914263  1
  O  O394  1  0.86511717  0.74303596  0.73809320  1
  O  O395  1  0.37262639  0.49880980  0.49011332  1
  O  O396  1  0.37071655  0.48597240  0.99020720  1
  O  O397  1  0.38640511  1.00264290  0.49951490  1
  O  O398  1  0.37113241  0.98149745  0.99960361  1
  O  O399  1  0.88299098  0.50627244  0.49062611  1
  O  O400  1  0.87983817  0.49666146  0.99430392  1
  O  O401  1  0.88801505  1.00809087  0.50171054  1
  O  O402  1  0.87357550  0.98721058  0.99583701  1
  O  O403  1  0.12980265  0.00321690  0.01248125  1
  O  O404  1  0.11576444  0.00826226  0.50720019  1
  O  O405  1  0.12059111  0.49639988  0.01360274  1
  O  O406  1  0.12114825  0.51146278  0.50634507  1
  O  O407  1  0.62408270  0.01294750  0.00041467  1
  O  O408  1  0.62093108  0.01022363  0.50460755  1
  O  O409  1  0.63773289  0.51724613  -0.01019878  1
  O  O410  1  0.62350684  0.50673947  0.50673107  1
  O  O411  1  0.35966559  0.37569971  0.13005670  1
  O  O412  1  0.38200345  0.36174236  0.62523546  1
  O  O413  1  0.36138163  0.87595229  0.11995179  1
  O  O414  1  0.36686695  0.86617530  0.62037060  1
  O  O415  1  0.86912107  0.36532977  0.12316941  1
  O  O416  1  0.87254639  0.36532577  0.62609740  1
  O  O417  1  0.86408061  0.87485523  0.11522292  1
  O  O418  1  0.85843108  0.86738070  0.62629933  1
  O  O419  1  0.12380271  0.13077315  0.38164917  1
  O  O420  1  0.13695636  0.13014862  0.88110592  1
  O  O421  1  0.12411606  0.63125093  0.38448993  1
  O  O422  1  0.13668836  0.63864275  0.87582362  1
  O  O423  1  0.61821762  0.13771780  0.38091976  1
  O  O424  1  0.63153093  0.13331195  0.88139953  1
  O  O425  1  0.62985794  0.62139887  0.38776401  1
  O  O426  1  0.62938394  0.63564849  0.87298635  1
