# generated using pymatgen
data_V85Zn86O256
_symmetry_space_group_name_H-M   'P 1'
_cell_length_a   16.95072242
_cell_length_b   16.95004913
_cell_length_c   16.93940275
_cell_angle_alpha   90.00654170
_cell_angle_beta   90.01137559
_cell_angle_gamma   89.93662002
_symmetry_Int_Tables_number   1
_chemical_formula_structural   V85Zn86O256
_chemical_formula_sum   'V85 Zn86 O256'
_cell_volume   4866.95118236
_cell_formula_units_Z   1
loop_
 _symmetry_equiv_pos_site_id
 _symmetry_equiv_pos_as_xyz
  1  'x, y, z'
loop_
 _atom_site_type_symbol
 _atom_site_label
 _atom_site_symmetry_multiplicity
 _atom_site_fract_x
 _atom_site_fract_y
 _atom_site_fract_z
 _atom_site_occupancy
  V  V0  1  0.62571396  0.62431706  0.49954295  1
  V  V1  1  0.62982432  0.24149140  0.88094532  1
  V  V2  1  0.24947608  0.37736231  0.62128899  1
  V  V3  1  0.62536983  0.25080467  0.37039996  1
  V  V4  1  0.49996550  0.24071158  0.75301666  1
  V  V5  1  0.75252199  0.76498223  0.50499091  1
  V  V6  1  -0.00546309  0.75405739  0.25788498  1
  V  V7  1  0.74980337  0.37410194  0.12210284  1
  V  V8  1  -0.00553718  0.62928076  0.62178614  1
  V  V9  1  0.25853079  0.50100499  0.74929488  1
  V  V10  1  0.12202948  0.50314453  0.62370017  1
  V  V11  1  0.25157730  0.50430349  0.24707282  1
  V  V12  1  -0.00147373  -0.00392860  -0.00174678  1
  V  V13  1  0.12907878  -0.00114820  0.13133717  1
  V  V14  1  0.87804158  -0.01331485  0.38430163  1
  V  V15  1  0.87331664  0.62963794  0.74933685  1
  V  V16  1  0.12539583  0.25013659  0.37395626  1
  V  V17  1  0.87418305  0.76549487  0.62828711  1
  V  V18  1  0.49765494  0.75977615  0.75404283  1
  V  V19  1  -0.00377366  0.50082107  -0.00137934  1
  V  V20  1  0.87681354  0.11978171  0.25230543  1
  V  V21  1  0.87205774  0.49786978  0.87212069  1
  V  V22  1  0.51079369  0.12373253  0.13623825  1
  V  V23  1  0.62194098  0.37228801  0.75235290  1
  V  V24  1  0.87319298  0.12604909  0.76038959  1
  V  V25  1  0.36788556  0.24992851  0.12148631  1
  V  V26  1  0.12755723  0.12224238  0.49998733  1
  V  V27  1  0.12100173  0.87412952  0.25679550  1
  V  V28  1  0.37916727  0.62604676  0.74741366  1
  V  V29  1  0.75393848  0.49912845  0.25302671  1
  V  V30  1  0.24959342  0.75197881  0.00092814  1
  V  V31  1  0.38285640  0.75120246  0.12829441  1
  V  V32  1  0.25086841  0.24846839  0.49604995  1
  V  V33  1  0.87606014  0.86393273  0.00160459  1
  V  V34  1  0.12803885  0.37244346  0.74941854  1
  V  V35  1  0.37694222  0.87844047  -0.00582783  1
  V  V36  1  0.74838379  0.37403253  0.62697065  1
  V  V37  1  0.88175264  0.25291162  0.62527053  1
  V  V38  1  0.38644532  0.62603560  0.24792463  1
  V  V39  1  0.50003472  0.49638035  0.49994776  1
  V  V40  1  -0.00182319  0.38312365  0.37315293  1
  V  V41  1  0.37655677  0.37552834  0.49559576  1
  V  V42  1  0.01048877  0.24891699  0.75902932  1
  V  V43  1  0.00570934  0.12540330  0.62426835  1
  V  V44  1  0.37593893  0.86625115  0.50105338  1
  V  V45  1  0.87211172  0.62737104  0.24725741  1
  V  V46  1  0.49921840  0.37299006  0.36960340  1
  V  V47  1  0.87454208  0.24876322  0.12591945  1
  V  V48  1  0.63189313  0.87917720  0.73519481  1
  V  V49  1  0.50932429  -0.00146336  0.00076955  1
  V  V50  1  0.61625573  0.37694569  0.24459152  1
  V  V51  1  0.49712998  0.38703008  0.88778400  1
  V  V52  1  -0.00585454  0.63486252  0.12411189  1
  V  V53  1  0.00156404  0.12297960  0.12618181  1
  V  V54  1  0.12881036  -0.00728268  0.62805021  1
  V  V55  1  0.75079416  0.12437692  0.37884160  1
  V  V56  1  0.13027459  0.37473082  0.24704334  1
  V  V57  1  0.12294087  0.63044651  -0.00138122  1
  V  V58  1  0.37718262  0.24953069  0.62559954  1
  V  V59  1  0.62961868  0.75347263  0.87870551  1
  V  V60  1  0.62272410  0.74643886  0.36999016  1
  V  V61  1  0.00094218  0.87333108  0.86218087  1
  V  V62  1  0.24676707  0.11480640  0.36975649  1
  V  V63  1  0.74019533  -0.00255986  0.24885337  1
  V  V64  1  0.13103973  0.12371863  -0.00244333  1
  V  V65  1  0.12043628  0.75371959  0.86073076  1
  V  V66  1  0.36713584  -0.01044315  0.36501620  1
  V  V67  1  0.25301923  0.86573424  0.63076743  1
  V  V68  1  0.25193072  0.87718384  0.13143180  1
  V  V69  1  0.87482237  0.38334080  0.49486989  1
  V  V70  1  0.76080568  0.62022712  0.37999706  1
  V  V71  1  0.50514980  0.62515696  0.10535262  1
  V  V72  1  0.12404708  0.50017398  0.12664330  1
  V  V73  1  0.24922261  -0.00622719  0.75387656  1
  V  V74  1  0.49940161  0.63123266  0.62440550  1
  V  V75  1  0.49890426  0.87022091  0.37049318  1
  V  V76  1  0.24872964  0.74520493  0.50011483  1
  V  V77  1  0.37402749  0.12458123  0.25031474  1
  V  V78  1  0.25492471  0.62694392  0.87329818  1
  V  V79  1  0.75393000  0.87137849  0.12313532  1
  V  V80  1  0.75253191  0.24873644  0.49773451  1
  V  V81  1  0.62466040  0.50539423  0.10970125  1
  V  V82  1  0.18057347  0.29174923  0.93058640  1
  V  V83  1  0.25573547  0.12446901  0.87404169  1
  V  V84  1  0.61919650  0.87401621  0.24277768  1
  Zn  Zn85  1  0.73935062  0.00319663  0.74509871  1
  Zn  Zn86  1  0.64332965  0.07589806  0.56433347  1
  Zn  Zn87  1  0.37551783  0.50070877  0.36846457  1
  Zn  Zn88  1  0.49911731  0.01275224  0.51218639  1
  Zn  Zn89  1  0.74735289  0.74292024  0.00749615  1
  Zn  Zn90  1  0.11858094  0.75059200  0.38086127  1
  Zn  Zn91  1  0.75638274  0.23745472  -0.00373497  1
  Zn  Zn92  1  0.63443482  0.11409842  0.00369014  1
  Zn  Zn93  1  0.86044925  0.00330019  0.88031271  1
  Zn  Zn94  1  -0.00019842  -0.01470712  0.50158541  1
  Zn  Zn95  1  0.62267316  0.49731778  0.62698340  1
  Zn  Zn96  1  0.38568562  0.10908451  0.72873680  1
  Zn  Zn97  1  0.12041089  0.62556338  0.49648064  1
  Zn  Zn98  1  -0.00024200  0.25111881  0.25258523  1
  Zn  Zn99  1  0.87565695  0.37178987  -0.00230458  1
  Zn  Zn100  1  0.24759336  0.62754079  0.37166050  1
  Zn  Zn101  1  0.37841520  -0.00027585  0.87689896  1
  Zn  Zn102  1  -0.00369660  0.50318848  0.49750854  1
  Zn  Zn103  1  0.74279462  0.62097903  0.88239204  1
  Zn  Zn104  1  0.35821716  0.37381897  -0.00816931  1
  Zn  Zn105  1  0.00255485  0.37333893  0.87650171  1
  Zn  Zn106  1  0.74750054  0.50010110  0.75044203  1
  Zn  Zn107  1  0.18978805  0.18622983  0.18900745  1
  Zn  Zn108  1  0.19465294  0.18460002  0.68872094  1
  Zn  Zn109  1  0.18641401  0.68910000  0.18822347  1
  Zn  Zn110  1  0.18687852  0.68618393  0.68534401  1
  Zn  Zn111  1  0.69002256  0.18798883  0.19089669  1
  Zn  Zn112  1  0.69693114  0.17416734  0.68570220  1
  Zn  Zn113  1  0.68536186  0.68755887  0.18520109  1
  Zn  Zn114  1  0.68692546  0.68782514  0.68888797  1
  Zn  Zn115  1  0.31346866  0.31231920  0.30367896  1
  Zn  Zn116  1  0.32194711  0.31636165  0.80839185  1
  Zn  Zn117  1  0.30788058  0.80570325  0.31028754  1
  Zn  Zn118  1  0.31415887  0.80944495  0.81151597  1
  Zn  Zn119  1  0.81377729  0.31353309  0.30920628  1
  Zn  Zn120  1  0.81417018  0.31017893  0.81140982  1
  Zn  Zn121  1  0.80450252  0.80537504  0.30818211  1
  Zn  Zn122  1  0.80780486  0.82080623  0.81028561  1
  Zn  Zn123  1  0.18744101  0.44119294  0.43361367  1
  Zn  Zn124  1  0.18686217  0.45500357  0.93620907  1
  Zn  Zn125  1  0.18645682  0.93412872  0.44218201  1
  Zn  Zn126  1  0.18567385  0.93658505  0.93906678  1
  Zn  Zn127  1  0.68578898  0.43636255  0.43749395  1
  Zn  Zn128  1  0.68973165  0.43027673  0.93577426  1
  Zn  Zn129  1  0.68211399  0.93949828  0.43428953  1
  Zn  Zn130  1  0.68694020  0.93236789  0.92685343  1
  Zn  Zn131  1  0.31408899  0.06255922  0.06514680  1
  Zn  Zn132  1  0.33640247  0.04537677  0.57040639  1
  Zn  Zn133  1  0.31279422  0.56332104  0.05990126  1
  Zn  Zn134  1  0.31685853  0.56368904  0.56356599  1
  Zn  Zn135  1  0.81046780  0.05678104  0.06473669  1
  Zn  Zn136  1  0.81780042  0.06235203  0.56840173  1
  Zn  Zn137  1  0.80995691  0.56400126  0.06054055  1
  Zn  Zn138  1  0.81098372  0.56292668  0.56531315  1
  Zn  Zn139  1  0.42025350  0.45134317  0.14609642  1
  Zn  Zn140  1  0.44121173  0.43374091  0.68762337  1
  Zn  Zn141  1  0.44070828  0.94079739  0.18669114  1
  Zn  Zn142  1  0.43636456  0.93680576  0.68223915  1
  Zn  Zn143  1  0.93736970  0.44031764  0.18885014  1
  Zn  Zn144  1  0.93884689  0.43747464  0.68979947  1
  Zn  Zn145  1  0.93449152  0.93685548  0.18736806  1
  Zn  Zn146  1  0.93776730  0.94393342  0.68729110  1
  Zn  Zn147  1  0.05941534  0.05773436  0.31434594  1
  Zn  Zn148  1  0.06719567  0.06147481  0.81467509  1
  Zn  Zn149  1  0.06120991  0.56676321  0.31420190  1
  Zn  Zn150  1  0.06014752  0.56585392  0.80819266  1
  Zn  Zn151  1  0.54711860  0.07471504  0.34710359  1
  Zn  Zn152  1  0.56258438  0.05790366  0.81663553  1
  Zn  Zn153  1  0.56542928  0.55909464  0.30795806  1
  Zn  Zn154  1  0.56454588  0.56322623  0.81482107  1
  Zn  Zn155  1  0.43551767  0.18816745  0.43601509  1
  Zn  Zn156  1  0.44319544  0.18841828  0.94490794  1
  Zn  Zn157  1  0.43647963  0.68624513  0.43361546  1
  Zn  Zn158  1  0.43673670  0.69138224  0.93333208  1
  Zn  Zn159  1  0.93927949  0.18979997  0.43806598  1
  Zn  Zn160  1  0.94438688  0.18780985  0.94079474  1
  Zn  Zn161  1  0.93542653  0.81205520  0.44120070  1
  Zn  Zn162  1  0.93502925  0.68717914  0.93165865  1
  Zn  Zn163  1  0.05691110  0.31549846  0.06963648  1
  Zn  Zn164  1  0.06339549  0.31385885  0.56096561  1
  Zn  Zn165  1  0.06281637  0.81327715  0.06295934  1
  Zn  Zn166  1  0.06454627  0.80949136  0.57101488  1
  Zn  Zn167  1  0.55821393  0.30556290  0.06471268  1
  Zn  Zn168  1  0.58062844  0.27225834  0.57644213  1
  Zn  Zn169  1  0.56152677  0.81495563  0.06302777  1
  Zn  Zn170  1  0.56033759  0.81162244  0.55831682  1
  O  O171  1  0.12126740  0.11710427  0.12185656  1
  O  O172  1  0.12400858  0.11592569  0.62119270  1
  O  O173  1  0.11490789  0.62105918  0.11893999  1
  O  O174  1  0.11436361  0.61814079  0.62818410  1
  O  O175  1  0.61360962  0.12497913  0.13254374  1
  O  O176  1  0.61167023  0.16819285  0.61597786  1
  O  O177  1  0.61607465  0.61909918  0.12631331  1
  O  O178  1  0.61764015  0.62098815  0.61868635  1
  O  O179  1  0.38379517  0.37673923  0.37366882  1
  O  O180  1  0.39103989  0.37305319  0.87782061  1
  O  O181  1  0.37840159  0.87261030  0.37331170  1
  O  O182  1  0.36963179  0.87285187  0.89141370  1
  O  O183  1  0.88495525  0.36877356  0.38215631  1
  O  O184  1  0.87976874  0.38333157  0.87583898  1
  O  O185  1  0.86827384  0.88407338  0.37174193  1
  O  O186  1  0.88654651  0.87807288  0.88037787  1
  O  O187  1  0.25232477  0.00389601  0.37504432  1
  O  O188  1  0.24958684  0.00457374  0.86967388  1
  O  O189  1  0.25190961  0.50309967  0.35961452  1
  O  O190  1  0.24570686  0.51716047  0.86318462  1
  O  O191  1  0.75994945  0.00646077  0.37162889  1
  O  O192  1  0.75040002  -0.00565307  0.85937549  1
  O  O193  1  0.74210468  0.50791146  0.36556675  1
  O  O194  1  0.75937542  0.49839065  0.87247081  1
  O  O195  1  0.23098953  0.50955087  0.13448478  1
  O  O196  1  0.24422567  0.49779303  0.63083075  1
  O  O197  1  0.23965124  0.99111591  0.12192200  1
  O  O198  1  0.24754977  0.99002829  0.63267532  1
  O  O199  1  0.74573784  0.49180576  0.13160046  1
  O  O200  1  0.74615361  0.48455904  0.62469963  1
  O  O201  1  0.75474607  0.98651333  0.13919346  1
  O  O202  1  0.73250024  1.05186285  0.64024301  1
  O  O203  1  0.00883803  0.37570277  0.25659114  1
  O  O204  1  0.01037043  0.36737560  0.75182043  1
  O  O205  1  0.00698194  0.86420698  0.23947678  1
  O  O206  1  -0.00132175  0.88168752  0.76391300  1
  O  O207  1  0.51436043  0.38552511  0.25473414  1
  O  O208  1  0.50607061  0.36636446  0.75826457  1
  O  O209  1  0.50869731  0.87392353  0.25372693  1
  O  O210  1  0.49759674  0.86176251  0.74332820  1
  O  O211  1  0.49173865  0.11229977  0.24252730  1
  O  O212  1  0.49599352  0.13630035  0.75852540  1
  O  O213  1  0.48884435  0.62057866  0.24484107  1
  O  O214  1  0.49508301  0.62935990  0.74353763  1
  O  O215  1  0.98883672  0.12402625  0.24786696  1
  O  O216  1  1.00236680  0.13155343  0.74187183  1
  O  O217  1  0.99042582  0.63017198  0.24383082  1
  O  O218  1  0.98368938  0.61997737  0.73971235  1
  O  O219  1  0.37931185  0.25742292  0.01606043  1
  O  O220  1  0.37133427  0.25674745  0.50252443  1
  O  O221  1  0.37044472  0.75740041  0.00855211  1
  O  O222  1  0.36712668  0.75843971  0.49317999  1
  O  O223  1  0.87875579  0.25009581  0.01277455  1
  O  O224  1  0.87148116  0.25929370  0.50527190  1
  O  O225  1  0.87578995  0.76163799  -0.00325722  1
  O  O226  1  0.86090566  0.75302814  0.51039850  1
  O  O227  1  0.13089497  0.24381125  0.49390166  1
  O  O228  1  0.11893362  0.24142832  1.00177418  1
  O  O229  1  0.13412459  0.74573647  0.50208859  1
  O  O230  1  0.13089373  0.74561380  0.99459181  1
  O  O231  1  0.63933963  0.26247124  0.47785602  1
  O  O232  1  0.62472404  0.24756679  0.98829612  1
  O  O233  1  0.63422562  0.74445284  0.49263754  1
  O  O234  1  0.62244055  0.75992043  0.98197294  1
  O  O235  1  0.49343310  0.22911140  0.12556088  1
  O  O236  1  0.48518803  0.26106530  0.63804217  1
  O  O237  1  0.49253159  0.74159144  0.12103006  1
  O  O238  1  0.50352003  0.73664847  0.63359508  1
  O  O239  1  0.99241760  0.24152301  0.13062469  1
  O  O240  1  1.00058217  0.24442839  0.63206794  1
  O  O241  1  1.00324770  0.73824291  0.13113544  1
  O  O242  1  0.98256690  0.74372857  0.62476084  1
  O  O243  1  0.00877520  0.25879207  0.37356790  1
  O  O244  1  0.00348664  0.25148774  0.86365409  1
  O  O245  1  -0.00287511  0.75129981  0.36154911  1
  O  O246  1  0.00610024  0.76356719  0.87751536  1
  O  O247  1  0.51036202  0.26546429  0.37399116  1
  O  O248  1  0.50880352  0.25591752  0.87080948  1
  O  O249  1  0.51037792  0.75709542  0.37832635  1
  O  O250  1  0.50738935  0.74701193  0.85914914  1
  O  O251  1  0.24482670  0.12950972  0.48650073  1
  O  O252  1  0.23731866  0.11968188  0.99658648  1
  O  O253  1  0.25308094  0.63658142  0.50250642  1
  O  O254  1  0.24661679  0.62961706  0.99065570  1
  O  O255  1  0.75448191  0.13284848  0.49018958  1
  O  O256  1  0.74632535  0.12524442  1.00761975  1
  O  O257  1  0.74343539  0.62512567  0.49372668  1
  O  O258  1  0.75328500  0.63136161  0.99572976  1
  O  O259  1  0.23765820  0.36291524  -0.01608225  1
  O  O260  1  0.25715560  0.37122103  0.49961770  1
  O  O261  1  0.25552507  0.87183463  0.01103650  1
  O  O262  1  0.25348882  0.86286924  0.50766575  1
  O  O263  1  0.75456035  0.36981444  0.01377303  1
  O  O264  1  0.75715597  0.36999805  0.50424086  1
  O  O265  1  0.75865546  0.87454237  0.00681466  1
  O  O266  1  0.74520050  0.86259343  0.49677588  1
  O  O267  1  0.12767263  0.49618299  0.24362345  1
  O  O268  1  0.13445851  0.49634844  0.74072746  1
  O  O269  1  0.11574031  0.99158300  0.23821273  1
  O  O270  1  0.13941385  1.00480443  0.74203291  1
  O  O271  1  0.63756921  0.49384910  0.24105940  1
  O  O272  1  0.62525428  0.48480276  0.74816440  1
  O  O273  1  0.63801897  0.98948942  0.26402662  1
  O  O274  1  0.61344816  0.98217250  0.74955323  1
  O  O275  1  0.37161139  0.00352021  0.25797938  1
  O  O276  1  0.36403868  -0.00186071  0.75848295  1
  O  O277  1  0.36495405  0.50801923  0.24013163  1
  O  O278  1  0.36436185  0.50514690  0.74474112  1
  O  O279  1  0.86938632  0.00416264  0.26192778  1
  O  O280  1  0.87399485  0.01990277  0.74614042  1
  O  O281  1  0.86219418  0.50801937  0.24696508  1
  O  O282  1  0.87343507  0.50465478  0.75866905  1
  O  O283  1  0.11893872  0.37020175  0.36824224  1
  O  O284  1  0.12733225  0.37029118  0.87172879  1
  O  O285  1  0.12859936  0.87599331  0.35953309  1
  O  O286  1  0.11135417  0.86715887  0.88143185  1
  O  O287  1  0.62032832  0.37218347  0.36478539  1
  O  O288  1  0.61590563  0.36780149  0.86988051  1
  O  O289  1  0.61724732  0.86631659  0.36622048  1
  O  O290  1  0.62293045  0.85980318  0.85727003  1
  O  O291  1  0.38137703  0.12920223  0.13332946  1
  O  O292  1  0.35225719  0.14823331  0.62209643  1
  O  O293  1  0.38381759  0.63405943  0.12737050  1
  O  O294  1  0.38334133  0.62222783  0.63823228  1
  O  O295  1  0.88174506  0.12759545  0.13396766  1
  O  O296  1  0.89023192  0.13366596  0.63395838  1
  O  O297  1  0.88340068  0.61809869  0.13484033  1
  O  O298  1  0.87807137  0.63109566  0.63044175  1
  O  O299  1  0.26743473  0.24075492  0.12735266  1
  O  O300  1  0.25120594  0.26168076  0.61628352  1
  O  O301  1  0.25621865  0.75625561  0.11779043  1
  O  O302  1  0.24556562  0.75932018  0.62016049  1
  O  O303  1  0.75888206  0.25699995  0.12686441  1
  O  O304  1  0.76148742  0.25971072  0.61910867  1
  O  O305  1  0.74512198  0.76529510  0.12570023  1
  O  O306  1  0.75826183  0.74509291  0.61174913  1
  O  O307  1  0.24364255  0.24319233  0.37758264  1
  O  O308  1  0.24835237  0.24330094  0.86578039  1
  O  O309  1  0.24382100  0.74859485  0.38587548  1
  O  O310  1  0.24243378  0.74302084  0.87886956  1
  O  O311  1  0.74993379  0.24338125  0.37720232  1
  O  O312  1  0.73399403  0.26116339  0.87956842  1
  O  O313  1  0.74476307  0.74123944  0.38753217  1
  O  O314  1  0.73826285  0.75225813  0.87412528  1
  O  O315  1  0.01198320  0.11608124  0.00403642  1
  O  O316  1  0.00656013  0.12621896  0.51304778  1
  O  O317  1  -0.00023566  0.61822997  0.00581434  1
  O  O318  1  -0.00071745  0.61962035  0.51734455  1
  O  O319  1  0.50821801  0.11471969  0.01306190  1
  O  O320  1  0.51249622  0.11274040  0.45240235  1
  O  O321  1  0.49512228  0.62533614  0.00617499  1
  O  O322  1  0.50306600  0.61929163  0.50612690  1
  O  O323  1  0.49392346  0.38292521  0.49013912  1
  O  O324  1  0.50330916  0.37325471  0.98874972  1
  O  O325  1  0.48892371  0.87117558  0.49030768  1
  O  O326  1  0.48981919  0.88943164  1.01150446  1
  O  O327  1  0.99247486  0.37669228  0.49251172  1
  O  O328  1  0.99951316  0.38917014  0.99984946  1
  O  O329  1  1.00537956  0.87319985  0.50081078  1
  O  O330  1  0.99398843  0.88095687  0.99759571  1
  O  O331  1  0.50086136  0.49042605  0.38009063  1
  O  O332  1  0.50424810  0.48565601  0.87359421  1
  O  O333  1  0.48545251  0.97818992  0.36911401  1
  O  O334  1  0.49431229  1.00764603  0.89544306  1
  O  O335  1  1.00484577  0.48724614  0.37786364  1
  O  O336  1  0.99507924  0.50058843  0.88323859  1
  O  O337  1  0.98148822  1.00309050  0.37925604  1
  O  O338  1  1.00446823  0.98866875  0.88342033  1
  O  O339  1  0.00595974  0.00456865  0.11781258  1
  O  O340  1  0.01111637  0.00848243  0.62502963  1
  O  O341  1  0.00599489  0.50969272  0.11960037  1
  O  O342  1  0.00846375  0.50468871  0.62547910  1
  O  O343  1  0.49394679  0.01355690  0.11483082  1
  O  O344  1  0.44631615  0.02290985  0.61316990  1
  O  O345  1  0.51472658  0.51370168  0.12906454  1
  O  O346  1  0.50032727  0.50719637  0.61655761  1
  O  O347  1  0.23690159  0.38440021  0.25270178  1
  O  O348  1  0.24811563  0.38450487  0.74492050  1
  O  O349  1  0.23988939  0.86732779  0.23672159  1
  O  O350  1  0.25482122  0.87933588  0.74248200  1
  O  O351  1  0.74610201  0.38222288  0.24100830  1
  O  O352  1  0.74265139  0.37273598  0.74198620  1
  O  O353  1  0.74396751  0.87961156  0.24483805  1
  O  O354  1  0.73598106  0.87736440  0.73807094  1
  O  O355  1  0.25394972  0.12291358  0.26227152  1
  O  O356  1  0.25601491  0.11492169  0.75874905  1
  O  O357  1  0.25884360  0.61938262  0.24706043  1
  O  O358  1  0.25857523  0.62127846  0.75275297  1
  O  O359  1  0.76186813  0.11539428  0.25280666  1
  O  O360  1  0.77483252  0.14769873  0.76331127  1
  O  O361  1  0.75484243  0.61925256  0.25375850  1
  O  O362  1  0.76096841  0.61960985  0.74880725  1
  O  O363  1  0.36446521  0.11104203  0.36850683  1
  O  O364  1  0.36051632  0.12643632  0.88617201  1
  O  O365  1  0.37267540  0.62173728  0.36245835  1
  O  O366  1  0.36570810  0.63060524  0.86310397  1
  O  O367  1  0.86808154  0.12148161  0.36904577  1
  O  O368  1  0.89248276  0.12082857  0.86290587  1
  O  O369  1  0.86080151  0.62303344  0.36490522  1
  O  O370  1  0.87418884  0.61644901  0.86540045  1
  O  O371  1  0.11821289  0.38674626  0.13493420  1
  O  O372  1  0.13077713  0.38386572  0.62810955  1
  O  O373  1  0.13184920  0.88133933  0.13018178  1
  O  O374  1  0.13515283  0.88675790  0.62479530  1
  O  O375  1  0.63082181  0.37825468  0.12873328  1
  O  O376  1  0.63301813  0.36752452  0.63332243  1
  O  O377  1  0.62955010  0.87285603  0.13803488  1
  O  O378  1  0.61722756  0.87051722  0.63648050  1
  O  O379  1  0.12418447  0.25864905  0.25393456  1
  O  O380  1  0.12110762  0.25805672  0.74164274  1
  O  O381  1  0.11378595  0.75750225  0.24958228  1
  O  O382  1  0.12638925  0.74704723  0.76168045  1
  O  O383  1  0.63440782  0.26393951  0.25968530  1
  O  O384  1  0.61876838  0.25795794  0.76201248  1
  O  O385  1  0.63348721  0.75733044  0.26377739  1
  O  O386  1  0.61440719  0.75848646  0.75006172  1
  O  O387  1  0.37372274  0.22812706  0.25365941  1
  O  O388  1  0.38322452  0.24757233  0.74122388  1
  O  O389  1  0.36963623  0.74130163  0.23561116  1
  O  O390  1  0.38881928  0.74215164  0.75228153  1
  O  O391  1  0.87566043  0.23967940  0.24119802  1
  O  O392  1  0.89086515  0.24540734  0.74594430  1
  O  O393  1  0.87850334  0.73709706  0.25068030  1
  O  O394  1  0.86452574  0.74505626  0.73621654  1
  O  O395  1  0.38539978  0.49620242  0.49582735  1
  O  O396  1  0.37063873  0.47210206  1.04305794  1
  O  O397  1  0.36712848  0.97912713  0.47942892  1
  O  O398  1  0.38051706  0.99226127  1.00107173  1
  O  O399  1  0.87439654  0.48637722  0.50353950  1
  O  O400  1  0.88229340  0.49810020  0.99104478  1
  O  O401  1  0.87467716  1.00229273  0.48838929  1
  O  O402  1  0.88828472  0.99425889  0.99872054  1
  O  O403  1  0.11652764  0.00378452  0.00986891  1
  O  O404  1  0.12478369  0.00651918  0.50926439  1
  O  O405  1  0.11605252  0.50982349  0.00742148  1
  O  O406  1  0.12631180  0.50188039  0.51333868  1
  O  O407  1  0.61241803  -0.00738398  -0.00178682  1
  O  O408  1  0.61251384  -0.00698740  0.50083893  1
  O  O409  1  0.63290399  0.49572592  0.01135719  1
  O  O410  1  0.61255650  0.50327608  0.50114463  1
  O  O411  1  0.38215400  0.34406999  0.15517885  1
  O  O412  1  0.36762722  0.36944139  0.61794335  1
  O  O413  1  0.36853427  0.86899326  0.12263881  1
  O  O414  1  0.36394638  0.87186131  0.61302238  1
  O  O415  1  0.86958037  0.36560955  0.12753095  1
  O  O416  1  0.87061187  0.37062548  0.61937153  1
  O  O417  1  0.86729238  0.87785967  0.11463283  1
  O  O418  1  0.87660320  0.86457853  0.63092123  1
  O  O419  1  0.12822729  0.12766057  0.37755995  1
  O  O420  1  0.13777869  0.12409959  0.88448288  1
  O  O421  1  0.12803722  0.62941388  0.37879489  1
  O  O422  1  0.12883281  0.63279539  0.87938278  1
  O  O423  1  0.64508605  0.13711363  0.35771810  1
  O  O424  1  0.62258441  0.13924047  0.87529942  1
  O  O425  1  0.63021765  0.63092863  0.37835901  1
  O  O426  1  0.62793918  0.64559359  0.86072358  1
