# generated using pymatgen
data_V85Zn86O256
_symmetry_space_group_name_H-M   'P 1'
_cell_length_a   16.96084794
_cell_length_b   16.95669372
_cell_length_c   16.97069791
_cell_angle_alpha   90.03282551
_cell_angle_beta   89.99835866
_cell_angle_gamma   89.93871183
_symmetry_Int_Tables_number   1
_chemical_formula_structural   V85Zn86O256
_chemical_formula_sum   'V85 Zn86 O256'
_cell_volume   4880.76748919
_cell_formula_units_Z   1
loop_
 _symmetry_equiv_pos_site_id
 _symmetry_equiv_pos_as_xyz
  1  'x, y, z'
loop_
 _atom_site_type_symbol
 _atom_site_label
 _atom_site_symmetry_multiplicity
 _atom_site_fract_x
 _atom_site_fract_y
 _atom_site_fract_z
 _atom_site_occupancy
  V  V0  1  0.49156339  0.12323113  0.12861412  1
  V  V1  1  0.50171427  -0.00431163  -0.00356437  1
  V  V2  1  0.00372268  -0.00658765  0.00341376  1
  V  V3  1  0.14859578  0.87722469  0.25326567  1
  V  V4  1  0.62131904  0.13175764  0.49575899  1
  V  V5  1  0.37288409  0.75541582  0.62006376  1
  V  V6  1  0.19355963  0.83257371  0.67877230  1
  V  V7  1  0.01210345  0.12806145  0.62328505  1
  V  V8  1  0.01193219  0.00643550  0.50193840  1
  V  V9  1  -0.00302913  0.75708729  0.25700414  1
  V  V10  1  0.62700921  -0.00137221  0.12350427  1
  V  V11  1  0.38256094  0.36957014  -0.00177807  1
  V  V12  1  0.37568890  0.00505044  0.36867642  1
  V  V13  1  0.49603717  0.49757074  0.49209012  1
  V  V14  1  0.62737641  0.74823191  0.87381733  1
  V  V15  1  0.01091595  0.50430761  0.00676677  1
  V  V16  1  0.75428749  0.50390321  0.74949856  1
  V  V17  1  0.37019311  0.37481418  0.48823942  1
  V  V18  1  0.00111204  0.37480124  0.87855676  1
  V  V19  1  0.24538998  0.63728159  0.88050981  1
  V  V20  1  0.62461051  0.49895904  0.62454411  1
  V  V21  1  0.12378408  0.23263118  0.87530337  1
  V  V22  1  0.49931239  0.25487065  0.75664016  1
  V  V23  1  0.87354163  0.62452117  0.25329503  1
  V  V24  1  0.74747563  0.75068943  0.49829559  1
  V  V25  1  0.00628644  0.62366506  0.12930803  1
  V  V26  1  0.00376682  0.25453339  0.25662222  1
  V  V27  1  0.13401307  0.62632457  0.50081930  1
  V  V28  1  0.37505074  0.62522786  0.75080473  1
  V  V29  1  0.75031746  -0.00227109  0.24683403  1
  V  V30  1  0.35981826  0.87225112  0.00298450  1
  V  V31  1  0.62199053  0.37719144  0.75685562  1
  V  V32  1  0.62276953  0.74783431  0.37338303  1
  V  V33  1  0.86508124  0.87598061  0.00577518  1
  V  V34  1  0.36320806  0.87480383  0.50048856  1
  V  V35  1  0.75100896  0.62777691  0.87629985  1
  V  V36  1  0.74808552  0.00723070  0.75691996  1
  V  V37  1  0.24620575  0.24627877  -0.00191753  1
  V  V38  1  0.24751186  0.38810146  0.12435264  1
  V  V39  1  0.12068184  0.49617361  0.62443508  1
  V  V40  1  0.49973970  0.12648249  0.62529201  1
  V  V41  1  0.75323812  0.24983065  0.50237773  1
  V  V42  1  0.74797944  0.87964955  0.62713849  1
  V  V43  1  0.87689906  0.50397148  0.87461144  1
  V  V44  1  0.50213359  0.74050741  0.23288610  1
  V  V45  1  0.25103003  0.49674842  0.75447807  1
  V  V46  1  0.87051783  0.12952417  0.74410574  1
  V  V47  1  0.12935691  0.25310130  0.38182691  1
  V  V48  1  0.24198554  0.12014744  0.37540381  1
  V  V49  1  0.87610886  0.12631915  0.25093438  1
  V  V50  1  0.87309093  0.87814027  0.49875129  1
  V  V51  1  0.75560007  0.37076269  0.62519352  1
  V  V52  1  0.87536373  0.01042407  0.88044464  1
  V  V53  1  0.12442075  0.37200941  0.75464537  1
  V  V54  1  0.00785986  0.12529294  0.12631432  1
  V  V55  1  0.87344511  0.00300229  0.37803454  1
  V  V56  1  0.48812211  0.24508072  0.25402823  1
  V  V57  1  0.50174624  0.75279876  0.74872250  1
  V  V58  1  0.62930929  0.12450206  -0.00408693  1
  V  V59  1  0.75315777  0.24834921  -0.00274286  1
  V  V60  1  -0.00582721  0.62418582  0.62621047  1
  V  V61  1  0.87059373  0.38047005  0.00634306  1
  V  V62  1  0.62598891  0.25058300  0.87719125  1
  V  V63  1  0.35862214  0.74384567  0.11789596  1
  V  V64  1  0.63044536  0.36052051  0.24198074  1
  V  V65  1  0.74361496  0.13213179  0.37295656  1
  V  V66  1  0.37574267  0.12540278  0.75533702  1
  V  V67  1  0.50184869  -0.00022695  0.49967040  1
  V  V68  1  0.51055884  0.36818841  0.37544711  1
  V  V69  1  0.25279471  0.37131138  0.62571927  1
  V  V70  1  0.49724238  0.87248917  0.37505978  1
  V  V71  1  0.36539523  -0.00010006  0.87339096  1
  V  V72  1  0.12633680  0.38574014  0.24836589  1
  V  V73  1  0.49827041  0.62384864  0.62319522  1
  V  V74  1  0.87417572  0.74568885  0.62879719  1
  V  V75  1  0.38084655  0.49416747  0.87538127  1
  V  V76  1  0.62899338  0.87304968  0.24376282  1
  V  V77  1  0.13154237  0.75045439  0.38268697  1
  V  V78  1  0.62316923  0.62341426  0.49793929  1
  V  V79  1  0.61818102  0.62230914  0.00766830  1
  V  V80  1  -0.00766488  0.24832687  0.74733218  1
  V  V81  1  0.87843789  0.48740393  0.37513164  1
  V  V82  1  0.74680677  0.49574230  0.24353573  1
  V  V83  1  0.24502610  0.00670627  0.73288093  1
  V  V84  1  0.87241052  0.25409513  0.12658853  1
  Zn  Zn85  1  0.04842582  0.82933242  0.81558637  1
  Zn  Zn86  1  0.50162783  0.87483790  0.87455315  1
  Zn  Zn87  1  0.87122038  0.75967310  0.13192872  1
  Zn  Zn88  1  0.24592747  0.24276341  0.50598670  1
  Zn  Zn89  1  0.25606858  0.60404276  0.37006967  1
  Zn  Zn90  1  0.62529763  0.00189947  0.62761099  1
  Zn  Zn91  1  0.37426359  0.25043350  0.62506720  1
  Zn  Zn92  1  0.00069396  0.87866334  0.37683200  1
  Zn  Zn93  1  0.13834581  0.64396520  0.00911925  1
  Zn  Zn94  1  0.88355408  0.36634630  0.50145278  1
  Zn  Zn95  1  0.74915001  0.62073989  0.37560910  1
  Zn  Zn96  1  0.00171228  0.49318581  0.49303276  1
  Zn  Zn97  1  0.92338834  0.67528317  0.79231497  1
  Zn  Zn98  1  0.62917127  0.87659646  0.75230495  1
  Zn  Zn99  1  0.30096513  0.04768514  0.21433059  1
  Zn  Zn100  1  0.12889397  0.11876390  0.00047289  1
  Zn  Zn101  1  0.37072325  0.60521390  0.24726122  1
  Zn  Zn102  1  0.62459834  0.49636078  0.12501870  1
  Zn  Zn103  1  0.14028279  -0.00590199  0.12932264  1
  Zn  Zn104  1  0.75110621  0.74936431  0.00660646  1
  Zn  Zn105  1  0.50192496  0.49625226  -0.00244693  1
  Zn  Zn106  1  0.36663613  0.24580573  0.13003941  1
  Zn  Zn107  1  0.18930786  0.19396209  0.19073034  1
  Zn  Zn108  1  0.18664386  0.18556309  0.69244043  1
  Zn  Zn109  1  0.18275683  0.69081915  0.19093072  1
  Zn  Zn110  1  0.18473819  0.67271149  0.69233979  1
  Zn  Zn111  1  0.68664267  0.18557642  0.18139488  1
  Zn  Zn112  1  0.68530523  0.18888723  0.68617395  1
  Zn  Zn113  1  0.69396784  0.68706602  0.18534637  1
  Zn  Zn114  1  0.69020750  0.68727818  0.68664030  1
  Zn  Zn115  1  0.31295633  0.43331045  0.30901751  1
  Zn  Zn116  1  0.31076365  0.30922257  0.81636177  1
  Zn  Zn117  1  0.31050070  0.75242618  0.30764355  1
  Zn  Zn118  1  0.31737818  0.81624188  0.81358613  1
  Zn  Zn119  1  0.80890645  0.30951092  0.31295461  1
  Zn  Zn120  1  0.81156662  0.31567010  0.81699944  1
  Zn  Zn121  1  0.81052382  0.81237740  0.31476874  1
  Zn  Zn122  1  0.85919100  0.84103623  0.79361917  1
  Zn  Zn123  1  0.18089256  0.43261051  0.44043187  1
  Zn  Zn124  1  0.19011012  0.43762667  0.93849306  1
  Zn  Zn125  1  0.18844138  0.93710554  0.43231560  1
  Zn  Zn126  1  0.18112972  0.92943550  0.93451295  1
  Zn  Zn127  1  0.68962006  0.43635500  0.43371471  1
  Zn  Zn128  1  0.69117138  0.43680696  0.93788410  1
  Zn  Zn129  1  0.68445026  0.94130132  0.43504119  1
  Zn  Zn130  1  0.69104323  0.93677153  0.93270609  1
  Zn  Zn131  1  0.31074455  0.06263579  0.04844213  1
  Zn  Zn132  1  0.31681996  0.06540542  0.55528739  1
  Zn  Zn133  1  0.31770090  0.56238071  0.05916700  1
  Zn  Zn134  1  0.31148670  0.55848996  0.56233646  1
  Zn  Zn135  1  0.81370581  0.06716207  0.06628829  1
  Zn  Zn136  1  0.81332935  0.06591348  0.56565694  1
  Zn  Zn137  1  0.81431012  0.56793999  0.06570156  1
  Zn  Zn138  1  0.81061697  0.56078631  0.55856431  1
  Zn  Zn139  1  0.44457131  0.43622412  0.17792173  1
  Zn  Zn140  1  0.43760851  0.43684670  0.68555404  1
  Zn  Zn141  1  0.44112780  0.92677774  0.18394666  1
  Zn  Zn142  1  0.43725766  0.93813788  0.68625984  1
  Zn  Zn143  1  0.94059760  0.43804586  0.18883895  1
  Zn  Zn144  1  0.93709014  0.43596840  0.68795823  1
  Zn  Zn145  1  0.93859027  0.94070039  0.18603023  1
  Zn  Zn146  1  0.94303422  0.94919543  0.68411269  1
  Zn  Zn147  1  0.06439402  0.05994924  0.31261350  1
  Zn  Zn148  1  0.07823272  0.02139885  0.82666016  1
  Zn  Zn149  1  0.06117465  0.56597584  0.31649749  1
  Zn  Zn150  1  0.06504312  0.56291875  0.81474612  1
  Zn  Zn151  1  0.56145032  0.06210771  0.31191420  1
  Zn  Zn152  1  0.56164420  0.06299946  0.81486410  1
  Zn  Zn153  1  0.56013065  0.55840402  0.30901273  1
  Zn  Zn154  1  0.56198499  0.56378894  0.81430024  1
  Zn  Zn155  1  0.43069045  0.19092737  0.43460524  1
  Zn  Zn156  1  0.43780617  0.18608471  0.93783321  1
  Zn  Zn157  1  0.43658455  0.68745996  0.43620930  1
  Zn  Zn158  1  0.43647947  0.68766047  0.93616431  1
  Zn  Zn159  1  0.93852340  0.18853663  0.43777554  1
  Zn  Zn160  1  0.93982885  0.18276225  0.93673376  1
  Zn  Zn161  1  0.94004304  0.68235289  0.44012092  1
  Zn  Zn162  1  0.98663007  0.72073898  0.96072176  1
  Zn  Zn163  1  0.06251979  0.31328860  0.06491189  1
  Zn  Zn164  1  0.05807280  0.31292221  0.56476184  1
  Zn  Zn165  1  0.06450837  0.81575553  0.07667865  1
  Zn  Zn166  1  0.05340874  0.81095700  0.56175448  1
  Zn  Zn167  1  0.56068675  0.30992661  0.06753628  1
  Zn  Zn168  1  0.56472854  0.31151833  0.56616219  1
  Zn  Zn169  1  0.56976008  0.81402038  0.05875644  1
  Zn  Zn170  1  0.56204060  0.81358295  0.56259773  1
  O  O171  1  0.11504698  0.12668836  0.12870956  1
  O  O172  1  0.11077718  0.13342909  0.62269301  1
  O  O173  1  0.11156840  0.62999070  0.12620607  1
  O  O174  1  0.11842515  0.61508513  0.62013521  1
  O  O175  1  0.61599056  0.11914188  0.11323836  1
  O  O176  1  0.61284505  0.12484729  0.61902985  1
  O  O177  1  0.62969620  0.62306915  0.10928984  1
  O  O178  1  0.61779266  0.61985422  0.61842690  1
  O  O179  1  0.38774354  0.37414647  0.38641804  1
  O  O180  1  0.36727104  0.38249778  0.88488325  1
  O  O181  1  0.38965218  0.87782877  0.38328403  1
  O  O182  1  0.38060451  0.87942379  0.88612635  1
  O  O183  1  0.87104109  0.38458951  0.37451614  1
  O  O184  1  0.88067653  0.38490312  0.88448224  1
  O  O185  1  0.87149001  0.88146075  0.38761449  1
  O  O186  1  0.87193376  0.89924552  0.89198392  1
  O  O187  1  0.25861419  0.01078142  0.37468154  1
  O  O188  1  0.26350724  -0.00300673  0.86327553  1
  O  O189  1  0.25373633  0.49277450  0.38275830  1
  O  O190  1  0.26017293  0.50434029  0.86952510  1
  O  O191  1  0.75272010  0.01074638  0.36608331  1
  O  O192  1  0.75485555  0.00326191  0.86346193  1
  O  O193  1  0.75853780  0.49970792  0.36378643  1
  O  O194  1  0.75631247  0.50603297  0.86832687  1
  O  O195  1  0.24952125  0.48695145  0.11566657  1
  O  O196  1  0.23939732  0.49302624  0.63261476  1
  O  O197  1  0.25321908  1.00696207  0.12520549  1
  O  O198  1  0.26324722  1.00285209  0.63497319  1
  O  O199  1  0.74897050  0.50185610  0.13942191  1
  O  O200  1  0.74362607  0.49590348  0.63207444  1
  O  O201  1  0.74394554  1.00953250  0.14038160  1
  O  O202  1  0.74860979  0.99457648  0.63333279  1
  O  O203  1  0.01375697  0.36496535  0.24263015  1
  O  O204  1  0.00329408  0.36657713  0.75568267  1
  O  O205  1  -0.01110558  0.86393680  0.25597002  1
  O  O206  1  -0.03807414  0.86320090  0.74608988  1
  O  O207  1  0.51320877  0.36318376  0.25649502  1
  O  O208  1  0.50934759  0.36674512  0.74434193  1
  O  O209  1  0.51172651  0.86561008  0.25588532  1
  O  O210  1  0.50375481  0.86316522  0.74933659  1
  O  O211  1  0.50944919  0.13287692  0.23977011  1
  O  O212  1  0.49450232  0.13083984  0.74318316  1
  O  O213  1  0.49911036  0.63976754  0.25177924  1
  O  O214  1  0.49520898  0.63483997  0.74482494  1
  O  O215  1  0.99526149  0.13125704  0.24514230  1
  O  O216  1  0.99164701  0.13245338  0.73800715  1
  O  O217  1  0.99392810  0.63362153  0.24871232  1
  O  O218  1  1.00044067  0.61346488  0.73283029  1
  O  O219  1  0.36440305  0.25418755  -0.00290740  1
  O  O220  1  0.37268502  0.26160296  0.50549370  1
  O  O221  1  0.38216347  0.76098127  0.00844638  1
  O  O222  1  0.38134593  0.75767240  0.51381167  1
  O  O223  1  0.87092023  0.25560590  0.00586294  1
  O  O224  1  0.85811868  0.24953352  0.49424848  1
  O  O225  1  0.88217852  0.77166099  -0.00109065  1
  O  O226  1  0.86728993  0.75717288  0.50437740  1
  O  O227  1  0.12192422  0.25554801  0.48441148  1
  O  O228  1  0.12754222  0.24795550  0.99163533  1
  O  O229  1  0.11158482  0.73758139  0.49425023  1
  O  O230  1  0.09415560  0.74708608  0.99600964  1
  O  O231  1  0.63225753  0.23793414  0.50391056  1
  O  O232  1  0.63286861  0.24496155  0.99923805  1
  O  O233  1  0.62686090  0.74464145  0.49309709  1
  O  O234  1  0.62753124  0.73922831  0.99092199  1
  O  O235  1  0.49625311  0.23874124  0.13214051  1
  O  O236  1  0.49998936  0.24388289  0.63780296  1
  O  O237  1  0.50727383  0.75055168  0.13266010  1
  O  O238  1  0.49408320  0.74374849  0.63023592  1
  O  O239  1  0.99253568  0.24418484  0.13301178  1
  O  O240  1  0.99958057  0.24187773  0.63581233  1
  O  O241  1  0.99001348  0.74366194  0.14123958  1
  O  O242  1  0.98518547  0.73861563  0.62083693  1
  O  O243  1  0.01105021  0.24086067  0.36376814  1
  O  O244  1  0.00592055  0.25519007  0.87004825  1
  O  O245  1  0.00465509  0.75085246  0.37097134  1
  O  O246  1  -0.01330939  0.74367023  0.85260375  1
  O  O247  1  0.49927088  0.25598726  0.36785743  1
  O  O248  1  0.50685119  0.24559946  0.86296917  1
  O  O249  1  0.50771361  0.75781848  0.36680821  1
  O  O250  1  0.50792690  0.74950232  0.86504537  1
  O  O251  1  0.25415412  0.12789601  0.48352740  1
  O  O252  1  0.24660276  0.14068970  0.99650682  1
  O  O253  1  0.23670792  0.62216902  0.50366629  1
  O  O254  1  0.25114231  0.62361468  0.98538823  1
  O  O255  1  0.74192237  0.12974272  0.49482036  1
  O  O256  1  0.74103890  0.13439747  1.00480905  1
  O  O257  1  0.74037259  0.63158564  0.49762008  1
  O  O258  1  0.74296590  0.62367726  0.99041943  1
  O  O259  1  0.25171358  0.36699065  0.00863800  1
  O  O260  1  0.25580536  0.37062207  0.50962116  1
  O  O261  1  0.26137514  0.87543835  -0.00543087  1
  O  O262  1  0.26452725  0.88261846  0.49828105  1
  O  O263  1  0.76370619  0.36912894  -0.00074138  1
  O  O264  1  0.74633236  0.36588643  0.50791845  1
  O  O265  1  0.76133823  0.87364440  -0.00165661  1
  O  O266  1  0.75242085  0.87321164  0.50459589  1
  O  O267  1  0.11834879  0.48424634  0.25784368  1
  O  O268  1  0.13068455  0.49155067  0.74523193  1
  O  O269  1  0.12805644  0.98226892  0.25593775  1
  O  O270  1  0.14668271  1.02241869  0.73588755  1
  O  O271  1  0.63108690  0.48756167  0.24960415  1
  O  O272  1  0.62905569  0.49306934  0.74699749  1
  O  O273  1  0.63100754  0.99155629  0.24637745  1
  O  O274  1  0.63293117  0.99873202  0.75002482  1
  O  O275  1  0.38610793  -0.00915129  0.26358943  1
  O  O276  1  0.37468362  0.00741285  0.75563796  1
  O  O277  1  0.38470605  0.49414956  0.24972336  1
  O  O278  1  0.37066464  0.50332877  0.75491049  1
  O  O279  1  0.86720692  0.00527705  0.25614842  1
  O  O280  1  0.86792882  0.01214557  0.75907858  1
  O  O281  1  0.86876672  0.50176861  0.25852564  1
  O  O282  1  0.86503911  0.49245368  0.76051140  1
  O  O283  1  0.12981811  0.36114893  0.36167393  1
  O  O284  1  0.11675937  0.37194448  0.87070025  1
  O  O285  1  0.11910909  0.86925481  0.36824887  1
  O  O286  1  0.11315316  0.91166385  0.85086329  1
  O  O287  1  0.61535121  0.37498610  0.36713080  1
  O  O288  1  0.63003666  0.37033886  0.86343003  1
  O  O289  1  0.61623829  0.87038034  0.36759039  1
  O  O290  1  0.62624383  0.85994180  0.87333995  1
  O  O291  1  0.38630006  0.12209639  0.12250445  1
  O  O292  1  0.38761342  0.12777109  0.62995145  1
  O  O293  1  0.37400864  0.64045776  0.12302396  1
  O  O294  1  0.37831669  0.63193126  0.63041399  1
  O  O295  1  0.88531469  0.13316858  0.13342396  1
  O  O296  1  0.87909221  0.12556956  0.63933907  1
  O  O297  1  0.88316346  0.62176117  0.14312963  1
  O  O298  1  0.88114654  0.63166972  0.61604295  1
  O  O299  1  0.24904851  0.25712497  0.11467469  1
  O  O300  1  0.24979507  0.25761055  0.62576953  1
  O  O301  1  0.26074584  0.75072939  0.12090465  1
  O  O302  1  0.25440987  0.75872072  0.63398125  1
  O  O303  1  0.76495287  0.24425683  0.11656340  1
  O  O304  1  0.74432168  0.25928106  0.61659529  1
  O  O305  1  0.76041970  0.74537261  0.11967077  1
  O  O306  1  0.75049172  0.75755780  0.61482327  1
  O  O307  1  0.23408932  0.24037504  0.37971509  1
  O  O308  1  0.23334568  0.25681654  0.88264706  1
  O  O309  1  0.23086698  0.75883180  0.39017410  1
  O  O310  1  0.25711379  0.73555981  0.86727944  1
  O  O311  1  0.74785533  0.23790296  0.38106605  1
  O  O312  1  0.74455037  0.25450960  0.88963647  1
  O  O313  1  0.73912384  0.74821610  0.38103189  1
  O  O314  1  0.74408307  0.73475280  0.87678974  1
  O  O315  1  0.00110520  0.11940200  0.01324254  1
  O  O316  1  -0.00939790  0.12172059  0.51532156  1
  O  O317  1  -0.01074826  0.61595140  0.01656565  1
  O  O318  1  0.00690010  0.61442689  0.51112802  1
  O  O319  1  0.50439266  0.11352083  0.00643849  1
  O  O320  1  0.50424299  0.12398603  0.50577423  1
  O  O321  1  0.51620983  0.62395856  -0.00790696  1
  O  O322  1  0.50195234  0.61594859  0.50261065  1
  O  O323  1  0.49767301  0.37805415  0.49472619  1
  O  O324  1  0.48510144  0.36409554  0.99899287  1
  O  O325  1  0.50061903  0.88124015  0.49119878  1
  O  O326  1  0.50237270  0.88747455  0.99834620  1
  O  O327  1  0.99481556  0.38072512  0.50533517  1
  O  O328  1  0.99156714  0.38335766  0.99844683  1
  O  O329  1  0.98751978  0.88672290  0.50071358  1
  O  O330  1  0.99012629  0.89117106  1.00953786  1
  O  O331  1  0.50526421  0.49085050  0.38741763  1
  O  O332  1  0.48557869  0.50294585  0.87518225  1
  O  O333  1  0.49618121  0.99371456  0.38001508  1
  O  O334  1  0.49278711  0.99696443  0.88148143  1
  O  O335  1  0.98197612  0.50215479  0.37270285  1
  O  O336  1  0.99211056  0.49733901  0.88158265  1
  O  O337  1  0.98860219  1.00351460  0.38305959  1
  O  O338  1  0.98726027  1.01584766  0.89363266  1
  O  O339  1  0.00389312  0.01063558  0.12159026  1
  O  O340  1  -0.00204991  0.01703253  0.61660648  1
  O  O341  1  -0.00279682  0.50877312  0.11835585  1
  O  O342  1  0.01151591  0.50068123  0.62732593  1
  O  O343  1  0.50674197  0.00393730  0.11823796  1
  O  O344  1  0.50224804  0.00897532  0.61886470  1
  O  O345  1  0.51278602  0.48806340  0.10951558  1
  O  O346  1  0.50614996  0.50446945  0.61715911  1
  O  O347  1  0.23952297  0.37447580  0.23468062  1
  O  O348  1  0.24582376  0.37759021  0.74426403  1
  O  O349  1  0.24478946  0.86222295  0.26074496  1
  O  O350  1  0.25478486  0.88980678  0.74428227  1
  O  O351  1  0.73619943  0.37767067  0.25620228  1
  O  O352  1  0.74327456  0.38293942  0.74515673  1
  O  O353  1  0.73966684  0.88483716  0.25835031  1
  O  O354  1  0.75567396  0.88728117  0.74145185  1
  O  O355  1  0.25339295  0.13429272  0.26814600  1
  O  O356  1  0.26720897  0.11974514  0.74469962  1
  O  O357  1  0.25893706  0.64876730  0.25865815  1
  O  O358  1  0.25749109  0.61561902  0.75800422  1
  O  O359  1  0.75275413  0.12163031  0.25681284  1
  O  O360  1  0.75565987  0.11927035  0.74419608  1
  O  O361  1  0.75676364  0.61521610  0.25425220  1
  O  O362  1  0.74126607  0.61004021  0.75688306  1
  O  O363  1  0.36783538  0.11373995  0.37689814  1
  O  O364  1  0.38190024  0.11487322  0.86521941  1
  O  O365  1  0.36412917  0.65425030  0.36105955  1
  O  O366  1  0.36805496  0.61830004  0.86920435  1
  O  O367  1  0.86562446  0.12213882  0.36899532  1
  O  O368  1  0.87458566  0.11978525  0.86453132  1
  O  O369  1  0.87323295  0.61600325  0.36619490  1
  O  O370  1  0.86569951  0.61172131  0.87278219  1
  O  O371  1  0.13531648  0.37202839  0.13527505  1
  O  O372  1  0.13425322  0.37901483  0.63188631  1
  O  O373  1  0.12548343  0.87554768  0.14921141  1
  O  O374  1  0.13118196  0.87811523  0.61599367  1
  O  O375  1  0.62884245  0.37015671  0.13911689  1
  O  O376  1  0.63334314  0.38007645  0.63579829  1
  O  O377  1  0.62402859  0.88228010  0.13561030  1
  O  O378  1  0.63733580  0.87635898  0.62721619  1
  O  O379  1  0.11811216  0.25745260  0.25776136  1
  O  O380  1  0.11495824  0.25285585  0.75854301  1
  O  O381  1  0.11475468  0.76074044  0.26159383  1
  O  O382  1  0.13593528  0.77035267  0.73577935  1
  O  O383  1  0.62307752  0.25768372  0.24682746  1
  O  O384  1  0.61943815  0.25702786  0.75607922  1
  O  O385  1  0.61899963  0.75388390  0.25211592  1
  O  O386  1  0.61933599  0.74935840  0.75610025  1
  O  O387  1  0.38966634  0.25207714  0.24777851  1
  O  O388  1  0.38242265  0.24348433  0.75145756  1
  O  O389  1  0.39179201  0.76372279  0.22536856  1
  O  O390  1  0.38295849  0.74855402  0.74001258  1
  O  O391  1  0.88206190  0.24806777  0.24487115  1
  O  O392  1  0.88455921  0.24650770  0.75912995  1
  O  O393  1  0.87915442  0.74087605  0.25664784  1
  O  O394  1  0.84971554  0.74043710  0.73040129  1
  O  O395  1  0.38657364  0.48834063  0.50989131  1
  O  O396  1  0.37667077  0.48896033  0.99143344  1
  O  O397  1  0.38422304  0.99289536  0.48999249  1
  O  O398  1  0.38223669  0.98952861  0.99145892  1
  O  O399  1  0.86918956  0.49733249  0.48263355  1
  O  O400  1  0.87774927  0.49429194  0.99467272  1
  O  O401  1  0.87477641  0.99428093  0.49595840  1
  O  O402  1  0.87766883  1.00063477  0.99798266  1
  O  O403  1  0.11769905  0.00040369  0.00665328  1
  O  O404  1  0.11004450  -0.00085745  0.48962681  1
  O  O405  1  0.11182797  0.50652328  -0.00666258  1
  O  O406  1  0.12284066  0.50493660  0.51055897  1
  O  O407  1  0.62147503  0.00549118  0.00057782  1
  O  O408  1  0.61949204  0.01268142  0.50253709  1
  O  O409  1  0.62712881  0.51262239  -0.00544214  1
  O  O410  1  0.61886877  0.50300117  0.50502381  1
  O  O411  1  0.36129241  0.36936653  0.11500095  1
  O  O412  1  0.36247944  0.37486923  0.62152580  1
  O  O413  1  0.37991814  0.86721475  0.10732325  1
  O  O414  1  0.38319258  0.86705378  0.61401667  1
  O  O415  1  0.88075930  0.36583623  0.11834449  1
  O  O416  1  0.85874466  0.38110248  0.62361670  1
  O  O417  1  0.87340571  0.88299487  0.11008118  1
  O  O418  1  0.86189365  0.86881219  0.61236126  1
  O  O419  1  0.13436656  0.13257930  0.37121608  1
  O  O420  1  0.11709048  0.13094653  0.87555135  1
  O  O421  1  0.12697091  0.63149139  0.38457132  1
  O  O422  1  0.14295130  0.62295448  0.87254602  1
  O  O423  1  0.63203908  0.11966675  0.38405860  1
  O  O424  1  0.61937628  0.13204234  0.88929318  1
  O  O425  1  0.62316698  0.63086909  0.37987791  1
  O  O426  1  0.63113052  0.63184717  0.87988652  1
