# generated using pymatgen
data_V85Zn86O256
_symmetry_space_group_name_H-M   'P 1'
_cell_length_a   16.94696493
_cell_length_b   16.92690271
_cell_length_c   16.93348350
_cell_angle_alpha   89.99279055
_cell_angle_beta   90.01589677
_cell_angle_gamma   89.95984509
_symmetry_Int_Tables_number   1
_chemical_formula_structural   V85Zn86O256
_chemical_formula_sum   'V85 Zn86 O256'
_cell_volume   4857.53133533
_cell_formula_units_Z   1
loop_
 _symmetry_equiv_pos_site_id
 _symmetry_equiv_pos_as_xyz
  1  'x, y, z'
loop_
 _atom_site_type_symbol
 _atom_site_label
 _atom_site_symmetry_multiplicity
 _atom_site_fract_x
 _atom_site_fract_y
 _atom_site_fract_z
 _atom_site_occupancy
  V  V0  1  0.87923960  0.87607382  -0.00342773  1
  V  V1  1  0.13598428  0.63594394  -0.01479440  1
  V  V2  1  0.50052677  -0.00805406  -0.00126212  1
  V  V3  1  0.24905638  0.62030822  0.36880693  1
  V  V4  1  0.12275384  -0.00129048  0.62554804  1
  V  V5  1  0.11794887  0.61964896  0.49988305  1
  V  V6  1  0.87508597  0.75020177  0.12490448  1
  V  V7  1  0.74963872  0.38327800  0.11913096  1
  V  V8  1  -0.00195028  0.48733181  -0.00619959  1
  V  V9  1  0.25152781  0.37736421  0.12991804  1
  V  V10  1  0.62341086  0.63127558  0.50608647  1
  V  V11  1  0.62427325  0.24987074  0.37543412  1
  V  V12  1  0.62167656  0.87715202  0.74174270  1
  V  V13  1  0.74736401  0.00113230  0.25070668  1
  V  V14  1  0.49589663  0.25337308  0.74574784  1
  V  V15  1  -0.00110730  0.12420909  0.12179042  1
  V  V16  1  0.62067107  0.38354183  0.24127173  1
  V  V17  1  0.24515890  0.00134793  0.75231201  1
  V  V18  1  0.37340627  0.87270315  -0.00693126  1
  V  V19  1  0.74661244  0.87496331  0.12347593  1
  V  V20  1  0.88436801  0.62519341  0.74802989  1
  V  V21  1  0.87703054  0.48833523  0.87010668  1
  V  V22  1  0.17585055  0.82334173  0.80984361  1
  V  V23  1  0.24283532  0.87392647  0.62321802  1
  V  V24  1  0.74736377  0.39462059  0.62792866  1
  V  V25  1  0.37355311  0.62002074  0.24765760  1
  V  V26  1  0.12456734  0.74739701  0.37245754  1
  V  V27  1  0.37785586  0.38436980  -0.00013248  1
  V  V28  1  0.75196976  0.25349370  -0.00386761  1
  V  V29  1  -0.00018175  0.74824900  0.24851737  1
  V  V30  1  -0.00800862  0.37849774  0.37644128  1
  V  V31  1  0.37076225  0.13016198  0.74787428  1
  V  V32  1  -0.00415132  0.76661031  0.76877084  1
  V  V33  1  0.49978643  -0.00298544  0.50941689  1
  V  V34  1  0.49981575  0.12437261  0.62791012  1
  V  V35  1  0.74982579  0.25093016  0.50628114  1
  V  V36  1  0.12937726  0.12516287  0.48985377  1
  V  V37  1  0.75290062  0.49553994  0.25948778  1
  V  V38  1  -0.00142173  0.00032685  0.49909825  1
  V  V39  1  0.62811285  0.75194605  0.87644094  1
  V  V40  1  0.37401255  0.86950319  0.50431115  1
  V  V41  1  0.25239537  0.87300650  0.12357094  1
  V  V42  1  0.12799081  0.37765832  0.25275782  1
  V  V43  1  0.50107245  0.38832124  0.87840200  1
  V  V44  1  0.34387662  0.72031953  0.66031636  1
  V  V45  1  0.75048740  0.75194730  0.49298963  1
  V  V46  1  0.62544144  0.38729202  0.74550636  1
  V  V47  1  0.12601812  0.00165028  0.12538373  1
  V  V48  1  0.50147304  0.74560936  0.25730823  1
  V  V49  1  -0.00367838  0.87457276  0.37821477  1
  V  V50  1  0.12354448  0.37727879  0.75936196  1
  V  V51  1  0.13133676  0.50256202  0.12381412  1
  V  V52  1  0.87235512  0.12734198  0.24990333  1
  V  V53  1  0.37191088  0.49927059  0.37739785  1
  V  V54  1  -0.00202019  0.25411333  0.75831228  1
  V  V55  1  0.25054756  0.37696224  0.63106846  1
  V  V56  1  0.75434472  0.62439727  0.86915006  1
  V  V57  1  0.12585234  0.87395544  0.24902409  1
  V  V58  1  0.25315795  0.24733287  0.49943225  1
  V  V59  1  0.25098341  0.25112831  -0.00311056  1
  V  V60  1  0.62551983  0.87021834  0.25517316  1
  V  V61  1  0.62111084  0.25067505  0.87580315  1
  V  V62  1  0.50119587  0.24749323  0.24651452  1
  V  V63  1  0.74509569  0.00051933  0.74284889  1
  V  V64  1  0.87644244  0.61699324  0.25604413  1
  V  V65  1  0.50050193  0.12252263  0.12455057  1
  V  V66  1  0.11652338  0.49938732  0.63000224  1
  V  V67  1  -0.00036177  0.13044585  0.62352683  1
  V  V68  1  0.50006350  0.37594662  0.37803055  1
  V  V69  1  0.37532500  0.74827941  0.12261517  1
  V  V70  1  0.87360571  -0.00083246  0.37875213  1
  V  V71  1  0.50366296  0.73140918  0.74148464  1
  V  V72  1  0.36136895  0.51048440  0.86512713  1
  V  V73  1  0.74820396  0.12302438  0.87257669  1
  V  V74  1  0.36875479  0.12351008  0.25802970  1
  V  V75  1  0.50209211  0.87330564  0.37958067  1
  V  V76  1  0.37613158  0.37106533  0.50878067  1
  V  V77  1  0.75367361  0.87558849  0.61803885  1
  V  V78  1  0.50529536  0.50447496  0.51587208  1
  V  V79  1  0.62402389  0.12028726  0.50342698  1
  V  V80  1  0.00006052  0.62292064  0.11907576  1
  V  V81  1  0.88519116  0.75023220  0.61818714  1
  V  V82  1  0.87434867  0.25475077  0.11953111  1
  V  V83  1  0.88006417  -0.00167061  0.87237004  1
  V  V84  1  0.25238993  0.74617778  0.49640797  1
  Zn  Zn85  1  0.00367721  -0.00203299  -0.00733783  1
  Zn  Zn86  1  0.37512137  0.00272746  0.87448836  1
  Zn  Zn87  1  0.86814356  0.38422536  0.49594293  1
  Zn  Zn88  1  0.62204555  0.12257562  -0.00059798  1
  Zn  Zn89  1  0.74806696  0.62157408  0.37757707  1
  Zn  Zn90  1  0.12075076  0.25125705  0.87850198  1
  Zn  Zn91  1  0.12737661  0.12711502  -0.00108123  1
  Zn  Zn92  1  0.37611540  0.25040608  0.12229414  1
  Zn  Zn93  1  0.74836498  0.12684628  0.37585129  1
  Zn  Zn94  1  0.51243560  0.59929321  0.12461735  1
  Zn  Zn95  1  0.36781651  0.00239154  0.38275956  1
  Zn  Zn96  1  0.75181147  0.74549063  -0.00003254  1
  Zn  Zn97  1  0.87372185  0.12665032  0.74545160  1
  Zn  Zn98  1  0.00236377  0.25068023  0.25044852  1
  Zn  Zn99  1  -0.01050040  0.50527503  0.49704461  1
  Zn  Zn100  1  0.87625270  0.25520337  0.62253612  1
  Zn  Zn101  1  0.24782508  0.00375178  0.25701781  1
  Zn  Zn102  1  0.24871551  0.12729039  0.87625710  1
  Zn  Zn103  1  0.63072421  0.60019200  0.00681911  1
  Zn  Zn104  1  0.49859241  0.87373320  0.86750545  1
  Zn  Zn105  1  0.62471378  -0.00191763  0.12376154  1
  Zn  Zn106  1  0.12874177  0.24994760  0.37224204  1
  Zn  Zn107  1  0.18871712  0.19216145  0.18383446  1
  Zn  Zn108  1  0.18444976  0.19229733  0.68296426  1
  Zn  Zn109  1  0.19051633  0.68626068  0.18285994  1
  Zn  Zn110  1  0.16976916  0.68410023  0.68623363  1
  Zn  Zn111  1  0.68532830  0.19101880  0.18431977  1
  Zn  Zn112  1  0.68174874  0.18930844  0.68777478  1
  Zn  Zn113  1  0.69186021  0.68796235  0.19498464  1
  Zn  Zn114  1  0.69292291  0.68503609  0.68509295  1
  Zn  Zn115  1  0.31269626  0.31005113  0.31528157  1
  Zn  Zn116  1  0.31343111  0.31672637  0.81296322  1
  Zn  Zn117  1  0.31492882  0.81369218  0.31254216  1
  Zn  Zn118  1  0.31220064  0.69130516  0.83094276  1
  Zn  Zn119  1  0.80935279  0.31064002  0.31156498  1
  Zn  Zn120  1  0.81119023  0.31116145  0.80479116  1
  Zn  Zn121  1  0.81481340  0.81195599  0.31173078  1
  Zn  Zn122  1  0.81209525  0.81413107  0.80951106  1
  Zn  Zn123  1  0.18714031  0.43550456  0.44036649  1
  Zn  Zn124  1  0.18840339  0.44228718  0.94063745  1
  Zn  Zn125  1  0.18720588  0.93849302  0.43526831  1
  Zn  Zn126  1  0.19311404  0.94319342  0.94322553  1
  Zn  Zn127  1  0.68315243  0.43836748  0.43964075  1
  Zn  Zn128  1  0.69782619  0.43410559  0.92601882  1
  Zn  Zn129  1  0.68548518  0.93840327  0.43840734  1
  Zn  Zn130  1  0.68718610  0.93483779  0.93584017  1
  Zn  Zn131  1  0.31501634  0.06240390  0.06655665  1
  Zn  Zn132  1  0.31410193  0.06294552  0.56574659  1
  Zn  Zn133  1  0.31446281  0.56484054  0.05842762  1
  Zn  Zn134  1  0.30705576  0.55701716  0.56329637  1
  Zn  Zn135  1  0.81089735  0.06294811  0.05974403  1
  Zn  Zn136  1  0.81257202  0.06345556  0.56169100  1
  Zn  Zn137  1  0.81513138  0.56123331  0.05739153  1
  Zn  Zn138  1  0.81582075  0.56724588  0.56159332  1
  Zn  Zn139  1  0.43142992  0.43538298  0.19299673  1
  Zn  Zn140  1  0.43339555  0.44116943  0.69283029  1
  Zn  Zn141  1  0.43848979  0.93740630  0.18800798  1
  Zn  Zn142  1  0.42847285  0.93034005  0.68715537  1
  Zn  Zn143  1  0.93990968  0.43603164  0.18669282  1
  Zn  Zn144  1  0.93662597  0.43561998  0.68538556  1
  Zn  Zn145  1  0.93712152  0.93888413  0.18820344  1
  Zn  Zn146  1  0.93217254  0.93843214  0.68470446  1
  Zn  Zn147  1  0.06063661  0.06321544  0.30919828  1
  Zn  Zn148  1  0.06506201  0.06842836  0.81223969  1
  Zn  Zn149  1  0.06307453  0.55727908  0.30931728  1
  Zn  Zn150  1  0.05920606  0.56613391  0.81123343  1
  Zn  Zn151  1  0.55913175  0.05825238  0.31747195  1
  Zn  Zn152  1  0.56195921  0.05935880  0.81198992  1
  Zn  Zn153  1  0.56348542  0.56304259  0.31986501  1
  Zn  Zn154  1  0.56639421  0.56289062  0.82244525  1
  Zn  Zn155  1  0.43766599  0.18949473  0.43866767  1
  Zn  Zn156  1  0.43579689  0.19029386  0.93640968  1
  Zn  Zn157  1  0.43923619  0.68395143  0.43977111  1
  Zn  Zn158  1  0.44795803  0.68799816  0.94054063  1
  Zn  Zn159  1  0.93872689  0.19404766  0.43572015  1
  Zn  Zn160  1  0.93466196  0.18497001  0.93697025  1
  Zn  Zn161  1  0.93403398  0.68749183  0.43670155  1
  Zn  Zn162  1  0.93765029  0.68535466  0.93898016  1
  Zn  Zn163  1  0.06491414  0.31143074  0.06491299  1
  Zn  Zn164  1  0.06473479  0.31325907  0.56160117  1
  Zn  Zn165  1  0.06268484  0.81284332  0.05856592  1
  Zn  Zn166  1  0.06257215  0.81134040  0.55877348  1
  Zn  Zn167  1  0.56439850  0.42775863  0.05830885  1
  Zn  Zn168  1  0.56390512  0.31217619  0.56591553  1
  Zn  Zn169  1  0.56817825  0.74405738  0.06846126  1
  Zn  Zn170  1  0.56476768  0.80651083  0.56767135  1
  O  O171  1  0.11655948  0.11883512  0.12636092  1
  O  O172  1  0.11470167  0.12025627  0.61516229  1
  O  O173  1  0.11769134  0.61701595  0.12296291  1
  O  O174  1  0.12596718  0.60934797  0.61536857  1
  O  O175  1  0.61175699  0.12397045  0.12442605  1
  O  O176  1  0.60994833  0.12688098  0.61844312  1
  O  O177  1  0.62329821  0.64768562  0.11747952  1
  O  O178  1  0.63320453  0.62413724  0.60730749  1
  O  O179  1  0.38005349  0.38146738  0.38280981  1
  O  O180  1  0.38124272  0.38571380  0.88015756  1
  O  O181  1  0.38701446  0.87456914  0.38334989  1
  O  O182  1  0.37613924  0.87590920  0.89107307  1
  O  O183  1  0.88899387  0.37008545  0.37054912  1
  O  O184  1  0.87126963  0.38932828  0.86658758  1
  O  O185  1  0.88524276  0.88665982  0.36577008  1
  O  O186  1  0.86519282  0.88585135  0.88454559  1
  O  O187  1  0.25518953  -0.00485234  0.36977073  1
  O  O188  1  0.25351545  0.00440607  0.86565851  1
  O  O189  1  0.26391985  0.50346693  0.38336447  1
  O  O190  1  0.26254675  0.50028452  0.87516193  1
  O  O191  1  0.75763062  0.00171273  0.36984752  1
  O  O192  1  0.75432290  0.00760859  0.86749826  1
  O  O193  1  0.75155261  0.49278930  0.36225892  1
  O  O194  1  0.77005835  0.50757159  0.87382012  1
  O  O195  1  0.23911525  0.49361914  0.11845304  1
  O  O196  1  0.23542179  0.48742504  0.61925765  1
  O  O197  1  0.24218033  0.99401680  0.13196559  1
  O  O198  1  0.24544006  0.99089426  0.62992961  1
  O  O199  1  0.75668448  0.48640141  0.12808942  1
  O  O200  1  0.74751562  0.49237234  0.62509461  1
  O  O201  1  0.74877992  0.99422501  0.13286311  1
  O  O202  1  0.75626460  0.99154962  0.63124453  1
  O  O203  1  0.00893716  0.37362013  0.25734338  1
  O  O204  1  0.00955282  0.36453505  0.74255938  1
  O  O205  1  0.00600393  0.87021697  0.25671307  1
  O  O206  1  -0.00624465  0.86498452  0.74894270  1
  O  O207  1  0.50500278  0.36555324  0.25624744  1
  O  O208  1  0.50385343  0.36913905  0.75476247  1
  O  O209  1  0.50566307  0.87181372  0.26081867  1
  O  O210  1  0.50982949  0.87598354  0.74757929  1
  O  O211  1  0.49523211  0.12888560  0.24643411  1
  O  O212  1  0.49506648  0.13006386  0.74465760  1
  O  O213  1  0.49578944  0.63140178  0.25060228  1
  O  O214  1  0.51008372  0.63292685  0.74866753  1
  O  O215  1  0.99088461  0.12748940  0.23937918  1
  O  O216  1  1.00006185  0.13445972  0.73909536  1
  O  O217  1  0.99466790  0.62448052  0.23906588  1
  O  O218  1  0.99112340  0.64239701  0.75352893  1
  O  O219  1  0.36902172  0.26283841  0.00024047  1
  O  O220  1  0.37193318  0.26274455  0.49919835  1
  O  O221  1  0.38319690  0.75982325  0.01190722  1
  O  O222  1  0.36042426  0.75253784  0.49261654  1
  O  O223  1  0.86566049  0.24456963  0.00797429  1
  O  O224  1  0.86346845  0.25655690  0.50064227  1
  O  O225  1  0.87360864  0.75770437  0.00681300  1
  O  O226  1  0.86727955  0.74485031  0.50917105  1
  O  O227  1  0.13334858  0.24113727  0.49873972  1
  O  O228  1  0.13466402  0.25024926  0.99942286  1
  O  O229  1  0.13290837  0.74220104  0.49239645  1
  O  O230  1  0.11931208  0.73454086  1.00196833  1
  O  O231  1  0.62691891  0.23975341  0.49617819  1
  O  O232  1  0.63294728  0.24507265  0.98144003  1
  O  O233  1  0.63100112  0.73961252  0.50077156  1
  O  O234  1  0.63497324  0.77086108  0.98038619  1
  O  O235  1  0.49812525  0.24166850  0.14086312  1
  O  O236  1  0.50291831  0.24293832  0.63798940  1
  O  O237  1  0.48576169  0.76180917  0.14616948  1
  O  O238  1  0.49591934  0.75024131  0.64070733  1
  O  O239  1  0.99108858  0.24390860  0.12624518  1
  O  O240  1  0.99974543  0.24391491  0.62954957  1
  O  O241  1  0.99580414  0.74167884  0.12989851  1
  O  O242  1  0.98793215  0.75618786  0.62542305  1
  O  O243  1  0.00682604  0.26145262  0.36995130  1
  O  O244  1  -0.00173680  0.24552647  0.86258877  1
  O  O245  1  0.00256155  0.75693606  0.36871916  1
  O  O246  1  -0.00825041  0.75922634  0.86774524  1
  O  O247  1  0.50465990  0.25546185  0.36754003  1
  O  O248  1  0.50586991  0.25644002  0.86605805  1
  O  O249  1  0.49535472  0.75662051  0.36615559  1
  O  O250  1  0.51272823  0.75314810  0.86350044  1
  O  O251  1  0.24232700  0.13376811  0.50970979  1
  O  O252  1  0.25342228  0.13671505  1.00245160  1
  O  O253  1  0.23980729  0.62985128  0.49086753  1
  O  O254  1  0.23476278  0.62475149  1.00289527  1
  O  O255  1  0.73985761  0.13091879  0.49940867  1
  O  O256  1  0.74595222  0.13355513  0.99116460  1
  O  O257  1  0.74239455  0.63413135  0.49789828  1
  O  O258  1  0.75118642  0.62632456  0.98699598  1
  O  O259  1  0.25511744  0.37172568  0.00976342  1
  O  O260  1  0.25891939  0.37034689  0.50755398  1
  O  O261  1  0.25853141  0.88059178  0.01540119  1
  O  O262  1  0.25257376  0.86618554  0.50528981  1
  O  O263  1  0.74818050  0.36143745  0.00446312  1
  O  O264  1  0.74433261  0.36945415  0.51225411  1
  O  O265  1  0.76030912  0.87742189  0.01033451  1
  O  O266  1  0.74193592  0.86863339  0.50890171  1
  O  O267  1  0.12292306  0.48850379  0.23726696  1
  O  O268  1  0.11776728  0.49565114  0.73823852  1
  O  O269  1  0.12409596  0.99440780  0.23997932  1
  O  O270  1  0.13693123  1.00919471  0.74061481  1
  O  O271  1  0.63224779  0.48863978  0.25484169  1
  O  O272  1  0.62089100  0.48631898  0.75607812  1
  O  O273  1  0.62801533  0.98847346  0.25048521  1
  O  O274  1  0.63688980  0.99327848  0.75110374  1
  O  O275  1  0.37753091  0.01512437  0.25114495  1
  O  O276  1  0.36041882  0.00529251  0.74757294  1
  O  O277  1  0.37737760  0.51222108  0.26054319  1
  O  O278  1  0.37266474  0.50411695  0.76560159  1
  O  O279  1  0.87025728  0.01064210  0.25709679  1
  O  O280  1  0.86286130  0.00243233  0.75553050  1
  O  O281  1  0.86684578  0.50629592  0.24234107  1
  O  O282  1  0.89035607  0.51006474  0.76188521  1
  O  O283  1  0.12128528  0.37535917  0.36595065  1
  O  O284  1  0.12976347  0.37811060  0.86240755  1
  O  O285  1  0.11738691  0.86746639  0.36810802  1
  O  O286  1  0.12503722  0.88311315  0.87089869  1
  O  O287  1  0.61776449  0.36942989  0.36836927  1
  O  O288  1  0.61820397  0.36706311  0.86550618  1
  O  O289  1  0.61112325  0.87931895  0.37088137  1
  O  O290  1  0.62866236  0.86938981  0.85794035  1
  O  O291  1  0.38704329  0.12733564  0.13558460  1
  O  O292  1  0.38691505  0.12289022  0.63635852  1
  O  O293  1  0.37782069  0.63035951  0.13241142  1
  O  O294  1  0.37294834  0.64044669  0.60780793  1
  O  O295  1  0.87904237  0.13109451  0.13053129  1
  O  O296  1  0.88921367  0.12607663  0.62225766  1
  O  O297  1  0.88262801  0.62858814  0.13008885  1
  O  O298  1  0.86912372  0.63853718  0.63672377  1
  O  O299  1  0.25334794  0.25993261  0.11465921  1
  O  O300  1  0.24393302  0.26467636  0.61270838  1
  O  O301  1  0.26520675  0.75761411  0.13048037  1
  O  O302  1  0.24149692  0.75564991  0.61225544  1
  O  O303  1  0.75526957  0.25522084  0.11493690  1
  O  O304  1  0.74864220  0.24869742  0.61362565  1
  O  O305  1  0.75972752  0.75874763  0.12630091  1
  O  O306  1  0.75861547  0.75773107  0.61593073  1
  O  O307  1  0.24762257  0.25552745  0.39230752  1
  O  O308  1  0.25049746  0.25337443  0.88790740  1
  O  O309  1  0.24329356  0.74480261  0.37899672  1
  O  O310  1  0.23650551  0.76962866  0.86739777  1
  O  O311  1  0.74186072  0.25099805  0.38727611  1
  O  O312  1  0.74584128  0.24409414  0.87698576  1
  O  O313  1  0.75664142  0.75182230  0.38915135  1
  O  O314  1  0.74595374  0.74322894  0.87302613  1
  O  O315  1  -0.00111951  0.12204086  0.01231114  1
  O  O316  1  0.00731680  0.12182432  0.50360407  1
  O  O317  1  0.00441022  0.61827272  0.00984214  1
  O  O318  1  0.01456394  0.62605137  0.49074686  1
  O  O319  1  0.49740782  0.11732014  0.00786707  1
  O  O320  1  0.50176765  0.11836342  0.50793064  1
  O  O321  1  0.51776504  0.64593981  0.01515048  1
  O  O322  1  0.50922266  0.61486636  0.49943095  1
  O  O323  1  0.49500420  0.38262372  0.50004912  1
  O  O324  1  0.49023029  0.36818085  0.98776288  1
  O  O325  1  0.49778926  0.87793810  0.49978390  1
  O  O326  1  0.49220413  0.88701618  1.00113222  1
  O  O327  1  1.00007983  0.37250965  0.48487852  1
  O  O328  1  1.00412425  0.38897625  1.00358461  1
  O  O329  1  1.00431590  0.88155856  0.48510792  1
  O  O330  1  0.98378933  0.88041522  1.00912087  1
  O  O331  1  0.48886802  0.49418139  0.38388339  1
  O  O332  1  0.49020821  0.49110524  0.87237390  1
  O  O333  1  0.49428495  0.99223409  0.39132605  1
  O  O334  1  0.49616532  0.99627061  0.88249132  1
  O  O335  1  1.00544606  0.48309052  0.37526295  1
  O  O336  1  0.99285366  0.50265319  0.88644495  1
  O  O337  1  0.99337016  0.99385192  0.37667911  1
  O  O338  1  0.98384887  1.00947216  0.87260825  1
  O  O339  1  0.00681855  0.00818468  0.12570864  1
  O  O340  1  0.00263128  0.00548704  0.61868982  1
  O  O341  1  0.00610031  0.50484599  0.11490201  1
  O  O342  1  0.01352389  0.49245367  0.61768364  1
  O  O343  1  0.50251594  0.00582911  0.11844267  1
  O  O344  1  0.49491413  0.00415134  0.61605176  1
  O  O345  1  0.50617195  0.48872259  0.13216555  1
  O  O346  1  0.49485196  0.49877443  0.61368312  1
  O  O347  1  0.24687254  0.37109290  0.23809302  1
  O  O348  1  0.24039252  0.36849910  0.73963686  1
  O  O349  1  0.24403604  0.87383815  0.24008582  1
  O  O350  1  0.23825545  0.88158490  0.74320385  1
  O  O351  1  0.74286755  0.37859145  0.24148895  1
  O  O352  1  0.74014071  0.37135750  0.73558442  1
  O  O353  1  0.74329296  0.87953670  0.24774736  1
  O  O354  1  0.74463832  0.88199620  0.73980084  1
  O  O355  1  0.26636577  0.12840352  0.24362104  1
  O  O356  1  0.25653822  0.12118604  0.74475259  1
  O  O357  1  0.25867365  0.62804773  0.25841346  1
  O  O358  1  0.27254902  0.66597507  0.72799205  1
  O  O359  1  0.75478720  0.12053448  0.25091804  1
  O  O360  1  0.74898942  0.11841051  0.75354482  1
  O  O361  1  0.75752867  0.61364264  0.25290158  1
  O  O362  1  0.76470246  0.63154839  0.76092122  1
  O  O363  1  0.38181666  0.12418710  0.36152787  1
  O  O364  1  0.37323472  0.12426566  0.86030696  1
  O  O365  1  0.37021849  0.61743229  0.37040494  1
  O  O366  1  0.37609303  0.61605927  0.88600273  1
  O  O367  1  0.87451558  0.12087756  0.36552837  1
  O  O368  1  0.86107171  0.11891858  0.87188932  1
  O  O369  1  0.87356507  0.62740706  0.35920913  1
  O  O370  1  0.87259321  0.61960421  0.86800783  1
  O  O371  1  0.13217637  0.38265843  0.13021723  1
  O  O372  1  0.13015159  0.38408228  0.63058522  1
  O  O373  1  0.13130538  0.88032200  0.12825540  1
  O  O374  1  0.13426726  0.88161913  0.61659735  1
  O  O375  1  0.63625749  0.36709001  0.13395868  1
  O  O376  1  0.63666502  0.37188318  0.63196371  1
  O  O377  1  0.63946702  0.87305033  0.13495347  1
  O  O378  1  0.63630198  0.86984133  0.63472203  1
  O  O379  1  0.12547319  0.26332489  0.24880366  1
  O  O380  1  0.11693418  0.25950201  0.75167370  1
  O  O381  1  0.11855185  0.75242859  0.25276227  1
  O  O382  1  0.11117703  0.75740483  0.75367624  1
  O  O383  1  0.61915889  0.25777601  0.25554319  1
  O  O384  1  0.61658431  0.25634666  0.75840880  1
  O  O385  1  0.61831904  0.76233994  0.25326343  1
  O  O386  1  0.61946602  0.75544527  0.75315411  1
  O  O387  1  0.38317741  0.24051396  0.25088672  1
  O  O388  1  0.38383767  0.24364678  0.75381978  1
  O  O389  1  0.38096246  0.73728926  0.24923202  1
  O  O390  1  0.39590043  0.74814024  0.75697784  1
  O  O391  1  0.87191449  0.23843140  0.24241236  1
  O  O392  1  0.88304260  0.24684667  0.74353605  1
  O  O393  1  0.88139956  0.74182483  0.24349617  1
  O  O394  1  0.88489141  0.74793976  0.74411103  1
  O  O395  1  0.38411602  0.49279344  0.49632952  1
  O  O396  1  0.37252952  0.48935109  0.99264272  1
  O  O397  1  0.38142761  0.98848230  0.50514611  1
  O  O398  1  0.38173886  0.99301860  1.00113731  1
  O  O399  1  0.87683056  0.49818075  0.50027817  1
  O  O400  1  0.88938742  0.50179900  0.98782889  1
  O  O401  1  0.88046988  1.00651854  0.48509537  1
  O  O402  1  0.87450655  0.99482820  0.99025465  1
  O  O403  1  0.12267954  0.00293325  0.01363678  1
  O  O404  1  0.11889954  0.00689013  0.50521104  1
  O  O405  1  0.11426973  0.50813558  0.00495374  1
  O  O406  1  0.12132251  0.50547526  0.50730707  1
  O  O407  1  0.61619867  0.00093464  0.00126813  1
  O  O408  1  0.61700119  0.01299670  0.49750167  1
  O  O409  1  0.62421604  0.49000146  -0.01307076  1
  O  O410  1  0.60975785  0.50354702  0.50136849  1
  O  O411  1  0.36663707  0.37407528  0.11899799  1
  O  O412  1  0.36545972  0.38180008  0.61906627  1
  O  O413  1  0.36814243  0.86985560  0.12278097  1
  O  O414  1  0.35661209  0.85649037  0.62524924  1
  O  O415  1  0.86751413  0.36095381  0.13127721  1
  O  O416  1  0.85760313  0.37467901  0.62526248  1
  O  O417  1  0.86552849  0.87195256  0.12347731  1
  O  O418  1  0.86347752  0.86513878  0.62609655  1
  O  O419  1  0.12074973  0.12519374  0.38609738  1
  O  O420  1  0.13024035  0.13089274  0.88064552  1
  O  O421  1  0.13063459  0.62654583  0.37689733  1
  O  O422  1  0.12429362  0.62313522  0.88552357  1
  O  O423  1  0.62342713  0.13161586  0.38368399  1
  O  O424  1  0.63428744  0.13039957  0.87180660  1
  O  O425  1  0.63133389  0.61568345  0.39449699  1
  O  O426  1  0.63744528  0.63465435  0.87604250  1
