# generated using pymatgen
data_V85Zn86O256
_symmetry_space_group_name_H-M   'P 1'
_cell_length_a   16.95236279
_cell_length_b   16.94287633
_cell_length_c   16.93680370
_cell_angle_alpha   89.96792612
_cell_angle_beta   90.05097680
_cell_angle_gamma   90.13728286
_symmetry_Int_Tables_number   1
_chemical_formula_structural   V85Zn86O256
_chemical_formula_sum   'V85 Zn86 O256'
_cell_volume   4864.60236801
_cell_formula_units_Z   1
loop_
 _symmetry_equiv_pos_site_id
 _symmetry_equiv_pos_as_xyz
  1  'x, y, z'
loop_
 _atom_site_type_symbol
 _atom_site_label
 _atom_site_symmetry_multiplicity
 _atom_site_fract_x
 _atom_site_fract_y
 _atom_site_fract_z
 _atom_site_occupancy
  V  V0  1  0.12602370  0.49574993  0.63416779  1
  V  V1  1  0.87447381  0.62429741  0.25365371  1
  V  V2  1  0.73744850  0.49583558  0.24819205  1
  V  V3  1  0.73610570  0.37471649  0.12937743  1
  V  V4  1  0.37538595  0.25501900  0.62073174  1
  V  V5  1  0.61757539  -0.00901551  0.12172957  1
  V  V6  1  0.49964877  0.62644875  0.62361929  1
  V  V7  1  0.00086747  0.49953556  0.00209173  1
  V  V8  1  0.50095441  0.12476831  0.11573847  1
  V  V9  1  0.50077947  0.37384102  0.87655629  1
  V  V10  1  0.49983590  0.00143904  0.49857702  1
  V  V11  1  0.87590587  0.25019546  0.12472489  1
  V  V12  1  0.62501436  0.50026773  0.62232562  1
  V  V13  1  0.50107358  0.75119738  0.75018325  1
  V  V14  1  0.24980246  0.37510793  0.63085868  1
  V  V15  1  0.62670928  0.25710975  0.36615113  1
  V  V16  1  0.37191383  0.87949469  0.50115576  1
  V  V17  1  0.49102941  0.49319984  0.50047899  1
  V  V18  1  0.87426661  0.00109707  0.37393038  1
  V  V19  1  0.50227726  0.62926601  0.13836429  1
  V  V20  1  0.87669385  0.37534178  0.50106942  1
  V  V21  1  0.12833931  0.37523463  0.25384715  1
  V  V22  1  0.12641036  0.88827331  0.24331707  1
  V  V23  1  0.00328148  0.49753328  0.50036298  1
  V  V24  1  0.87600398  0.50206226  0.37457496  1
  V  V25  1  0.24215282  0.12944378  0.36893445  1
  V  V26  1  0.00168556  0.12432690  0.63497833  1
  V  V27  1  0.62035548  0.62830392  0.49740314  1
  V  V28  1  0.25009989  0.25732270  0.49404595  1
  V  V29  1  0.36862483  0.00468817  0.37135718  1
  V  V30  1  0.76268830  0.11985257  0.87220250  1
  V  V31  1  0.75095249  0.62680165  0.37509613  1
  V  V32  1  0.62448544  0.75600757  0.36090054  1
  V  V33  1  0.50127256  0.87839088  0.88010719  1
  V  V34  1  0.12832686  0.50173015  0.12187920  1
  V  V35  1  0.24713370  0.75793097  0.50369947  1
  V  V36  1  0.75051311  0.50272706  0.75044098  1
  V  V37  1  0.12338191  0.75302402  0.37322093  1
  V  V38  1  0.76140451  0.00083640  0.75176019  1
  V  V39  1  0.74229385  -0.00802304  0.25003045  1
  V  V40  1  0.37462349  0.12803359  0.24684950  1
  V  V41  1  0.24200294  -0.01102817  0.73726727  1
  V  V42  1  0.12615868  0.62344037  0.50193835  1
  V  V43  1  0.74671879  0.24677731  -0.00064202  1
  V  V44  1  0.74038933  0.62248555  0.88265574  1
  V  V45  1  0.75151969  0.25113313  0.49985469  1
  V  V46  1  0.62360786  0.37170921  0.74930280  1
  V  V47  1  0.13848859  0.25183611  0.87609523  1
  V  V48  1  0.00498547  0.37406299  0.86677773  1
  V  V49  1  0.24988550  0.36610933  0.12045639  1
  V  V50  1  0.74877312  0.12616497  0.37287702  1
  V  V51  1  0.12040369  0.85525442  0.74271240  1
  V  V52  1  0.87019471  0.87894430  0.50708697  1
  V  V53  1  0.37524184  0.50420351  0.87622848  1
  V  V54  1  0.63107709  -0.00412573  0.62587803  1
  V  V55  1  0.87208444  0.88591042  -0.00671121  1
  V  V56  1  0.00136767  0.75082640  0.24973440  1
  V  V57  1  0.12626835  0.13023252  0.50559934  1
  V  V58  1  0.37261756  0.12059704  0.74966288  1
  V  V59  1  0.00571080  0.11477825  0.12495336  1
  V  V60  1  0.00510097  0.00278511  0.50251964  1
  V  V61  1  0.87533381  0.49923385  0.87757961  1
  V  V62  1  0.25241179  0.62181258  0.36677879  1
  V  V63  1  0.37313074  -0.00401941  0.87972741  1
  V  V64  1  0.24029862  0.63264172  0.87725244  1
  V  V65  1  0.00399210  0.62463707  0.12333737  1
  V  V66  1  0.50004533  0.12540539  0.62442477  1
  V  V67  1  0.63016737  0.87485754  0.74972614  1
  V  V68  1  0.01248596  -0.00048698  -0.01179284  1
  V  V69  1  0.74704319  0.75726490  0.50871976  1
  V  V70  1  0.75260629  0.37553604  0.62486731  1
  V  V71  1  0.37743331  0.86697915  0.00664031  1
  V  V72  1  0.00304381  0.36866875  0.37427990  1
  V  V73  1  0.74341823  0.74624152  0.00348445  1
  V  V74  1  0.87697564  0.24761275  0.63538554  1
  V  V75  1  0.62503401  0.12662287  0.49919657  1
  V  V76  1  0.37361984  0.75529274  0.62448181  1
  V  V77  1  0.24513732  0.74139752  0.01312905  1
  V  V78  1  0.00443579  0.24874838  0.25041631  1
  V  V79  1  0.87175540  0.75125952  0.12547014  1
  V  V80  1  0.50413290  0.87864270  0.36426644  1
  V  V81  1  0.37186999  0.36997797  -0.00074877  1
  V  V82  1  0.49577276  0.37466011  0.36792401  1
  V  V83  1  0.51634087  0.50798164  0.00728674  1
  V  V84  1  0.24476945  0.88707462  0.12530553  1
  Zn  Zn85  1  0.25001286  0.49877897  0.75543927  1
  Zn  Zn86  1  0.00350058  0.64056410  0.63870518  1
  Zn  Zn87  1  0.88036207  0.63621666  0.75182678  1
  Zn  Zn88  1  0.46720916  0.75711157  0.23283439  1
  Zn  Zn89  1  0.37411313  0.62692690  0.75155711  1
  Zn  Zn90  1  0.25123875  0.12146966  0.87998909  1
  Zn  Zn91  1  0.50423381  0.25427160  0.24142866  1
  Zn  Zn92  1  0.74435964  0.87057041  0.13091369  1
  Zn  Zn93  1  0.62110108  0.11632605  -0.00642449  1
  Zn  Zn94  1  0.49919369  0.24813114  0.74975155  1
  Zn  Zn95  1  0.00372376  0.24892766  0.75355832  1
  Zn  Zn96  1  0.37269576  0.49518029  0.37377025  1
  Zn  Zn97  1  0.87913615  0.75498212  0.63689470  1
  Zn  Zn98  1  0.37267900  0.24538011  0.11801224  1
  Zn  Zn99  1  0.87419076  0.37346851  0.00202452  1
  Zn  Zn100  1  -0.00009956  0.84826378  0.85808759  1
  Zn  Zn101  1  0.62128998  0.74632435  0.88028997  1
  Zn  Zn102  1  0.13976342  0.13021301  0.00608425  1
  Zn  Zn103  1  0.00239103  0.87939453  0.37416416  1
  Zn  Zn104  1  0.62469849  0.24297696  0.87265672  1
  Zn  Zn105  1  0.26103447  0.50370428  0.24189726  1
  Zn  Zn106  1  0.87506361  0.12324050  0.24834822  1
  Zn  Zn107  1  0.18599107  0.18702133  0.18759693  1
  Zn  Zn108  1  0.18678828  0.18865493  0.69330624  1
  Zn  Zn109  1  0.18718059  0.69278178  0.18501494  1
  Zn  Zn110  1  0.19125715  0.68344284  0.68685337  1
  Zn  Zn111  1  0.68700601  0.18070218  0.18561617  1
  Zn  Zn112  1  0.69023502  0.18458221  0.68923849  1
  Zn  Zn113  1  0.68016833  0.67713153  0.18284117  1
  Zn  Zn114  1  0.68938721  0.68763784  0.68923324  1
  Zn  Zn115  1  0.31640079  0.31371512  0.30900588  1
  Zn  Zn116  1  0.31639642  0.31307001  0.80804037  1
  Zn  Zn117  1  0.30534332  0.82009294  0.31176461  1
  Zn  Zn118  1  0.30858212  0.81228412  0.81295206  1
  Zn  Zn119  1  0.81582711  0.31395111  0.30996512  1
  Zn  Zn120  1  0.81297383  0.31331203  0.81581697  1
  Zn  Zn121  1  0.81347008  0.81332471  0.31829363  1
  Zn  Zn122  1  0.81008414  0.81133587  0.81498324  1
  Zn  Zn123  1  0.18788743  0.43526228  0.43904137  1
  Zn  Zn124  1  0.18670909  0.43819537  0.93799362  1
  Zn  Zn125  1  0.18588709  0.94156799  0.43721256  1
  Zn  Zn126  1  0.18771317  0.92837319  0.92903394  1
  Zn  Zn127  1  0.68512069  0.43863592  0.43521693  1
  Zn  Zn128  1  0.68929916  0.43022878  0.93802153  1
  Zn  Zn129  1  0.68605141  0.93793047  0.43654302  1
  Zn  Zn130  1  0.68922621  0.93736132  0.93821793  1
  Zn  Zn131  1  0.31324546  0.05945048  0.05830584  1
  Zn  Zn132  1  0.31088650  0.06706623  0.56095296  1
  Zn  Zn133  1  0.31997821  0.55938514  0.06090958  1
  Zn  Zn134  1  0.31195731  0.56641069  0.56049992  1
  Zn  Zn135  1  0.80883032  0.06450997  0.06564825  1
  Zn  Zn136  1  0.81434074  0.06454423  0.56485849  1
  Zn  Zn137  1  0.81062931  0.56106225  0.06565733  1
  Zn  Zn138  1  0.81425083  0.56942833  0.56370055  1
  Zn  Zn139  1  0.43710447  0.44284316  0.18690338  1
  Zn  Zn140  1  0.43513507  0.43727835  0.68844584  1
  Zn  Zn141  1  0.43104775  0.94268130  0.18581586  1
  Zn  Zn142  1  0.43940329  0.93773534  0.68932118  1
  Zn  Zn143  1  0.93357266  0.43555289  0.18823139  1
  Zn  Zn144  1  0.93907907  0.44898750  0.68978435  1
  Zn  Zn145  1  0.93616959  0.93512099  0.18747743  1
  Zn  Zn146  1  0.94340326  0.93633341  0.68509751  1
  Zn  Zn147  1  0.06222927  0.06637241  0.31492935  1
  Zn  Zn148  1  0.06817518  0.06246637  0.81623962  1
  Zn  Zn149  1  0.06544928  0.56107621  0.31143326  1
  Zn  Zn150  1  0.06403696  0.56602479  0.81531018  1
  Zn  Zn151  1  0.56058854  0.06621461  0.30731150  1
  Zn  Zn152  1  0.56306943  0.06087703  0.81311863  1
  Zn  Zn153  1  0.55863978  0.56367924  0.31315461  1
  Zn  Zn154  1  0.55998406  0.56041007  0.81214254  1
  Zn  Zn155  1  0.43589859  0.19138121  0.43585076  1
  Zn  Zn156  1  0.43556685  0.18690912  0.93560133  1
  Zn  Zn157  1  0.41803200  0.70811805  0.40311785  1
  Zn  Zn158  1  0.43648183  0.68738499  0.94107677  1
  Zn  Zn159  1  0.93782503  0.18747027  0.43994005  1
  Zn  Zn160  1  0.94046964  0.18671343  0.93979216  1
  Zn  Zn161  1  0.95119431  0.70324223  0.46804411  1
  Zn  Zn162  1  0.92904803  0.68375922  0.93689234  1
  Zn  Zn163  1  0.06331012  0.31265495  0.05934233  1
  Zn  Zn164  1  0.06621452  0.30971999  0.56483462  1
  Zn  Zn165  1  0.04535477  0.79415375  0.02794756  1
  Zn  Zn166  1  0.06305720  0.82015580  0.56865385  1
  Zn  Zn167  1  0.56107102  0.31040696  0.05886021  1
  Zn  Zn168  1  0.56265211  0.31238499  0.55930466  1
  Zn  Zn169  1  0.56047847  0.81115806  0.06492845  1
  Zn  Zn170  1  0.56006455  0.81561082  0.55907060  1
  O  O171  1  0.11118384  0.13220513  0.12121184  1
  O  O172  1  0.11685176  0.13242815  0.61632050  1
  O  O173  1  0.11209942  0.61743189  0.13263520  1
  O  O174  1  0.12354890  0.61646608  0.61629317  1
  O  O175  1  0.61644022  0.11558269  0.12071257  1
  O  O176  1  0.61858691  0.12068994  0.61963645  1
  O  O177  1  0.60497547  0.61927894  0.12204611  1
  O  O178  1  0.62039255  0.62053342  0.61820422  1
  O  O179  1  0.39192865  0.37093580  0.37948015  1
  O  O180  1  0.38232440  0.38069326  0.87807377  1
  O  O181  1  0.37854438  0.88973535  0.38238008  1
  O  O182  1  0.38135116  0.87844175  0.87944773  1
  O  O183  1  0.88195541  0.38166962  0.38151521  1
  O  O184  1  0.87983650  0.38589642  0.87863586  1
  O  O185  1  0.87680141  0.88952266  0.38180771  1
  O  O186  1  0.87904295  0.87188357  0.89201550  1
  O  O187  1  0.26125257  0.01302441  0.38224447  1
  O  O188  1  0.26075188  -0.00330709  0.86323200  1
  O  O189  1  0.24387743  0.51291282  0.37543097  1
  O  O190  1  0.25865000  0.50914858  0.87806376  1
  O  O191  1  0.75403495  0.00622819  0.36948750  1
  O  O192  1  0.74836961  0.01137998  0.86811163  1
  O  O193  1  0.75635986  0.50571020  0.37072784  1
  O  O194  1  0.75516941  0.50197547  0.87104065  1
  O  O195  1  0.24213860  0.49539100  0.12346216  1
  O  O196  1  0.24440058  0.49306826  0.62227913  1
  O  O197  1  0.24777669  0.98563532  0.12120331  1
  O  O198  1  0.26017563  1.00082542  0.63947008  1
  O  O199  1  0.75624638  0.48768397  0.13575400  1
  O  O200  1  0.74570307  0.49640664  0.63243742  1
  O  O201  1  0.73906825  0.99977815  0.13456465  1
  O  O202  1  0.73683222  1.01009431  0.63212633  1
  O  O203  1  0.00624277  0.36895944  0.25404593  1
  O  O204  1  -0.00315704  0.37956475  0.76441394  1
  O  O205  1  0.00668627  0.86771235  0.25159326  1
  O  O206  1  0.01292211  0.87552697  0.74809267  1
  O  O207  1  0.50201860  0.37296520  0.26390874  1
  O  O208  1  0.50815781  0.37475587  0.75625303  1
  O  O209  1  0.49015311  0.87421360  0.26114549  1
  O  O210  1  0.50974212  0.86903359  0.75586559  1
  O  O211  1  0.49217624  0.12934864  0.23866874  1
  O  O212  1  0.48968298  0.12405291  0.74366102  1
  O  O213  1  0.49946460  0.62930571  0.24307611  1
  O  O214  1  0.49979429  0.63356349  0.74335847  1
  O  O215  1  0.99947360  0.13256441  0.24309963  1
  O  O216  1  1.00386263  0.12185026  0.73782694  1
  O  O217  1  0.99465265  0.62997425  0.24449333  1
  O  O218  1  0.99026135  0.60151930  0.74342354  1
  O  O219  1  0.37970918  0.26556566  -0.00201511  1
  O  O220  1  0.36492431  0.24136904  0.51248529  1
  O  O221  1  0.36673964  0.76229050  -0.00497336  1
  O  O222  1  0.36577852  0.75839866  0.50174887  1
  O  O223  1  0.86460307  0.24941751  0.00759620  1
  O  O224  1  0.86970708  0.25797190  0.50669189  1
  O  O225  1  0.86218058  0.75740592  0.01103197  1
  O  O226  1  0.85843197  0.76601427  0.48631744  1
  O  O227  1  0.13432837  0.24009766  0.49953422  1
  O  O228  1  0.11699660  0.24831531  0.98217275  1
  O  O229  1  0.13111732  0.74483519  0.49425585  1
  O  O230  1  0.14675996  0.74451318  1.01128664  1
  O  O231  1  0.63326171  0.24515006  0.49258263  1
  O  O232  1  0.63794972  0.24650274  0.99761376  1
  O  O233  1  0.63063242  0.74494080  0.49576075  1
  O  O234  1  0.63955362  0.75824160  1.00007218  1
  O  O235  1  0.49711299  0.24083905  0.12430654  1
  O  O236  1  0.49292677  0.24435952  0.62393811  1
  O  O237  1  0.50056593  0.73792376  0.12751368  1
  O  O238  1  0.49486665  0.74560391  0.62842136  1
  O  O239  1  0.99244376  0.24553883  0.12978787  1
  O  O240  1  0.99380543  0.24455816  0.62904385  1
  O  O241  1  0.99229210  0.74066007  0.12511280  1
  O  O242  1  0.98608538  0.73998271  0.58182761  1
  O  O243  1  -0.00628485  0.25754552  0.36491939  1
  O  O244  1  -0.00174054  0.26067578  0.87334079  1
  O  O245  1  0.01271262  0.75148347  0.37493215  1
  O  O246  1  0.00714590  0.75889533  0.92404947  1
  O  O247  1  0.50863828  0.26124184  0.37674322  1
  O  O248  1  0.50175845  0.26180849  0.87178940  1
  O  O249  1  0.51488813  0.76619642  0.38654685  1
  O  O250  1  0.50095255  0.75842858  0.86808811  1
  O  O251  1  0.24290042  0.13436170  0.49493878  1
  O  O252  1  0.25276558  0.12453615  0.99401810  1
  O  O253  1  0.23831395  0.63231741  0.49416398  1
  O  O254  1  0.25978054  0.63470482  0.99316375  1
  O  O255  1  0.74526584  0.13129099  0.49313119  1
  O  O256  1  0.74802450  0.12917945  0.98963251  1
  O  O257  1  0.73891031  0.63095005  0.49384547  1
  O  O258  1  0.75372946  0.63193141  0.99445202  1
  O  O259  1  0.25950356  0.38177243  0.00836119  1
  O  O260  1  0.24759174  0.36252019  0.50632928  1
  O  O261  1  0.25348994  0.86440243  0.00842921  1
  O  O262  1  0.25336884  0.86545807  0.49462867  1
  O  O263  1  0.75279467  0.36490725  0.00848770  1
  O  O264  1  0.75507577  0.37168318  0.50588387  1
  O  O265  1  0.76020599  0.86973096  0.00429821  1
  O  O266  1  0.75561597  0.86937825  0.49676619  1
  O  O267  1  0.12573191  0.49136310  0.23807445  1
  O  O268  1  0.12959783  0.50199956  0.73663705  1
  O  O269  1  0.11821155  0.98713731  0.25438320  1
  O  O270  1  0.14255132  1.00553043  0.74854135  1
  O  O271  1  0.63899329  0.50218874  0.25862031  1
  O  O272  1  0.62983365  0.48968835  0.74396879  1
  O  O273  1  0.63269740  1.00586695  0.23903505  1
  O  O274  1  0.63015494  0.99317024  0.74219568  1
  O  O275  1  0.37782765  0.01414551  0.26114245  1
  O  O276  1  0.36941759  0.00267664  0.75652159  1
  O  O277  1  0.37145899  0.49340374  0.25990233  1
  O  O278  1  0.37545601  0.50232978  0.76323039  1
  O  O279  1  0.86886170  0.00197280  0.25871375  1
  O  O280  1  0.85966267  -0.00753557  0.74001362  1
  O  O281  1  0.87138102  0.50535689  0.25796639  1
  O  O282  1  0.86179215  0.49636508  0.76031865  1
  O  O283  1  0.12008941  0.37960217  0.36143535  1
  O  O284  1  0.11721035  0.36591799  0.87936572  1
  O  O285  1  0.12689632  0.86784077  0.36626739  1
  O  O286  1  0.12220096  0.87737844  0.85149773  1
  O  O287  1  0.61609294  0.36536721  0.37941732  1
  O  O288  1  0.61862921  0.37122416  0.86535941  1
  O  O289  1  0.61572733  0.87075067  0.37520190  1
  O  O290  1  0.61698734  0.87492220  0.86930903  1
  O  O291  1  0.38214665  0.12118812  0.13109919  1
  O  O292  1  0.38136412  0.13066593  0.63110215  1
  O  O293  1  0.40223900  0.61458067  0.11425250  1
  O  O294  1  0.38239061  0.63653818  0.62413673  1
  O  O295  1  0.88116169  0.13594904  0.12651271  1
  O  O296  1  0.88652085  0.13833382  0.61657385  1
  O  O297  1  0.88141851  0.63365613  0.13269828  1
  O  O298  1  0.87909782  0.63138815  0.62880767  1
  O  O299  1  0.25097811  0.26264956  0.12660239  1
  O  O300  1  0.25556298  0.25680332  0.62033040  1
  O  O301  1  0.25839358  0.75142768  0.11688396  1
  O  O302  1  0.26059921  0.74281617  0.61353507  1
  O  O303  1  0.75603910  0.25149820  0.12016334  1
  O  O304  1  0.75785076  0.25419375  0.62073054  1
  O  O305  1  0.75498131  0.74753874  0.12307282  1
  O  O306  1  0.75079637  0.74720401  0.61104463  1
  O  O307  1  0.25839455  0.24309565  0.38402098  1
  O  O308  1  0.24073202  0.25397201  0.87157618  1
  O  O309  1  0.23771845  0.74096513  0.38327659  1
  O  O310  1  0.25393942  0.73736908  0.88507577  1
  O  O311  1  0.74511796  0.24765638  0.37868333  1
  O  O312  1  0.74959245  0.24058383  0.88127188  1
  O  O313  1  0.74046543  0.74590771  0.38117934  1
  O  O314  1  0.74751234  0.73878427  0.88552013  1
  O  O315  1  -0.00121990  0.10995093  0.00635984  1
  O  O316  1  0.00932026  0.12374889  0.50562053  1
  O  O317  1  -0.00958362  0.60855321  0.01215896  1
  O  O318  1  0.01528901  0.61022445  0.49090405  1
  O  O319  1  0.49872388  0.12518581  0.01093156  1
  O  O320  1  0.50513110  0.12021951  0.50301071  1
  O  O321  1  0.50435754  0.60909173  -0.00823879  1
  O  O322  1  0.51242556  0.61701960  0.50313492  1
  O  O323  1  0.50738674  0.38580940  0.49103617  1
  O  O324  1  0.49618779  0.38212743  0.99195714  1
  O  O325  1  0.49366524  0.88601314  0.49153071  1
  O  O326  1  0.49138143  0.86946134  0.99187869  1
  O  O327  1  0.99883744  0.37795738  0.49304584  1
  O  O328  1  0.99572611  0.38610731  0.99590592  1
  O  O329  1  0.99370744  0.88878948  0.49489886  1
  O  O330  1  0.98583082  0.89466705  1.01463807  1
  O  O331  1  0.50271739  0.48832062  0.38282406  1
  O  O332  1  0.49595825  0.48961866  0.87916234  1
  O  O333  1  0.49428205  0.99734648  0.37880302  1
  O  O334  1  0.49116248  0.98516240  0.86746590  1
  O  O335  1  0.99853848  0.49091431  0.38284438  1
  O  O336  1  0.99428557  0.49547726  0.88483444  1
  O  O337  1  0.99023825  1.00542658  0.38477957  1
  O  O338  1  0.99956907  0.99891609  0.88815245  1
  O  O339  1  -0.00780118  0.01230987  0.12162015  1
  O  O340  1  -0.00732506  0.01137763  0.61017452  1
  O  O341  1  0.00384621  0.50410468  0.12156750  1
  O  O342  1  0.00961189  0.49223782  0.60980442  1
  O  O343  1  0.51209379  0.00564733  0.13095891  1
  O  O344  1  0.50867740  0.00648856  0.61978654  1
  O  O345  1  0.50436890  0.49923870  0.11121402  1
  O  O346  1  0.50502711  0.50363806  0.61841487  1
  O  O347  1  0.24155491  0.37548297  0.24294552  1
  O  O348  1  0.25463661  0.37868130  0.73537710  1
  O  O349  1  0.24240429  0.87320575  0.23576446  1
  O  O350  1  0.24123046  0.88184946  0.74889274  1
  O  O351  1  0.75426076  0.38326253  0.24239081  1
  O  O352  1  0.74278879  0.38354473  0.74728305  1
  O  O353  1  0.75436433  0.88808551  0.25137616  1
  O  O354  1  0.73617993  0.88394245  0.75984478  1
  O  O355  1  0.25700692  0.13162681  0.25874937  1
  O  O356  1  0.26259781  0.11775436  0.75244927  1
  O  O357  1  0.24234367  0.62503780  0.26413379  1
  O  O358  1  0.25388514  0.62353650  0.76455616  1
  O  O359  1  0.75314626  0.11593150  0.25784770  1
  O  O360  1  0.74766990  0.11711325  0.76271655  1
  O  O361  1  0.75551358  0.61765645  0.25502623  1
  O  O362  1  0.74874900  0.61221674  0.75705054  1
  O  O363  1  0.36887254  0.12222632  0.36842090  1
  O  O364  1  0.37836963  0.11408893  0.86615698  1
  O  O365  1  0.35305700  0.61486198  0.39149240  1
  O  O366  1  0.36952861  0.61729828  0.87481117  1
  O  O367  1  0.86804999  0.11590142  0.37621680  1
  O  O368  1  0.86146725  0.12744235  0.87676950  1
  O  O369  1  0.86931119  0.62005784  0.37220556  1
  O  O370  1  0.86321907  0.61209875  0.87528980  1
  O  O371  1  0.13080114  0.38096471  0.13133398  1
  O  O372  1  0.13633565  0.38351363  0.61894041  1
  O  O373  1  0.13922635  0.86772839  0.13123314  1
  O  O374  1  0.12623734  0.87707049  0.64089658  1
  O  O375  1  0.63718420  0.36630394  0.12580802  1
  O  O376  1  0.63213171  0.37953280  0.62993113  1
  O  O377  1  0.62421190  0.88701494  0.12767155  1
  O  O378  1  0.61940891  0.88583884  0.63341366  1
  O  O379  1  0.11189169  0.25970699  0.24479770  1
  O  O380  1  0.12113590  0.24840039  0.76771845  1
  O  O381  1  0.11916148  0.75617359  0.25729535  1
  O  O382  1  0.12352000  0.75450045  0.74339270  1
  O  O383  1  0.62521127  0.24236773  0.26344463  1
  O  O384  1  0.62416465  0.26189345  0.74710817  1
  O  O385  1  0.62681676  0.74765574  0.26100785  1
  O  O386  1  0.62097886  0.75859496  0.75143406  1
  O  O387  1  0.37944701  0.23898434  0.24582137  1
  O  O388  1  0.37653301  0.23967317  0.73960162  1
  O  O389  1  0.37993874  0.74177409  0.29744506  1
  O  O390  1  0.38085750  0.75182942  0.73998435  1
  O  O391  1  0.88630886  0.24795587  0.24341978  1
  O  O392  1  0.87650331  0.25581793  0.73809700  1
  O  O393  1  0.88106549  0.74670566  0.24611463  1
  O  O394  1  0.87620568  0.75147109  0.75121712  1
  O  O395  1  0.38848365  0.50224388  0.49992147  1
  O  O396  1  0.38534208  0.48925694  0.98827569  1
  O  O397  1  0.38070281  1.00052352  0.49365552  1
  O  O398  1  0.37121584  0.98443113  0.98633750  1
  O  O399  1  0.88434293  0.49575341  0.49598503  1
  O  O400  1  0.87935130  0.49648759  0.99377799  1
  O  O401  1  0.87795870  0.99681665  0.49308479  1
  O  O402  1  0.87212736  0.98771061  1.00588604  1
  O  O403  1  0.11400485  -0.00248714  -0.00524310  1
  O  O404  1  0.11578739  0.01365581  0.49444129  1
  O  O405  1  0.11591832  0.49594579  0.01375646  1
  O  O406  1  0.12102226  0.50593511  0.50552925  1
  O  O407  1  0.63014799  -0.00129934  0.01753312  1
  O  O408  1  0.62071821  0.00568232  0.50721366  1
  O  O409  1  0.61350945  0.49392958  -0.00590838  1
  O  O410  1  0.62107582  0.50904362  0.50530612  1
  O  O411  1  0.36713264  0.37496511  0.11601568  1
  O  O412  1  0.36956292  0.36411975  0.62644322  1
  O  O413  1  0.36368761  0.87890759  0.11763561  1
  O  O414  1  0.38371701  0.86339806  0.61689052  1
  O  O415  1  0.86968162  0.36079741  0.12521340  1
  O  O416  1  0.87088047  0.37169464  0.61997244  1
  O  O417  1  0.87121318  0.86179620  0.12200899  1
  O  O418  1  0.87713475  0.87492919  0.61018091  1
  O  O419  1  0.13774337  0.12495878  0.38078790  1
  O  O420  1  0.12867838  0.13867677  0.87907051  1
  O  O421  1  0.13160447  0.63108746  0.38100700  1
  O  O422  1  0.14217085  0.61711731  0.88040483  1
  O  O423  1  0.62923798  0.13170840  0.38138178  1
  O  O424  1  0.63207636  0.12570287  0.87653290  1
  O  O425  1  0.62786144  0.63427053  0.38204607  1
  O  O426  1  0.63707301  0.62381828  0.87028695  1
