# generated using pymatgen
data_V85Zn86O256
_symmetry_space_group_name_H-M   'P 1'
_cell_length_a   16.98091883
_cell_length_b   17.01208865
_cell_length_c   16.98798696
_cell_angle_alpha   89.95271026
_cell_angle_beta   90.09442473
_cell_angle_gamma   90.00055379
_symmetry_Int_Tables_number   1
_chemical_formula_structural   V85Zn86O256
_chemical_formula_sum   'V85 Zn86 O256'
_cell_volume   4907.49656524
_cell_formula_units_Z   1
loop_
 _symmetry_equiv_pos_site_id
 _symmetry_equiv_pos_as_xyz
  1  'x, y, z'
loop_
 _atom_site_type_symbol
 _atom_site_label
 _atom_site_symmetry_multiplicity
 _atom_site_fract_x
 _atom_site_fract_y
 _atom_site_fract_z
 _atom_site_occupancy
  V  V0  1  0.11419972  0.12446101  0.00109779  1
  V  V1  1  0.37377705  0.62037683  0.24874329  1
  V  V2  1  -0.00016805  0.61558051  0.11903751  1
  V  V3  1  0.00426418  0.37237381  0.36762239  1
  V  V4  1  0.25347392  0.12270405  0.87968366  1
  V  V5  1  0.74902368  0.37136766  0.12604225  1
  V  V6  1  0.62028629  0.49720240  0.12840963  1
  V  V7  1  0.62600865  0.12494058  0.49766717  1
  V  V8  1  0.61982712  0.25135214  0.37279472  1
  V  V9  1  0.50130736  0.37521254  0.37638905  1
  V  V10  1  0.62975293  0.87213440  0.77081544  1
  V  V11  1  0.49977304  -0.00693776  -0.00204320  1
  V  V12  1  0.00903138  0.25210783  0.74861370  1
  V  V13  1  0.11992179  -0.00193743  0.12929049  1
  V  V14  1  0.24628528  0.87432212  0.62697182  1
  V  V15  1  0.37197044  0.74867374  0.12168520  1
  V  V16  1  0.56429666  0.31512864  0.20872083  1
  V  V17  1  0.74961655  0.25257506  0.49743238  1
  V  V18  1  0.87568427  0.37774718  0.49861543  1
  V  V19  1  0.62352927  0.62665727  0.50235089  1
  V  V20  1  0.87584202  0.37343574  0.00135484  1
  V  V21  1  0.37221859  0.26260129  0.61722115  1
  V  V22  1  0.87525691  0.50097504  0.37301666  1
  V  V23  1  0.62041178  0.12290943  -0.00664188  1
  V  V24  1  0.11994251  0.24525615  0.37645226  1
  V  V25  1  0.62349271  0.62416354  -0.00774980  1
  V  V26  1  0.75686649  0.74970166  0.50730888  1
  V  V27  1  0.50256992  0.24762136  0.74769038  1
  V  V28  1  0.25011134  -0.00271156  0.25089910  1
  V  V29  1  0.75463235  0.50556378  0.74868152  1
  V  V30  1  0.49946882  0.12245483  0.62267502  1
  V  V31  1  0.62791814  0.87438326  0.23854290  1
  V  V32  1  0.32106944  0.44510665  0.43135538  1
  V  V33  1  0.74823171  0.63076843  0.87472892  1
  V  V34  1  0.00502811  0.37609391  0.87187490  1
  V  V35  1  0.00073493  0.13110038  0.14981298  1
  V  V36  1  0.40408917  0.85473933  0.53552429  1
  V  V37  1  0.62952310  -0.00293409  0.62415969  1
  V  V38  1  0.75456246  0.00230764  0.24902655  1
  V  V39  1  0.49320626  0.37712985  0.86851738  1
  V  V40  1  0.37282521  0.36390212  0.00603267  1
  V  V41  1  0.50363851  -0.00141199  0.49504386  1
  V  V42  1  0.87882235  0.24571122  0.13764750  1
  V  V43  1  0.25063359  0.12383567  0.38526020  1
  V  V44  1  0.87568245  0.25458916  0.62167043  1
  V  V45  1  0.75247144  0.12612708  0.37228256  1
  V  V46  1  0.61419077  0.50020617  0.62245777  1
  V  V47  1  0.00909314  0.50121803  0.49817924  1
  V  V48  1  0.49846294  0.87397570  0.36471565  1
  V  V49  1  0.25275720  -0.00308244  0.75386262  1
  V  V50  1  0.23316312  0.74411238  0.00112323  1
  V  V51  1  -0.01667962  0.74401282  0.74710655  1
  V  V52  1  0.74921733  0.37819117  0.62185807  1
  V  V53  1  0.87670319  0.87530282  0.50758292  1
  V  V54  1  0.25352315  0.62785315  0.37783872  1
  V  V55  1  0.75575179  0.00473137  0.74719159  1
  V  V56  1  0.24250372  0.87258038  0.12898966  1
  V  V57  1  0.12662124  0.00611648  0.62289724  1
  V  V58  1  0.11453161  0.74489113  0.87546721  1
  V  V59  1  0.62771444  0.00229079  0.12160614  1
  V  V60  1  0.12938547  0.62906317  0.51134550  1
  V  V61  1  0.75091560  0.62614752  0.37210314  1
  V  V62  1  0.87131718  0.50080065  0.87421768  1
  V  V63  1  0.48941558  0.49707254  -0.00747925  1
  V  V64  1  0.87010239  0.13238946  0.74830561  1
  V  V65  1  0.63506637  0.24874314  0.87060557  1
  V  V66  1  0.37908907  0.13523411  0.24460651  1
  V  V67  1  -0.00491803  0.75438507  0.24480824  1
  V  V68  1  0.09336156  0.89230474  0.76818365  1
  V  V69  1  0.62765722  0.75105062  0.36936781  1
  V  V70  1  0.74738795  0.49622183  0.24889517  1
  V  V71  1  0.37690855  0.12074479  0.74704916  1
  V  V72  1  0.76384036  0.74464841  0.01642517  1
  V  V73  1  0.37688427  -0.00467479  0.37261699  1
  V  V74  1  0.00248869  0.12619413  0.62362193  1
  V  V75  1  0.00466113  0.00460830  0.50014630  1
  V  V76  1  0.80526592  0.07861873  0.92173248  1
  V  V77  1  0.49962654  0.50411860  0.49108370  1
  V  V78  1  0.24405671  0.61331931  0.87735137  1
  V  V79  1  0.62324061  0.37649578  0.74804650  1
  V  V80  1  0.12419613  0.75739522  0.37388990  1
  V  V81  1  0.87754954  0.00477400  0.37306258  1
  V  V82  1  0.49494801  0.62265050  0.12279610  1
  V  V83  1  0.23995604  0.49860343  0.24029395  1
  V  V84  1  -0.02098472  0.62844532  0.62331042  1
  Zn  Zn85  1  0.87262861  0.63145413  0.24492828  1
  Zn  Zn86  1  0.50131553  0.75031142  0.23965067  1
  Zn  Zn87  1  0.11627947  0.36877387  0.24379568  1
  Zn  Zn88  1  0.36540387  0.87512357  -0.00478460  1
  Zn  Zn89  1  0.15687358  0.37973719  0.74535371  1
  Zn  Zn90  1  0.19000272  0.54754467  0.69643960  1
  Zn  Zn91  1  0.00950874  0.49699798  0.00206597  1
  Zn  Zn92  1  0.75396434  0.24855302  -0.00318913  1
  Zn  Zn93  1  0.38318974  -0.00790549  0.87299450  1
  Zn  Zn94  1  0.00414904  0.87692711  0.37644008  1
  Zn  Zn95  1  0.49863369  0.13629501  0.12758630  1
  Zn  Zn96  1  0.25759409  0.23908596  0.01430773  1
  Zn  Zn97  1  0.46497706  0.81006860  0.83441263  1
  Zn  Zn98  1  0.25255374  0.25902935  0.50007028  1
  Zn  Zn99  1  0.77900362  0.85837534  0.13270996  1
  Zn  Zn100  1  0.45906737  0.71552584  0.67285379  1
  Zn  Zn101  1  0.24179675  0.36783383  0.12586105  1
  Zn  Zn102  1  0.25422393  0.75555285  0.50269554  1
  Zn  Zn103  1  0.75538203  0.86589305  0.63173980  1
  Zn  Zn104  1  0.13015630  0.24943941  0.87652481  1
  Zn  Zn105  1  0.35768992  0.63172978  0.74751460  1
  Zn  Zn106  1  0.95130662  0.91396500  -0.09026865  1
  Zn  Zn107  1  0.19229238  0.18907984  0.19126087  1
  Zn  Zn108  1  0.19330620  0.18713225  0.68353313  1
  Zn  Zn109  1  0.18168326  0.68859756  0.19359576  1
  Zn  Zn110  1  0.17980658  0.70740275  0.69477556  1
  Zn  Zn111  1  0.69663332  0.17944322  0.18083048  1
  Zn  Zn112  1  0.68827387  0.18779229  0.68320537  1
  Zn  Zn113  1  0.68477220  0.68272632  0.18294846  1
  Zn  Zn114  1  0.63846419  0.66541492  0.71994237  1
  Zn  Zn115  1  0.30484062  0.30786639  0.30818182  1
  Zn  Zn116  1  0.31704608  0.30191862  0.81488672  1
  Zn  Zn117  1  0.31157005  0.80999171  0.30798747  1
  Zn  Zn118  1  0.30256565  0.81046045  0.81482536  1
  Zn  Zn119  1  0.81062248  0.31549802  0.31242081  1
  Zn  Zn120  1  0.81497532  0.31850362  0.80778073  1
  Zn  Zn121  1  0.81613482  0.81789628  0.31961424  1
  Zn  Zn122  1  0.81260151  0.80532441  0.80907966  1
  Zn  Zn123  1  0.18631920  0.43728496  0.56269815  1
  Zn  Zn124  1  0.18749793  0.42913810  0.93413092  1
  Zn  Zn125  1  0.19171526  0.93730734  0.44294550  1
  Zn  Zn126  1  0.13825139  0.91543641  0.96528138  1
  Zn  Zn127  1  0.68340702  0.43603846  0.43127747  1
  Zn  Zn128  1  0.68451752  0.43790797  0.93795229  1
  Zn  Zn129  1  0.68963334  0.93428306  0.43385486  1
  Zn  Zn130  1  0.74727900  0.90631799  0.92050398  1
  Zn  Zn131  1  0.31314940  0.06075120  0.06562141  1
  Zn  Zn132  1  0.32038313  0.04987947  0.56202667  1
  Zn  Zn133  1  0.17409862  0.56074010  0.06339368  1
  Zn  Zn134  1  0.32507189  0.58093987  0.56936910  1
  Zn  Zn135  1  0.84933588  0.02291827  0.09097013  1
  Zn  Zn136  1  0.81568181  0.06402388  0.56072450  1
  Zn  Zn137  1  0.81802412  0.56188356  0.06441233  1
  Zn  Zn138  1  0.80868369  0.55967619  0.55918557  1
  Zn  Zn139  1  0.42698976  0.44339194  0.18447932  1
  Zn  Zn140  1  0.33989219  0.44474432  0.69862770  1
  Zn  Zn141  1  0.43621780  0.93866724  0.18012785  1
  Zn  Zn142  1  0.44802136  0.93084348  0.69154575  1
  Zn  Zn143  1  0.93468668  0.44058767  0.18675675  1
  Zn  Zn144  1  1.02334163  0.43953614  0.68187580  1
  Zn  Zn145  1  0.94663189  0.93453190  0.19583896  1
  Zn  Zn146  1  0.93628965  0.94280718  0.69529088  1
  Zn  Zn147  1  0.06948874  0.06301270  0.31658416  1
  Zn  Zn148  1  0.06167852  0.06401570  0.81434480  1
  Zn  Zn149  1  0.06368042  0.57131894  0.31443178  1
  Zn  Zn150  1  0.05572788  0.56431946  0.81638669  1
  Zn  Zn151  1  0.56317344  0.06349226  0.30799580  1
  Zn  Zn152  1  0.56665741  0.05836367  0.81397013  1
  Zn  Zn153  1  0.56272106  0.56325769  0.31070965  1
  Zn  Zn154  1  0.50605655  0.54520404  0.77652143  1
  Zn  Zn155  1  0.43609324  0.18660605  0.43412501  1
  Zn  Zn156  1  0.44217448  0.18545315  0.93335026  1
  Zn  Zn157  1  0.44036019  0.68968477  0.43241676  1
  Zn  Zn158  1  0.42436899  0.67941442  0.94032818  1
  Zn  Zn159  1  0.93898698  0.18553773  0.43607386  1
  Zn  Zn160  1  0.94441606  0.19741750  0.94212643  1
  Zn  Zn161  1  0.93823158  0.68821432  0.43617900  1
  Zn  Zn162  1  0.93553695  0.68341412  0.93631895  1
  Zn  Zn163  1  0.06779377  0.31079164  0.06400909  1
  Zn  Zn164  1  0.06425382  0.30766770  0.55517408  1
  Zn  Zn165  1  0.04405786  0.81646639  0.06302083  1
  Zn  Zn166  1  0.06240993  0.81571282  0.56717196  1
  Zn  Zn167  1  0.56452833  0.31079447  0.04550114  1
  Zn  Zn168  1  0.55661996  0.31475676  0.55961332  1
  Zn  Zn169  1  0.54623290  0.78998532  0.01758264  1
  Zn  Zn170  1  0.57833120  0.81679891  0.55781053  1
  O  O171  1  0.11435176  0.12456000  0.12143258  1
  O  O172  1  0.11943962  0.11407811  0.63078021  1
  O  O173  1  0.10835051  0.62748984  0.13139919  1
  O  O174  1  0.13227875  0.62845484  0.61663022  1
  O  O175  1  0.62409093  0.12125411  0.11158057  1
  O  O176  1  0.62046591  0.11659202  0.61809489  1
  O  O177  1  0.61426864  0.61252702  0.12123212  1
  O  O178  1  0.63293868  0.61453083  0.60669939  1
  O  O179  1  0.37768767  0.37945606  0.37494396  1
  O  O180  1  0.39062506  0.36480142  0.88184342  1
  O  O181  1  0.39039484  0.87809392  0.36140733  1
  O  O182  1  0.37361326  0.87662305  0.88015209  1
  O  O183  1  0.87922640  0.38033575  0.38195753  1
  O  O184  1  0.87817216  0.38218640  0.88196307  1
  O  O185  1  0.87905834  0.89000556  0.38671200  1
  O  O186  1  0.85109304  0.88036745  0.88125576  1
  O  O187  1  0.25617788  0.00082295  0.36903065  1
  O  O188  1  0.25492201  0.01021545  0.86047743  1
  O  O189  1  0.26369331  0.50811579  0.37362250  1
  O  O190  1  0.23820520  0.51559262  0.87459977  1
  O  O191  1  0.75739897  0.00436056  0.36926171  1
  O  O192  1  0.74559685  0.01503661  0.86569173  1
  O  O193  1  0.75189183  0.50435035  0.36594455  1
  O  O194  1  0.75281040  0.50293998  0.86921249  1
  O  O195  1  0.24488087  0.50178881  0.13892215  1
  O  O196  1  0.26147045  0.50013025  0.62285323  1
  O  O197  1  0.24452314  0.99262258  0.13338411  1
  O  O198  1  0.24233050  0.99862486  0.63311360  1
  O  O199  1  0.74141748  0.49310773  0.13028187  1
  O  O200  1  0.74139202  0.49666776  0.63029439  1
  O  O201  1  0.73783759  1.00905664  0.13486247  1
  O  O202  1  0.74417978  1.00591971  0.63179467  1
  O  O203  1  -0.00596647  0.38044600  0.26506734  1
  O  O204  1  -0.01153809  0.36351530  0.76079602  1
  O  O205  1  0.00386814  0.85968412  0.25823240  1
  O  O206  1  -0.00374341  0.84999010  0.72476560  1
  O  O207  1  0.49466420  0.37934494  0.25770277  1
  O  O208  1  0.50867601  0.36353622  0.75609872  1
  O  O209  1  0.50909300  0.87405780  0.24908787  1
  O  O210  1  0.52269674  0.88444249  0.76368734  1
  O  O211  1  0.48462839  0.12058219  0.24884556  1
  O  O212  1  0.49627695  0.12638924  0.74442389  1
  O  O213  1  0.49058117  0.62665407  0.24418947  1
  O  O214  1  0.52984726  0.64675272  0.73374720  1
  O  O215  1  1.00394288  0.13222505  0.24779454  1
  O  O216  1  0.98919352  0.13454011  0.74717918  1
  O  O217  1  0.99724918  0.63635370  0.24603100  1
  O  O218  1  0.99950600  0.63216813  0.73204901  1
  O  O219  1  0.38179940  0.26062698  -0.00158808  1
  O  O220  1  0.37644673  0.24589600  0.51316192  1
  O  O221  1  0.35384638  0.74692666  0.01295698  1
  O  O222  1  0.37506127  0.76716858  0.48952491  1
  O  O223  1  0.87353196  0.26059724  0.00676783  1
  O  O224  1  0.86966833  0.25700909  0.50132092  1
  O  O225  1  0.86232091  0.74211678  0.00138438  1
  O  O226  1  0.86888286  0.76251174  0.49055113  1
  O  O227  1  0.13474688  0.25492024  0.48407017  1
  O  O228  1  0.12964767  0.23404692  0.99760427  1
  O  O229  1  0.12515502  0.74449629  0.49267309  1
  O  O230  1  0.12078345  0.75759602  0.98802446  1
  O  O231  1  0.62888322  0.24582928  0.49133224  1
  O  O232  1  0.63152547  0.24068188  0.98844736  1
  O  O233  1  0.63273786  0.74326676  0.49027297  1
  O  O234  1  0.64059977  0.72596056  1.01728831  1
  O  O235  1  0.51516139  0.25692321  0.13619014  1
  O  O236  1  0.49414047  0.24171850  0.62737887  1
  O  O237  1  0.48714162  0.74336061  0.11706819  1
  O  O238  1  0.47846657  0.80953216  0.60962202  1
  O  O239  1  0.99406478  0.23623436  0.12215899  1
  O  O240  1  0.99536038  0.24520640  0.62844823  1
  O  O241  1  1.00245958  0.74572763  0.14085470  1
  O  O242  1  1.00473597  0.73292143  0.62806557  1
  O  O243  1  0.01045730  0.25623153  0.38244082  1
  O  O244  1  0.00420332  0.25703652  0.86433920  1
  O  O245  1  0.01184030  0.74946900  0.37109958  1
  O  O246  1  -0.00254994  0.74101490  0.85760699  1
  O  O247  1  0.51078909  0.25706289  0.37688789  1
  O  O248  1  0.51206895  0.25407533  0.86650369  1
  O  O249  1  0.50915762  0.75903194  0.36629296  1
  O  O250  1  0.50680359  0.74974252  0.91760802  1
  O  O251  1  0.26207414  0.11528297  0.48607597  1
  O  O252  1  0.24791554  0.12257211  0.99244919  1
  O  O253  1  0.24637195  0.63295214  0.49299348  1
  O  O254  1  0.23367760  0.63669369  0.99173036  1
  O  O255  1  0.74420960  0.13183739  0.49356561  1
  O  O256  1  0.74496000  0.12647298  0.99056660  1
  O  O257  1  0.74462570  0.63070505  0.49012847  1
  O  O258  1  0.74574462  0.62581573  0.99765064  1
  O  O259  1  0.26764462  0.36736711  -0.00921410  1
  O  O260  1  0.25924069  0.38594252  0.48669382  1
  O  O261  1  0.24059581  0.86411903  0.01358424  1
  O  O262  1  0.25814460  0.87634342  0.51411021  1
  O  O263  1  0.75714535  0.37403162  0.00819107  1
  O  O264  1  0.75405130  0.37214159  0.50064399  1
  O  O265  1  0.73994632  0.84643980  0.01618696  1
  O  O266  1  0.75792676  0.86618615  0.49774414  1
  O  O267  1  0.14063516  0.50099752  0.26388350  1
  O  O268  1  0.10761616  0.49060304  0.74670599  1
  O  O269  1  0.14152768  1.00766139  0.24469095  1
  O  O270  1  0.13683067  0.99897516  0.74376711  1
  O  O271  1  0.63026120  0.50285611  0.23693470  1
  O  O272  1  0.62251000  0.49283948  0.73556935  1
  O  O273  1  0.63340166  0.99432466  0.24506995  1
  O  O274  1  0.63692618  0.99766719  0.74297461  1
  O  O275  1  0.36562340  0.00279197  0.25310942  1
  O  O276  1  0.37335230  0.00838358  0.74955067  1
  O  O277  1  0.36320914  0.51513175  0.24730612  1
  O  O278  1  0.39906859  0.52290364  0.74853306  1
  O  O279  1  0.86785819  -0.00253629  0.26275149  1
  O  O280  1  0.86328670  0.01477357  0.74623084  1
  O  O281  1  0.86456909  0.50268573  0.25708246  1
  O  O282  1  0.85590019  0.49682778  0.75898835  1
  O  O283  1  0.11345306  0.36199705  0.36823836  1
  O  O284  1  0.11701712  0.36728434  0.86501200  1
  O  O285  1  0.12637262  0.85994702  0.38414808  1
  O  O286  1  0.13137719  0.86527962  0.86159714  1
  O  O287  1  0.61521590  0.36453724  0.36935492  1
  O  O288  1  0.61872482  0.36621379  0.87005100  1
  O  O289  1  0.61805341  0.87271407  0.36135000  1
  O  O290  1  0.64381029  0.87999826  0.86880181  1
  O  O291  1  0.37707500  0.12206793  0.14059949  1
  O  O292  1  0.38401635  0.12154516  0.63038892  1
  O  O293  1  0.38125567  0.63216571  0.13326954  1
  O  O294  1  0.37305263  0.65352514  0.63380466  1
  O  O295  1  0.89481186  0.12739169  0.12410293  1
  O  O296  1  0.88093756  0.13414391  0.63084256  1
  O  O297  1  0.89129200  0.62111373  0.13062374  1
  O  O298  1  0.88141136  0.62983484  0.61467187  1
  O  O299  1  0.25367103  0.25358947  0.12649732  1
  O  O300  1  0.26603908  0.24672753  0.61845793  1
  O  O301  1  0.24706969  0.75471480  0.12305474  1
  O  O302  1  0.24085393  0.77112446  0.62438272  1
  O  O303  1  0.75924005  0.25440038  0.12085641  1
  O  O304  1  0.75379718  0.25708325  0.61574549  1
  O  O305  1  0.76182366  0.74131154  0.12268497  1
  O  O306  1  0.74702386  0.75011606  0.60626163  1
  O  O307  1  0.24650853  0.23993318  0.38175511  1
  O  O308  1  0.24940672  0.23182819  0.87608976  1
  O  O309  1  0.23953047  0.74524232  0.37453760  1
  O  O310  1  0.23303957  0.74541875  0.88525102  1
  O  O311  1  0.74091454  0.24784887  0.37861741  1
  O  O312  1  0.73849829  0.25741602  0.87146988  1
  O  O313  1  0.74474258  0.74499598  0.37743592  1
  O  O314  1  0.75365833  0.73275775  0.88476485  1
  O  O315  1  0.01323944  0.12241970  -0.00249601  1
  O  O316  1  -0.00465939  0.11221070  0.50760675  1
  O  O317  1  -0.00358911  0.62355301  0.01532911  1
  O  O318  1  0.00775167  0.62272329  0.50761313  1
  O  O319  1  0.50675652  0.12029304  0.00611306  1
  O  O320  1  0.50687090  0.11747767  0.50131964  1
  O  O321  1  0.50532399  0.61130766  0.00411706  1
  O  O322  1  0.51073753  0.61822243  0.48863513  1
  O  O323  1  0.50252042  0.38408454  0.48388222  1
  O  O324  1  0.49420741  0.37793161  0.98951678  1
  O  O325  1  0.50558362  0.88039312  0.48220622  1
  O  O326  1  0.49821691  0.89286736  1.01260381  1
  O  O327  1  0.99489737  0.38548294  0.49124575  1
  O  O328  1  0.99321750  0.36952886  0.98587059  1
  O  O329  1  0.99440869  0.88615471  0.50099072  1
  O  O330  1  1.02500447  0.89627115  0.98945295  1
  O  O331  1  0.50595811  0.49209867  0.38205229  1
  O  O332  1  0.51233100  0.48533873  0.88055676  1
  O  O333  1  0.49828347  0.99215713  0.37549444  1
  O  O334  1  0.50179808  1.00556824  0.89344357  1
  O  O335  1  0.99658356  0.49657697  0.38229914  1
  O  O336  1  0.98733741  0.49162263  0.87524055  1
  O  O337  1  0.99644578  1.00104652  0.38253895  1
  O  O338  1  1.01310649  0.96164046  0.81637850  1
  O  O339  1  0.01341776  0.01664209  0.14103264  1
  O  O340  1  0.00699923  0.00687583  0.62101299  1
  O  O341  1  -0.00005234  0.51100873  0.12466595  1
  O  O342  1  -0.00918481  0.51752223  0.60921911  1
  O  O343  1  0.51320078  0.00570614  0.12044085  1
  O  O344  1  0.51178128  0.00274455  0.61809870  1
  O  O345  1  0.50427137  0.50145925  0.11706427  1
  O  O346  1  0.51326485  0.49557206  0.60305705  1
  O  O347  1  0.25437942  0.39291765  0.25116093  1
  O  O348  1  0.26706962  0.37554915  0.75036173  1
  O  O349  1  0.25220402  0.88114985  0.23798056  1
  O  O350  1  0.24523181  0.88628923  0.74461032  1
  O  O351  1  0.75233235  0.38857781  0.24347216  1
  O  O352  1  0.74193217  0.38365840  0.74168143  1
  O  O353  1  0.74669908  0.88396421  0.24832400  1
  O  O354  1  0.74792626  0.88995573  0.74687791  1
  O  O355  1  0.26186194  0.11585707  0.26138981  1
  O  O356  1  0.26023513  0.11870222  0.75320513  1
  O  O357  1  0.25196769  0.61622678  0.25806095  1
  O  O358  1  0.23742626  0.63128710  0.76294798  1
  O  O359  1  0.74616692  0.11075632  0.25841009  1
  O  O360  1  0.76250395  0.12444831  0.74519692  1
  O  O361  1  0.75003387  0.61392966  0.25407488  1
  O  O362  1  0.73424998  0.61550575  0.76214555  1
  O  O363  1  0.37253846  0.11354512  0.36816510  1
  O  O364  1  0.37077910  0.12170360  0.86521242  1
  O  O365  1  0.36115178  0.63844116  0.36483213  1
  O  O366  1  0.34653037  0.62659836  0.87860231  1
  O  O367  1  0.86772539  0.11381955  0.38167925  1
  O  O368  1  0.87009723  0.14034105  0.86747638  1
  O  O369  1  0.86656233  0.61786768  0.37433068  1
  O  O370  1  0.86512555  0.60731934  0.88135625  1
  O  O371  1  0.12620540  0.37388692  0.13238383  1
  O  O372  1  0.11298914  0.37974864  0.62885274  1
  O  O373  1  0.12798549  0.88867975  0.12582981  1
  O  O374  1  0.12663445  0.89008565  0.63690196  1
  O  O375  1  0.62412311  0.37508878  0.13247222  1
  O  O376  1  0.62965839  0.38161309  0.62477845  1
  O  O377  1  0.62914506  0.88548986  0.13613319  1
  O  O378  1  0.63577240  0.89070407  0.62504686  1
  O  O379  1  0.13411404  0.25004023  0.27123370  1
  O  O380  1  0.11534889  0.24878326  0.74663629  1
  O  O381  1  0.11454236  0.74536569  0.26806356  1
  O  O382  1  0.10726831  0.76463254  0.76014043  1
  O  O383  1  0.63113329  0.24779344  0.25645247  1
  O  O384  1  0.62257098  0.25374920  0.75242570  1
  O  O385  1  0.62531950  0.75813323  0.25000191  1
  O  O386  1  0.64364681  0.77673443  0.74693649  1
  O  O387  1  0.37455786  0.23314996  0.25808927  1
  O  O388  1  0.38252900  0.23498141  0.73756826  1
  O  O389  1  0.37264434  0.74070955  0.23648468  1
  O  O390  1  0.38816968  0.75053345  0.76723810  1
  O  O391  1  0.86936469  0.25272383  0.23676426  1
  O  O392  1  0.88105510  0.24738246  0.74126675  1
  O  O393  1  0.89133415  0.75046431  0.26173744  1
  O  O394  1  0.88388284  0.74498977  0.74492289  1
  O  O395  1  0.38140292  0.50494833  0.49287174  1
  O  O396  1  0.39007263  0.48395908  0.99384923  1
  O  O397  1  0.38977099  0.97989836  0.49515989  1
  O  O398  1  0.38931636  1.00063598  1.00250034  1
  O  O399  1  0.88057613  0.49546681  0.49103492  1
  O  O400  1  0.87805387  0.48567884  0.99521226  1
  O  O401  1  0.88274654  0.99596768  0.49431841  1
  O  O402  1  0.86784437  1.02211606  0.97508749  1
  O  O403  1  0.13668014  0.01811975  0.01866433  1
  O  O404  1  0.11649952  -0.00407061  0.50980781  1
  O  O405  1  0.12111788  0.49334867  -0.00553419  1
  O  O406  1  0.11516761  0.51113681  0.50042653  1
  O  O407  1  0.61564009  0.00844157  0.00772953  1
  O  O408  1  0.62435596  0.00439031  0.50446461  1
  O  O409  1  0.61910271  0.50160085  0.01317779  1
  O  O410  1  0.62033593  0.50803499  0.49874502  1
  O  O411  1  0.37215140  0.37844077  0.10757124  1
  O  O412  1  0.38450635  0.35916339  0.62407823  1
  O  O413  1  0.36351946  0.86595555  0.12055970  1
  O  O414  1  0.35886640  0.89397978  0.62753851  1
  O  O415  1  0.87287548  0.36706885  0.11836493  1
  O  O416  1  0.86618440  0.36953404  0.61211171  1
  O  O417  1  0.87367279  0.91456577  0.11551688  1
  O  O418  1  0.87083704  0.88688337  0.61100496  1
  O  O419  1  0.13573320  0.13421802  0.37703952  1
  O  O420  1  0.13152601  0.12102548  0.88630180  1
  O  O421  1  0.13547045  0.63384824  0.38720234  1
  O  O422  1  0.12444315  0.63865092  0.87083331  1
  O  O423  1  0.62965232  0.13237888  0.37852685  1
  O  O424  1  0.62049942  0.13333346  0.88478963  1
  O  O425  1  0.63250462  0.62999659  0.38002729  1
  O  O426  1  0.63580133  0.61260346  0.89124090  1
