# generated using pymatgen
data_V85Zn86O256
_symmetry_space_group_name_H-M   'P 1'
_cell_length_a   16.94738711
_cell_length_b   16.95147177
_cell_length_c   16.93754401
_cell_angle_alpha   90.05401683
_cell_angle_beta   90.03145181
_cell_angle_gamma   89.98283190
_symmetry_Int_Tables_number   1
_chemical_formula_structural   V85Zn86O256
_chemical_formula_sum   'V85 Zn86 O256'
_cell_volume   4865.86795407
_cell_formula_units_Z   1
loop_
 _symmetry_equiv_pos_site_id
 _symmetry_equiv_pos_as_xyz
  1  'x, y, z'
loop_
 _atom_site_type_symbol
 _atom_site_label
 _atom_site_symmetry_multiplicity
 _atom_site_fract_x
 _atom_site_fract_y
 _atom_site_fract_z
 _atom_site_occupancy
  V  V0  1  0.00067053  0.50079522  -0.00454949  1
  V  V1  1  0.37697287  0.00292854  0.88324847  1
  V  V2  1  0.87734423  0.00079708  0.38442459  1
  V  V3  1  0.74988657  0.37384637  0.11970129  1
  V  V4  1  0.87237034  0.88620058  0.00067501  1
  V  V5  1  0.37138063  0.87406174  0.50333136  1
  V  V6  1  0.00170020  0.48897342  0.49942264  1
  V  V7  1  0.49809476  0.87409774  0.37615545  1
  V  V8  1  0.74908151  0.86949027  0.12436759  1
  V  V9  1  0.87703154  0.86923020  0.50646551  1
  V  V10  1  0.62519932  0.75116927  0.88480204  1
  V  V11  1  0.49937606  0.24602709  0.24342640  1
  V  V12  1  0.75084986  -0.00050206  0.25457763  1
  V  V13  1  0.37208664  0.24897608  0.61613195  1
  V  V14  1  0.25035221  -0.00976011  0.74907895  1
  V  V15  1  0.74990379  0.38642900  0.61459731  1
  V  V16  1  0.87492122  0.37733595  -0.00488415  1
  V  V17  1  0.86595315  0.63396085  0.74391859  1
  V  V18  1  0.75363657  0.23917882  -0.00736364  1
  V  V19  1  0.49744756  0.37275427  0.87464127  1
  V  V20  1  0.74918762  0.49869080  0.24765296  1
  V  V21  1  0.49796234  0.62349315  0.12343671  1
  V  V22  1  0.88038574  0.25200259  0.12850602  1
  V  V23  1  0.24860910  0.49922724  0.25512585  1
  V  V24  1  0.62643703  0.25108240  0.38066739  1
  V  V25  1  0.37820011  0.87443591  0.00550989  1
  V  V26  1  0.37374678  0.00205001  0.37581402  1
  V  V27  1  0.75307278  0.12893455  0.38701304  1
  V  V28  1  -0.00091564  0.75032473  0.25005976  1
  V  V29  1  0.49475834  0.74785881  0.24469569  1
  V  V30  1  0.12448483  0.87615180  0.25037968  1
  V  V31  1  0.11938759  0.36657673  0.25147482  1
  V  V32  1  0.12560836  0.25877806  0.86857957  1
  V  V33  1  0.25224076  0.87245897  0.12544881  1
  V  V34  1  0.37284497  0.50180695  0.38054986  1
  V  V35  1  0.87357088  0.62457823  0.24988629  1
  V  V36  1  0.62246076  0.12560763  0.50020174  1
  V  V37  1  0.75084187  0.63346719  0.88266829  1
  V  V38  1  0.24579920  0.37227733  0.63758151  1
  V  V39  1  0.25244830  0.73710492  0.49618611  1
  V  V40  1  -0.00292747  0.12820466  0.13012884  1
  V  V41  1  0.00007543  0.74798463  0.74821152  1
  V  V42  1  0.37780235  0.12550483  0.23960896  1
  V  V43  1  0.13000827  0.74107320  0.37307380  1
  V  V44  1  0.00171725  0.24409470  0.73367681  1
  V  V45  1  0.86689353  0.25154403  0.60673620  1
  V  V46  1  0.62305039  0.74766898  0.37548842  1
  V  V47  1  0.13109865  0.50064791  0.63632158  1
  V  V48  1  0.11603941  0.24524885  0.37727875  1
  V  V49  1  0.00895824  0.87606567  0.88726887  1
  V  V50  1  0.74794559  0.62296886  0.37481494  1
  V  V51  1  -0.00039579  0.62387665  0.12289683  1
  V  V52  1  0.63530970  0.24073192  0.86362621  1
  V  V53  1  0.61780054  0.61957370  0.51104017  1
  V  V54  1  0.12208154  0.00351244  0.12161332  1
  V  V55  1  0.24812724  0.13042364  0.88193222  1
  V  V56  1  0.00144529  0.87705415  0.37769262  1
  V  V57  1  0.36489930  0.37057013  0.49500737  1
  V  V58  1  0.12518040  0.49775173  0.12487394  1
  V  V59  1  0.37272489  0.12671770  0.74756932  1
  V  V60  1  0.75365243  0.74509381  0.50291742  1
  V  V61  1  0.07500152  0.93061763  0.69870191  1
  V  V62  1  0.37390315  0.73920303  0.63034101  1
  V  V63  1  0.62298721  0.37386954  0.24642463  1
  V  V64  1  0.63315940  0.39135891  0.74654949  1
  V  V65  1  0.24795810  0.00252693  0.24734063  1
  V  V66  1  0.62531780  0.87544282  0.25193849  1
  V  V67  1  0.49399393  0.49514421  -0.00052753  1
  V  V68  1  0.74406285  0.86944412  0.62399946  1
  V  V69  1  0.86644079  0.50300629  0.86533398  1
  V  V70  1  0.49980959  0.87940425  0.87749738  1
  V  V71  1  0.12485449  0.13525679  0.00036469  1
  V  V72  1  0.25160828  0.74432813  0.00118999  1
  V  V73  1  0.37509865  0.25172675  0.10866657  1
  V  V74  1  0.87272381  0.74823407  0.11627050  1
  V  V75  1  0.25324422  0.36995852  0.11523102  1
  V  V76  1  0.87556421  0.49198037  0.37942366  1
  V  V77  1  -0.00425810  0.62659457  0.62038938  1
  V  V78  1  0.62482338  -0.00032346  0.62648595  1
  V  V79  1  0.25000088  0.13343814  0.37948150  1
  V  V80  1  0.87781448  0.12935103  0.25466859  1
  V  V81  1  0.36904466  0.62608319  0.25104283  1
  V  V82  1  0.00131463  0.37888500  0.85835267  1
  V  V83  1  0.12433242  0.11967844  0.51396083  1
  V  V84  1  0.49776039  0.74331158  0.75288211  1
  Zn  Zn85  1  -0.00770308  0.36419954  0.37397137  1
  Zn  Zn86  1  0.50169346  0.25086964  0.74488965  1
  Zn  Zn87  1  0.37256493  0.50582201  0.86158139  1
  Zn  Zn88  1  0.62672945  0.62427313  0.00262612  1
  Zn  Zn89  1  0.25046510  0.61284768  0.85440500  1
  Zn  Zn90  1  0.49734244  -0.00045508  0.50145317  1
  Zn  Zn91  1  0.49681923  0.37411417  0.37523041  1
  Zn  Zn92  1  0.00566830  -0.00162135  0.52008964  1
  Zn  Zn93  1  0.74888098  0.02252299  0.77955238  1
  Zn  Zn94  1  0.12887087  0.61790232  0.49459271  1
  Zn  Zn95  1  0.62454100  0.49823406  0.12042308  1
  Zn  Zn96  1  0.61305907  0.11917246  -0.00089646  1
  Zn  Zn97  1  0.12570489  0.62625635  -0.00395006  1
  Zn  Zn98  1  0.49895728  0.12564807  0.62386428  1
  Zn  Zn99  1  0.49513856  0.60527002  0.64050958  1
  Zn  Zn100  1  0.61176306  0.00772410  0.12035381  1
  Zn  Zn101  1  0.86844675  0.12880363  0.76167400  1
  Zn  Zn102  1  0.13156809  0.74818386  0.86691121  1
  Zn  Zn103  1  0.24837423  0.87527439  0.62657460  1
  Zn  Zn104  1  0.50151452  0.49262020  0.50173746  1
  Zn  Zn105  1  0.62615619  0.87729400  0.75336587  1
  Zn  Zn106  1  -0.01400159  0.01373957  -0.00725382  1
  Zn  Zn107  1  0.18941928  0.18995421  0.18795769  1
  Zn  Zn108  1  0.18958023  0.19084760  0.69405231  1
  Zn  Zn109  1  0.18754411  0.68619638  0.18345570  1
  Zn  Zn110  1  0.17891423  0.69550678  0.67931506  1
  Zn  Zn111  1  0.69149889  0.18823055  0.18976704  1
  Zn  Zn112  1  0.69687550  0.18755398  0.68428317  1
  Zn  Zn113  1  0.68408509  0.68714682  0.18765077  1
  Zn  Zn114  1  0.68387101  0.69044193  0.69327642  1
  Zn  Zn115  1  0.30848789  0.31197411  0.30696618  1
  Zn  Zn116  1  0.31333503  0.31326024  0.81006927  1
  Zn  Zn117  1  0.31273350  0.81151321  0.31273187  1
  Zn  Zn118  1  0.31495537  0.80767666  0.81641773  1
  Zn  Zn119  1  0.80888623  0.31076545  0.31255245  1
  Zn  Zn120  1  0.81379195  0.31269398  0.80228217  1
  Zn  Zn121  1  0.81413282  0.81070061  0.31606499  1
  Zn  Zn122  1  0.79970041  0.83680867  0.83031434  1
  Zn  Zn123  1  0.18690455  0.43435483  0.43925702  1
  Zn  Zn124  1  0.18866739  0.43945092  0.93301483  1
  Zn  Zn125  1  0.18798033  0.93948073  0.43858919  1
  Zn  Zn126  1  0.18702119  0.94302166  0.93983457  1
  Zn  Zn127  1  0.68709189  0.43758830  0.43545496  1
  Zn  Zn128  1  0.68353779  0.43756868  0.93519764  1
  Zn  Zn129  1  0.68705024  0.93863064  0.44206220  1
  Zn  Zn130  1  0.68898992  0.94088740  0.93912060  1
  Zn  Zn131  1  0.44124799  0.06218870  0.06296310  1
  Zn  Zn132  1  0.30690510  0.06037684  0.56363969  1
  Zn  Zn133  1  0.31781743  0.55756060  0.06215374  1
  Zn  Zn134  1  0.31140233  0.56269194  0.69415854  1
  Zn  Zn135  1  0.78072022  0.06920926  0.07139593  1
  Zn  Zn136  1  0.82712714  0.04886825  0.59526480  1
  Zn  Zn137  1  0.81250483  0.56124495  0.05925061  1
  Zn  Zn138  1  0.81266516  0.55929459  0.56160154  1
  Zn  Zn139  1  0.43590241  0.43735415  0.18621249  1
  Zn  Zn140  1  0.44555028  0.43170797  0.68249723  1
  Zn  Zn141  1  0.43511636  0.93412782  0.19167995  1
  Zn  Zn142  1  0.43805634  0.93513722  0.69021238  1
  Zn  Zn143  1  0.93786369  0.43675399  0.18847964  1
  Zn  Zn144  1  0.93013131  0.44182734  0.68195733  1
  Zn  Zn145  1  0.93562353  0.94149906  0.18814196  1
  Zn  Zn146  1  0.91064677  0.92933928  0.70146989  1
  Zn  Zn147  1  0.06157639  0.06351830  0.31495994  1
  Zn  Zn148  1  0.03223226  0.08224456  0.82822055  1
  Zn  Zn149  1  0.06021144  0.55821803  0.31040991  1
  Zn  Zn150  1  0.06440466  0.56939058  0.81298413  1
  Zn  Zn151  1  0.56147495  0.06199225  0.31007856  1
  Zn  Zn152  1  0.56064831  0.06221473  0.80901278  1
  Zn  Zn153  1  0.55980780  0.55985726  0.31429639  1
  Zn  Zn154  1  0.56170406  0.56147816  0.81749930  1
  Zn  Zn155  1  0.43947269  0.18968140  0.43419578  1
  Zn  Zn156  1  0.44088248  0.19259312  0.93093199  1
  Zn  Zn157  1  0.43468045  0.68515765  0.43543799  1
  Zn  Zn158  1  0.43238931  0.68693520  0.93782920  1
  Zn  Zn159  1  0.94331183  0.18402990  0.44958224  1
  Zn  Zn160  1  0.93538172  0.19182686  0.93478777  1
  Zn  Zn161  1  0.93850198  0.68302075  0.43723806  1
  Zn  Zn162  1  0.93884457  0.69133195  0.93312637  1
  Zn  Zn163  1  0.06164499  0.31529722  0.05862820  1
  Zn  Zn164  1  0.07071770  0.31061833  0.55829530  1
  Zn  Zn165  1  0.06494361  0.81160842  0.06320728  1
  Zn  Zn166  1  0.06184219  0.80386287  0.55853789  1
  Zn  Zn167  1  0.56403208  0.30307204  0.05613229  1
  Zn  Zn168  1  0.55927868  0.31809736  0.56479881  1
  Zn  Zn169  1  0.56170283  0.81517432  0.06395871  1
  Zn  Zn170  1  0.55844773  0.80673933  0.56336096  1
  O  O171  1  0.11843362  0.12642833  0.11960102  1
  O  O172  1  0.13915053  0.12782172  0.61138629  1
  O  O173  1  0.11655617  0.61541447  0.12307990  1
  O  O174  1  0.11615597  0.61259146  0.61965606  1
  O  O175  1  0.66934741  0.11336895  0.11108869  1
  O  O176  1  0.62592619  0.11904372  0.61573422  1
  O  O177  1  0.61231244  0.62295927  0.12569515  1
  O  O178  1  0.62286293  0.62954338  0.61282401  1
  O  O179  1  0.37120830  0.37811716  0.37841089  1
  O  O180  1  0.39567418  0.36789764  0.86816628  1
  O  O181  1  0.37903197  0.88100623  0.38060874  1
  O  O182  1  0.37909311  0.88373966  0.88494570  1
  O  O183  1  0.87530381  0.38730989  0.36533588  1
  O  O184  1  0.88081728  0.38598691  0.87356340  1
  O  O185  1  0.88236860  0.87818886  0.38601873  1
  O  O186  1  0.89376586  0.86026509  0.89489945  1
  O  O187  1  0.25333355  0.00565807  0.36319887  1
  O  O188  1  0.25597233  0.00725182  0.86832730  1
  O  O189  1  0.25336748  0.49515412  0.36138500  1
  O  O190  1  0.25784184  0.49946784  0.87685418  1
  O  O191  1  0.75711604  0.00396169  0.37155754  1
  O  O192  1  0.76241078  -0.05551136  0.85757785  1
  O  O193  1  0.75694276  0.50342425  0.36824007  1
  O  O194  1  0.76237653  0.50898593  0.88004795  1
  O  O195  1  0.24714220  0.48836713  0.13212855  1
  O  O196  1  0.23651343  0.49339342  0.62637871  1
  O  O197  1  0.24038167  0.99117354  0.13919182  1
  O  O198  1  0.25425484  0.99491045  0.64291469  1
  O  O199  1  0.74932467  0.49258544  0.12948282  1
  O  O200  1  0.75159745  0.48694913  0.62398360  1
  O  O201  1  0.76333218  0.98369314  0.14725049  1
  O  O202  1  0.73177219  0.98384532  0.60689820  1
  O  O203  1  0.01523929  0.38183179  0.25314598  1
  O  O204  1  -0.00411753  0.37599068  0.75666781  1
  O  O205  1  0.00324149  0.87066391  0.25745882  1
  O  O206  1  0.00013008  0.87421104  0.75687295  1
  O  O207  1  0.51134942  0.36965834  0.24949445  1
  O  O208  1  0.51587649  0.37123341  0.75792126  1
  O  O209  1  0.50244480  0.86469714  0.25721701  1
  O  O210  1  0.49958667  0.86723240  0.76360090  1
  O  O211  1  0.49029255  0.13446735  0.25432630  1
  O  O212  1  0.48373464  0.12544488  0.74784826  1
  O  O213  1  0.49401962  0.63044280  0.24555121  1
  O  O214  1  0.50532205  0.63852854  0.75353901  1
  O  O215  1  0.99453869  0.12166210  0.23859227  1
  O  O216  1  1.00999233  0.14459619  0.72930479  1
  O  O217  1  0.99316103  0.62859452  0.24279765  1
  O  O218  1  0.99279256  0.63231386  0.74180662  1
  O  O219  1  0.37504795  0.25086840  0.00977975  1
  O  O220  1  0.37352942  0.25235344  0.50777401  1
  O  O221  1  0.36366842  0.76441611  0.00230620  1
  O  O222  1  0.36966043  0.75522529  0.50381515  1
  O  O223  1  0.87400775  0.26080316  0.00278988  1
  O  O224  1  0.88131828  0.26035790  0.50786819  1
  O  O225  1  0.88017160  0.75439016  0.01422475  1
  O  O226  1  0.86479110  0.75516624  0.49117345  1
  O  O227  1  0.12510193  0.23457616  0.49030644  1
  O  O228  1  0.11847266  0.24156902  0.99025160  1
  O  O229  1  0.13375362  0.74777446  0.48934877  1
  O  O230  1  0.14001037  0.74843678  1.00406334  1
  O  O231  1  0.61697028  0.24390668  0.48701074  1
  O  O232  1  0.63869607  0.24572906  0.98735621  1
  O  O233  1  0.62940220  0.73974551  0.49236437  1
  O  O234  1  0.61777231  0.74621695  0.98900868  1
  O  O235  1  0.49120703  0.25828705  0.13580361  1
  O  O236  1  0.48769758  0.24731851  0.62642817  1
  O  O237  1  0.50324566  0.74345853  0.13809418  1
  O  O238  1  0.49191823  0.74835560  0.63682846  1
  O  O239  1  0.98786565  0.24680204  0.12181218  1
  O  O240  1  0.99110591  0.26915448  0.63211888  1
  O  O241  1  0.99346427  0.74473179  0.13144759  1
  O  O242  1  1.00215671  0.73503927  0.62847286  1
  O  O243  1  0.01081888  0.24640846  0.37578912  1
  O  O244  1  0.00662697  0.26209873  0.86116003  1
  O  O245  1  0.00559846  0.75948166  0.37085923  1
  O  O246  1  0.00628283  0.75877798  0.86757213  1
  O  O247  1  0.50836660  0.25228598  0.36109161  1
  O  O248  1  0.51536628  0.25991897  0.86982152  1
  O  O249  1  0.50371653  0.75327241  0.36570399  1
  O  O250  1  0.50239260  0.75683930  0.87111402  1
  O  O251  1  0.24115965  0.11571057  0.48653746  1
  O  O252  1  0.23926307  0.12520255  0.98336479  1
  O  O253  1  0.24850209  0.63839012  0.49649459  1
  O  O254  1  0.25209044  0.64234286  1.01957576  1
  O  O255  1  0.73785051  0.11918467  0.48885480  1
  O  O256  1  0.77244408  0.14116742  0.98222358  1
  O  O257  1  0.74158356  0.62887442  0.49481138  1
  O  O258  1  0.75058643  0.62610352  0.98757367  1
  O  O259  1  0.24025896  0.37501564  0.01773158  1
  O  O260  1  0.26087257  0.37802631  0.50895447  1
  O  O261  1  0.25518702  0.87228125  0.00899280  1
  O  O262  1  0.26142148  0.87110804  0.49870299  1
  O  O263  1  0.75708747  0.37143767  0.00263824  1
  O  O264  1  0.73915374  0.37693526  0.51473208  1
  O  O265  1  0.75881134  0.87092111  0.01826408  1
  O  O266  1  0.75615849  0.86402118  0.50188995  1
  O  O267  1  0.13194288  0.49427318  0.24423659  1
  O  O268  1  0.11509279  0.50042919  0.73379620  1
  O  O269  1  0.13004149  0.99603269  0.24618658  1
  O  O270  1  0.13038940  0.99601792  0.75409020  1
  O  O271  1  0.63068238  0.48976889  0.24857081  1
  O  O272  1  0.62688252  0.48961497  0.75381329  1
  O  O273  1  0.63604161  0.99348050  0.25195361  1
  O  O274  1  0.63118164  0.99740261  0.74114259  1
  O  O275  1  0.36567418  0.00801325  0.25531101  1
  O  O276  1  0.36692069  0.00481081  0.75978706  1
  O  O277  1  0.36710697  0.50335827  0.25723111  1
  O  O278  1  0.38510494  0.49964233  0.74676269  1
  O  O279  1  0.87077266  0.00651102  0.26353265  1
  O  O280  1  0.84995485  0.01993803  0.71160473  1
  O  O281  1  0.86892195  0.50604765  0.25431497  1
  O  O282  1  0.88247604  0.51623998  0.75912179  1
  O  O283  1  0.12603565  0.36206434  0.36914045  1
  O  O284  1  0.11489428  0.36590290  0.88125776  1
  O  O285  1  0.11769237  0.86916859  0.37016540  1
  O  O286  1  0.11354860  0.86752971  0.88763082  1
  O  O287  1  0.62547696  0.36615006  0.36537887  1
  O  O288  1  0.62276076  0.36798014  0.86215465  1
  O  O289  1  0.61863988  0.86889362  0.37244445  1
  O  O290  1  0.61290822  0.86779558  0.87722775  1
  O  O291  1  0.37026576  0.13369240  0.13607069  1
  O  O292  1  0.37130433  0.13130643  0.62993681  1
  O  O293  1  0.38828793  0.61800754  0.13811469  1
  O  O294  1  0.37878766  0.63766835  0.62028165  1
  O  O295  1  0.87942505  0.13292574  0.13049669  1
  O  O296  1  0.87553003  0.14966025  0.61653831  1
  O  O297  1  0.87796233  0.63082941  0.12945797  1
  O  O298  1  0.88184665  0.62020126  0.63309867  1
  O  O299  1  0.25911410  0.26190590  0.13046505  1
  O  O300  1  0.25423851  0.26408782  0.62823298  1
  O  O301  1  0.24575836  0.76589381  0.12099634  1
  O  O302  1  0.25655082  0.75672519  0.61269107  1
  O  O303  1  0.76298107  0.25598749  0.11346753  1
  O  O304  1  0.76195698  0.26044415  0.62205392  1
  O  O305  1  0.76088755  0.75795831  0.13748481  1
  O  O306  1  0.74044721  0.75132401  0.60797982  1
  O  O307  1  0.24245468  0.23683412  0.36786590  1
  O  O308  1  0.23812014  0.24342917  0.86361474  1
  O  O309  1  0.23945854  0.75610079  0.38112432  1
  O  O310  1  0.24901099  0.75468943  0.89374320  1
  O  O311  1  0.73928225  0.24016571  0.37075717  1
  O  O312  1  0.74024186  0.26132209  0.87888665  1
  O  O313  1  0.74344703  0.74377482  0.38263896  1
  O  O314  1  0.73787964  0.74581968  0.87232762  1
  O  O315  1  0.00540403  0.12816700  0.01427967  1
  O  O316  1  0.01743239  0.11633583  0.50391596  1
  O  O317  1  -0.00120789  0.61757329  0.00427035  1
  O  O318  1  0.00230696  0.61666868  0.50643946  1
  O  O319  1  0.50053551  0.13641197  0.00545118  1
  O  O320  1  0.51057225  0.12302872  0.49913449  1
  O  O321  1  0.49944384  0.61799052  0.00985936  1
  O  O322  1  0.51354461  0.62825532  0.49836318  1
  O  O323  1  0.48342324  0.37210832  0.49534991  1
  O  O324  1  0.51171924  0.37840636  0.98284741  1
  O  O325  1  0.48773253  0.87193786  0.49268068  1
  O  O326  1  0.48897823  0.87020649  0.99219913  1
  O  O327  1  1.00556238  0.38570426  0.49432372  1
  O  O328  1  0.99302885  0.38354344  0.98950591  1
  O  O329  1  0.99420261  0.87418982  0.49486658  1
  O  O330  1  0.99480993  0.87801264  0.99793987  1
  O  O331  1  0.48839302  0.49460038  0.37640821  1
  O  O332  1  0.49966578  0.48813114  0.88132350  1
  O  O333  1  0.49116128  0.99213660  0.37370698  1
  O  O334  1  0.48973085  0.99117694  0.86913923  1
  O  O335  1  0.99164323  0.49892780  0.38152601  1
  O  O336  1  0.99483988  0.49724688  0.87961092  1
  O  O337  1  0.99606283  0.98683895  0.37580134  1
  O  O338  1  1.00766809  0.97937050  0.87965432  1
  O  O339  1  0.00501622  0.01037136  0.12326201  1
  O  O340  1  0.00945604  -0.01763106  0.64150603  1
  O  O341  1  0.00234608  0.50332266  0.11567309  1
  O  O342  1  0.00558561  0.50486164  0.61617693  1
  O  O343  1  0.50069362  0.00417339  0.13819852  1
  O  O344  1  0.51131437  0.00109239  0.62463069  1
  O  O345  1  0.50302282  0.50490749  0.12013386  1
  O  O346  1  0.50516728  0.49733281  0.61417374  1
  O  O347  1  0.23832613  0.38158949  0.24250333  1
  O  O348  1  0.25135752  0.37703702  0.73601322  1
  O  O349  1  0.24602752  0.88157335  0.24549983  1
  O  O350  1  0.25313686  0.88626616  0.75443462  1
  O  O351  1  0.73941918  0.37710294  0.24218813  1
  O  O352  1  0.73793515  0.37509170  0.74270454  1
  O  O353  1  0.74596693  0.87990535  0.25103756  1
  O  O354  1  0.74846868  0.85634003  0.72570897  1
  O  O355  1  0.25646719  0.11796568  0.25456896  1
  O  O356  1  0.25739668  0.11618176  0.75786642  1
  O  O357  1  0.25858581  0.61453807  0.24059127  1
  O  O358  1  0.24996768  0.64077631  0.74348117  1
  O  O359  1  0.75741804  0.11571969  0.26410448  1
  O  O360  1  0.75268267  0.13354142  0.76368502  1
  O  O361  1  0.75343462  0.61882561  0.25475560  1
  O  O362  1  0.76059365  0.63376485  0.75878702  1
  O  O363  1  0.36696937  0.12168038  0.36825413  1
  O  O364  1  0.36688377  0.12172201  0.86875982  1
  O  O365  1  0.37755610  0.61565163  0.36184309  1
  O  O366  1  0.36265320  0.61997006  0.88633121  1
  O  O367  1  0.87003404  0.12225832  0.37805758  1
  O  O368  1  0.92442075  0.11101161  0.86112824  1
  O  O369  1  0.86821597  0.61624533  0.36853835  1
  O  O370  1  0.86867449  0.62310566  0.86823072  1
  O  O371  1  0.13107552  0.37688574  0.13196107  1
  O  O372  1  0.13840945  0.38483940  0.61850338  1
  O  O373  1  0.12919956  0.88258177  0.13185660  1
  O  O374  1  0.12616261  0.87394723  0.62972953  1
  O  O375  1  0.63166557  0.37099582  0.13047521  1
  O  O376  1  0.63461260  0.36783192  0.63854616  1
  O  O377  1  0.63468429  0.87357817  0.13454893  1
  O  O378  1  0.62749586  0.88003494  0.62246128  1
  O  O379  1  0.12801016  0.25703806  0.25900413  1
  O  O380  1  0.11350422  0.25535345  0.75448279  1
  O  O381  1  0.12023429  0.75588442  0.25454498  1
  O  O382  1  0.10737305  0.75451935  0.74851681  1
  O  O383  1  0.62005099  0.25369043  0.25382915  1
  O  O384  1  0.62516150  0.25251671  0.75787628  1
  O  O385  1  0.61717518  0.75555867  0.25767013  1
  O  O386  1  0.61423942  0.75557511  0.76124531  1
  O  O387  1  0.38295071  0.24286764  0.24617922  1
  O  O388  1  0.37402360  0.24121404  0.73839127  1
  O  O389  1  0.38248292  0.73973562  0.25513569  1
  O  O390  1  0.38437485  0.75768706  0.74106267  1
  O  O391  1  0.86904617  0.24320412  0.23987618  1
  O  O392  1  0.89065918  0.25009015  0.74396970  1
  O  O393  1  0.88173688  0.74394835  0.24559486  1
  O  O394  1  0.88908459  0.74284864  0.75465156  1
  O  O395  1  0.37184106  0.49166736  0.48325364  1
  O  O396  1  0.39128207  0.49372848  1.00322264  1
  O  O397  1  0.37563942  0.99220047  0.49514835  1
  O  O398  1  0.37414655  0.99375474  0.98932569  1
  O  O399  1  0.88464642  0.50469999  0.48828326  1
  O  O400  1  0.88485372  0.49722353  0.99116627  1
  O  O401  1  0.88309361  0.98999346  0.50222831  1
  O  O402  1  0.87055155  0.98820517  1.01108749  1
  O  O403  1  0.12304604  0.01624183  0.00648454  1
  O  O404  1  0.12339207  0.01205126  0.49866025  1
  O  O405  1  0.11239333  0.49939801  0.00553263  1
  O  O406  1  0.11736899  0.50111688  0.50446793  1
  O  O407  1  0.63908089  0.00679610  0.00807418  1
  O  O408  1  0.61789881  0.00910150  0.50243983  1
  O  O409  1  0.61420854  0.50401140  0.00067286  1
  O  O410  1  0.62378127  0.51811078  0.48914459  1
  O  O411  1  0.36111308  0.36719588  0.13080932  1
  O  O412  1  0.36398361  0.36676439  0.61753258  1
  O  O413  1  0.36399191  0.88214670  0.11725307  1
  O  O414  1  0.37523316  0.86790669  0.61606432  1
  O  O415  1  0.87157309  0.36940257  0.11949361  1
  O  O416  1  0.85852987  0.36954595  0.63071620  1
  O  O417  1  0.87191495  0.86578260  0.12246015  1
  O  O418  1  0.86497077  0.86967037  0.61157104  1
  O  O419  1  0.13223692  0.13006026  0.37694312  1
  O  O420  1  0.12499261  0.13657276  0.88047014  1
  O  O421  1  0.11785086  0.63814158  0.37201072  1
  O  O422  1  0.13241893  0.63012168  0.87960666  1
  O  O423  1  0.63104110  0.13089988  0.37958510  1
  O  O424  1  0.62056088  0.13904767  0.87370967  1
  O  O425  1  0.63091980  0.63119414  0.37659207  1
  O  O426  1  0.63440870  0.63285956  0.87541398  1
