# generated using pymatgen
data_V85Zn86O256
_symmetry_space_group_name_H-M   'P 1'
_cell_length_a   16.94037472
_cell_length_b   16.94107274
_cell_length_c   16.93789986
_cell_angle_alpha   90.01051394
_cell_angle_beta   90.02079702
_cell_angle_gamma   89.96138363
_symmetry_Int_Tables_number   1
_chemical_formula_structural   V85Zn86O256
_chemical_formula_sum   'V85 Zn86 O256'
_cell_volume   4860.97453752
_cell_formula_units_Z   1
loop_
 _symmetry_equiv_pos_site_id
 _symmetry_equiv_pos_as_xyz
  1  'x, y, z'
loop_
 _atom_site_type_symbol
 _atom_site_label
 _atom_site_symmetry_multiplicity
 _atom_site_fract_x
 _atom_site_fract_y
 _atom_site_fract_z
 _atom_site_occupancy
  V  V0  1  0.63264297  0.62311208  0.49723068  1
  V  V1  1  0.62626047  0.00111456  0.12661787  1
  V  V2  1  0.62129145  0.88045250  0.74244524  1
  V  V3  1  0.87434704  0.12549864  0.74575549  1
  V  V4  1  0.49868040  0.74708229  0.74740203  1
  V  V5  1  0.25442884  0.24535642  0.50460709  1
  V  V6  1  0.12606051  0.24285214  0.38087643  1
  V  V7  1  0.87155618  0.48990328  0.88091367  1
  V  V8  1  0.74979098  0.74951448  -0.00115940  1
  V  V9  1  0.25078422  0.75339530  0.50053100  1
  V  V10  1  -0.00181385  -0.00057655  0.00265440  1
  V  V11  1  0.12701169  0.74646634  0.37434053  1
  V  V12  1  0.49415230  0.13215170  0.12494590  1
  V  V13  1  0.74166479  0.24505504  0.47286452  1
  V  V14  1  -0.00098203  0.62505577  0.13806704  1
  V  V15  1  -0.00218136  0.87027299  0.86828418  1
  V  V16  1  0.62333201  0.12846321  -0.00029327  1
  V  V17  1  0.38646061  0.12997468  0.74970450  1
  V  V18  1  0.87926456  0.36886772  0.47854983  1
  V  V19  1  0.74900923  0.50855817  0.24252108  1
  V  V20  1  -0.00467362  0.25206199  0.74974450  1
  V  V21  1  0.86866229  0.52636513  0.36779432  1
  V  V22  1  0.12426597  0.62350453  0.00198790  1
  V  V23  1  0.49609066  0.50508607  0.00504222  1
  V  V24  1  0.74769152  0.12747222  0.87817274  1
  V  V25  1  0.25801779  0.62758935  0.37554309  1
  V  V26  1  0.63510253  0.74646855  0.37354288  1
  V  V27  1  0.37847853  0.37193769  0.50513102  1
  V  V28  1  0.75574436  0.75015682  0.50403240  1
  V  V29  1  0.12314189  0.12600423  0.00510977  1
  V  V30  1  0.13100900  0.87453755  0.24982111  1
  V  V31  1  0.75004546  0.62362961  0.87367325  1
  V  V32  1  0.62040975  0.62679557  0.00963696  1
  V  V33  1  0.24697475  0.62207602  0.87132215  1
  V  V34  1  0.88485455  0.75152551  0.63421127  1
  V  V35  1  0.74852158  0.26772108  0.00412112  1
  V  V36  1  0.25672155  0.49789119  0.25167457  1
  V  V37  1  0.85955725  0.11649344  0.25361527  1
  V  V38  1  0.50175687  0.87436584  0.37684402  1
  V  V39  1  0.62867601  0.11225861  0.49173165  1
  V  V40  1  0.36776099  0.49737831  0.87131381  1
  V  V41  1  0.25263812  0.24889268  0.00916044  1
  V  V42  1  0.62398056  0.74905264  0.87257455  1
  V  V43  1  -0.00150369  0.25185757  0.25705725  1
  V  V44  1  0.25187919  0.87682895  0.62972763  1
  V  V45  1  0.01374900  0.00698865  0.50665575  1
  V  V46  1  0.25529534  0.87501826  0.11937869  1
  V  V47  1  -0.00939619  0.75106280  0.25634093  1
  V  V48  1  0.87129889  0.26364449  0.12364984  1
  V  V49  1  0.51343706  0.36850248  0.37686738  1
  V  V50  1  0.12638828  0.37340608  0.26257835  1
  V  V51  1  0.12556650  0.38386775  0.73699938  1
  V  V52  1  0.75355462  0.36653360  0.62398574  1
  V  V53  1  0.38266774  0.49538027  0.37287347  1
  V  V54  1  0.87143436  0.00083270  0.87563746  1
  V  V55  1  0.24668302  0.12217978  0.87833341  1
  V  V56  1  0.62613625  0.87911307  0.25067804  1
  V  V57  1  0.50082142  0.37245400  0.86356961  1
  V  V58  1  0.13007235  -0.00017980  0.13275755  1
  V  V59  1  0.25003510  0.11774725  0.37482444  1
  V  V60  1  0.87541555  0.74804423  0.12771756  1
  V  V61  1  0.74527421  0.00265923  0.74062173  1
  V  V62  1  0.19124160  0.05562824  0.69301380  1
  V  V63  1  0.36602068  -0.00425527  0.87226601  1
  V  V64  1  0.38154000  0.74887753  0.11786238  1
  V  V65  1  0.62095966  0.25323550  0.86274223  1
  V  V66  1  0.37181125  0.61927936  0.74582299  1
  V  V67  1  0.38738011  0.62324961  0.24396596  1
  V  V68  1  0.62845496  0.49542391  0.62465775  1
  V  V69  1  0.37720114  -0.00214127  0.37268811  1
  V  V70  1  0.12741593  0.87480832  0.74799401  1
  V  V71  1  0.87510496  0.87479426  -0.00024783  1
  V  V72  1  -0.00403723  0.12539523  0.12967600  1
  V  V73  1  0.11904829  0.25548562  0.88234984  1
  V  V74  1  0.49304625  0.87439589  0.87718987  1
  V  V75  1  0.74775322  0.49388887  0.74854411  1
  V  V76  1  0.25501274  0.37281501  0.12943580  1
  V  V77  1  -0.00628257  0.49411728  0.00592851  1
  V  V78  1  0.50507117  0.24656021  0.25639495  1
  V  V79  1  0.37159810  0.12523680  0.24851384  1
  V  V80  1  0.74896325  0.87824696  0.12173023  1
  V  V81  1  0.37637536  0.37168941  0.00509981  1
  V  V82  1  0.49315779  -0.00186147  0.00009138  1
  V  V83  1  0.12562071  0.50007769  0.13151779  1
  V  V84  1  0.11972431  0.74693664  0.87267168  1
  Zn  Zn85  1  0.38472722  0.25752532  0.63383792  1
  Zn  Zn86  1  0.63454518  0.37014819  0.24254315  1
  Zn  Zn87  1  0.25257040  0.75199666  -0.00212810  1
  Zn  Zn88  1  0.88162382  0.87835784  0.50228131  1
  Zn  Zn89  1  0.37735765  0.87675408  0.50203838  1
  Zn  Zn90  1  -0.00294022  0.49687102  0.49689790  1
  Zn  Zn91  1  0.50156149  0.62196177  0.62261322  1
  Zn  Zn92  1  0.87208384  -0.00092364  0.38134798  1
  Zn  Zn93  1  0.13924224  0.57843527  0.53039186  1
  Zn  Zn94  1  0.37506811  0.74730058  0.62215595  1
  Zn  Zn95  1  0.50395500  0.74679572  0.24624255  1
  Zn  Zn96  1  0.74873043  0.87782428  0.62323744  1
  Zn  Zn97  1  0.88065563  0.62856793  0.75332164  1
  Zn  Zn98  1  -0.00496861  0.37431069  0.88178744  1
  Zn  Zn99  1  0.62970950  0.49476748  0.12262360  1
  Zn  Zn100  1  0.00806065  0.61911665  0.63090044  1
  Zn  Zn101  1  0.00628683  0.88135263  0.38136514  1
  Zn  Zn102  1  0.01601034  0.12574367  0.62347993  1
  Zn  Zn103  1  0.50597197  0.49999243  0.49963801  1
  Zn  Zn104  1  0.51393251  0.12736050  0.62603409  1
  Zn  Zn105  1  0.50729140  -0.00550343  0.51606993  1
  Zn  Zn106  1  0.87759882  0.24941671  0.61403566  1
  Zn  Zn107  1  0.18862953  0.18582063  0.19253803  1
  Zn  Zn108  1  0.20149546  0.23027970  0.70183041  1
  Zn  Zn109  1  0.19207460  0.68847024  0.19062863  1
  Zn  Zn110  1  0.18712731  0.68952002  0.69064578  1
  Zn  Zn111  1  0.68641671  0.18933730  0.18458740  1
  Zn  Zn112  1  0.68582394  0.18453103  0.68233717  1
  Zn  Zn113  1  0.69050518  0.68890517  0.18979086  1
  Zn  Zn114  1  0.69221286  0.68413856  0.68411324  1
  Zn  Zn115  1  0.31878739  0.30732299  0.31676736  1
  Zn  Zn116  1  0.30715230  0.31191264  0.81949927  1
  Zn  Zn117  1  0.31548504  0.81307226  0.30521435  1
  Zn  Zn118  1  0.30977211  0.80889959  0.81082038  1
  Zn  Zn119  1  0.80835041  0.31499949  0.29838267  1
  Zn  Zn120  1  0.80724282  0.31299488  0.81319838  1
  Zn  Zn121  1  0.79881562  0.85227083  0.32682903  1
  Zn  Zn122  1  0.80931990  0.81493312  0.81024572  1
  Zn  Zn123  1  0.19682589  0.43873577  0.46132052  1
  Zn  Zn124  1  0.18558092  0.43776487  0.94000579  1
  Zn  Zn125  1  0.18778254  0.93817842  0.43969359  1
  Zn  Zn126  1  0.18407112  0.93616340  0.94119303  1
  Zn  Zn127  1  0.69742324  0.43883489  0.43444188  1
  Zn  Zn128  1  0.67980589  0.43993316  0.93567323  1
  Zn  Zn129  1  0.69420246  0.94019193  0.43583412  1
  Zn  Zn130  1  0.68241427  0.93859612  0.93384341  1
  Zn  Zn131  1  0.31250066  0.05921510  0.06309160  1
  Zn  Zn132  1  0.32357866  0.06456649  0.55803733  1
  Zn  Zn133  1  0.31269954  0.56316955  0.06159044  1
  Zn  Zn134  1  0.31401021  0.55573206  0.56147243  1
  Zn  Zn135  1  0.81039740  0.06816584  0.06477143  1
  Zn  Zn136  1  0.81491281  0.06564313  0.55691523  1
  Zn  Zn137  1  0.81279497  0.56363239  0.06690414  1
  Zn  Zn138  1  0.84480232  0.54562063  0.57637766  1
  Zn  Zn139  1  0.46195446  0.42676666  0.17724262  1
  Zn  Zn140  1  0.43928840  0.44006527  0.68471236  1
  Zn  Zn141  1  0.43801219  0.93725389  0.18985271  1
  Zn  Zn142  1  0.43471415  0.94461061  0.68952795  1
  Zn  Zn143  1  0.93760601  0.44013903  0.20274316  1
  Zn  Zn144  1  0.93556790  0.43585321  0.68898361  1
  Zn  Zn145  1  0.94077876  0.93453101  0.19015568  1
  Zn  Zn146  1  0.93869304  0.94003205  0.68036629  1
  Zn  Zn147  1  0.05917332  0.06260518  0.31665780  1
  Zn  Zn148  1  0.05488518  0.06627280  0.81885964  1
  Zn  Zn149  1  0.07366031  0.54720560  0.34339117  1
  Zn  Zn150  1  0.05742119  0.55825809  0.80856570  1
  Zn  Zn151  1  0.56704836  0.06269120  0.31625451  1
  Zn  Zn152  1  0.56163846  0.06121535  0.81450516  1
  Zn  Zn153  1  0.56899738  0.56114949  0.31250397  1
  Zn  Zn154  1  0.56257427  0.55923403  0.81289147  1
  Zn  Zn155  1  0.44353987  0.18433960  0.43993382  1
  Zn  Zn156  1  0.43540351  0.18805797  0.93520637  1
  Zn  Zn157  1  0.44330892  0.68885610  0.43851767  1
  Zn  Zn158  1  0.43458886  0.68686004  0.93500687  1
  Zn  Zn159  1  0.93645094  0.17998430  0.43577520  1
  Zn  Zn160  1  0.93150074  0.18998122  0.94134320  1
  Zn  Zn161  1  0.94525932  0.68509567  0.44968723  1
  Zn  Zn162  1  0.93804502  0.68262952  0.94064756  1
  Zn  Zn163  1  0.06264170  0.31506156  0.07267119  1
  Zn  Zn164  1  0.06017802  0.30967712  0.55969038  1
  Zn  Zn165  1  0.06318743  0.81137405  0.06147029  1
  Zn  Zn166  1  0.06600435  0.81237942  0.56219799  1
  Zn  Zn167  1  0.56104547  0.31347596  0.05969804  1
  Zn  Zn168  1  0.56535061  0.30496947  0.56547018  1
  Zn  Zn169  1  0.55988989  0.81387387  0.05960309  1
  Zn  Zn170  1  0.56313413  0.80963075  0.56124411  1
  O  O171  1  0.11893135  0.11788011  0.12457560  1
  O  O172  1  0.13784788  0.12459915  0.64364601  1
  O  O173  1  0.12153813  0.61917670  0.12328037  1
  O  O174  1  0.12183758  0.63500205  0.62417002  1
  O  O175  1  0.61577636  0.11735933  0.11931959  1
  O  O176  1  0.63036880  0.13197500  0.60168854  1
  O  O177  1  0.62436456  0.62831168  0.11162575  1
  O  O178  1  0.62762858  0.61249669  0.61789905  1
  O  O179  1  0.38415134  0.38126107  0.38153831  1
  O  O180  1  0.37760766  0.38007228  0.88188188  1
  O  O181  1  0.38286911  0.88081153  0.37121621  1
  O  O182  1  0.38021790  0.88279201  0.86844224  1
  O  O183  1  0.87682168  0.36448774  0.37935291  1
  O  O184  1  0.87243737  0.38625849  0.87802317  1
  O  O185  1  0.89263617  0.86988425  0.38394856  1
  O  O186  1  0.88116350  0.87919452  0.87890063  1
  O  O187  1  0.25831631  0.00987962  0.37933522  1
  O  O188  1  0.25544687  0.00742269  0.88590103  1
  O  O189  1  0.26687323  0.50839573  0.37018515  1
  O  O190  1  0.25997649  0.50418000  0.87831121  1
  O  O191  1  0.76555373  -0.03660985  0.35621428  1
  O  O192  1  0.75464089  0.00687079  0.87050425  1
  O  O193  1  0.76087682  0.49924525  0.36094722  1
  O  O194  1  0.75176050  0.50513602  0.87147721  1
  O  O195  1  0.24595032  0.49512356  0.13280710  1
  O  O196  1  0.22107470  0.49821605  0.55892552  1
  O  O197  1  0.24022088  0.99169989  0.12201582  1
  O  O198  1  0.24875742  0.99941334  0.62641071  1
  O  O199  1  0.74755307  0.50172811  0.13404567  1
  O  O200  1  0.75185300  0.49131241  0.63226907  1
  O  O201  1  0.73408504  0.99475773  0.11365384  1
  O  O202  1  0.75378644  1.00072070  0.63835689  1
  O  O203  1  0.01212599  0.36194594  0.24814314  1
  O  O204  1  0.00585975  0.36883181  0.75596036  1
  O  O205  1  0.01396851  0.86633424  0.24993760  1
  O  O206  1  0.00834563  0.88616640  0.76290194  1
  O  O207  1  0.48993507  0.36011812  0.26486605  1
  O  O208  1  0.49011165  0.37528914  0.76519148  1
  O  O209  1  0.51151323  0.87169283  0.25401519  1
  O  O210  1  0.50263745  0.86921706  0.75865752  1
  O  O211  1  0.49624938  0.12745987  0.24370471  1
  O  O212  1  0.48777612  0.12867233  0.75840369  1
  O  O213  1  0.49048999  0.62520330  0.25223411  1
  O  O214  1  0.49266291  0.63153600  0.75076883  1
  O  O215  1  0.99920691  0.13351892  0.24032950  1
  O  O216  1  0.98993604  0.13201846  0.74990895  1
  O  O217  1  1.00822353  0.63434183  0.24036506  1
  O  O218  1  0.99318401  0.62158455  0.74705005  1
  O  O219  1  0.36413769  0.25894433  -0.00547425  1
  O  O220  1  0.37026682  0.25401839  0.49802601  1
  O  O221  1  0.37284580  0.74504433  0.01268068  1
  O  O222  1  0.36508927  0.75426739  0.50001772  1
  O  O223  1  0.86189361  0.24837980  0.01049054  1
  O  O224  1  0.86455873  0.25366948  0.49447711  1
  O  O225  1  0.87067056  0.75683767  0.00546333  1
  O  O226  1  0.86863353  0.75180769  0.51139965  1
  O  O227  1  0.13948273  0.25445318  0.49224176  1
  O  O228  1  0.12762315  0.24572705  0.99993687  1
  O  O229  1  0.14072039  0.75799232  0.48825805  1
  O  O230  1  0.12536017  0.74199401  0.99021224  1
  O  O231  1  0.64086558  0.24929018  0.49366759  1
  O  O232  1  0.62984714  0.24596252  0.99614683  1
  O  O233  1  0.63089680  0.74429908  0.49337630  1
  O  O234  1  0.62749675  0.74485413  0.99202229  1
  O  O235  1  0.49756007  0.23502516  0.12743180  1
  O  O236  1  0.49624811  0.24161945  0.62413156  1
  O  O237  1  0.48575202  0.75419927  0.12425414  1
  O  O238  1  0.49688410  0.74797699  0.63742949  1
  O  O239  1  0.99448655  0.24164415  0.13211807  1
  O  O240  1  0.99752811  0.24400930  0.63518638  1
  O  O241  1  0.99680901  0.74475191  0.13188106  1
  O  O242  1  0.98634443  0.75360210  0.62260628  1
  O  O243  1  0.01148688  0.24063979  0.36671526  1
  O  O244  1  0.00333268  0.25260124  0.87501255  1
  O  O245  1  0.01242854  0.74696700  0.36989161  1
  O  O246  1  0.00591472  0.75928704  0.88174110  1
  O  O247  1  0.50019574  0.25607959  0.36849655  1
  O  O248  1  0.50541634  0.26407825  0.88175241  1
  O  O249  1  0.50902861  0.76167598  0.37321318  1
  O  O250  1  0.50019623  0.75642990  0.86527783  1
  O  O251  1  0.25960206  0.13604067  0.48970441  1
  O  O252  1  0.24419486  0.13185060  1.00007412  1
  O  O253  1  0.25586329  0.63753995  0.48369112  1
  O  O254  1  0.24253835  0.62386723  0.98821306  1
  O  O255  1  0.74625919  0.13841939  0.49754410  1
  O  O256  1  0.74147477  0.13102709  0.99406411  1
  O  O257  1  0.73825755  0.63967888  0.50369629  1
  O  O258  1  0.74073407  0.63017668  0.99366315  1
  O  O259  1  0.25566405  0.36835935  0.00699618  1
  O  O260  1  0.26711959  0.35314623  0.48332158  1
  O  O261  1  0.24452006  0.87127990  0.01442020  1
  O  O262  1  0.25287755  0.87204973  0.51068300  1
  O  O263  1  0.74038580  0.36702561  0.00003133  1
  O  O264  1  0.75847274  0.36070786  0.50047900  1
  O  O265  1  0.75256292  0.86945183  0.00200727  1
  O  O266  1  0.74774514  0.86108635  0.50554298  1
  O  O267  1  0.13451831  0.49022184  0.25349079  1
  O  O268  1  0.12839235  0.48084430  0.76049211  1
  O  O269  1  0.11829473  0.99235387  0.23951226  1
  O  O270  1  0.12820917  0.99885034  0.75354561  1
  O  O271  1  0.63564786  0.49963951  0.24564742  1
  O  O272  1  0.63839823  0.50428180  0.74225154  1
  O  O273  1  0.61824218  0.99253542  0.23686779  1
  O  O274  1  0.63282786  0.99225495  0.75847150  1
  O  O275  1  0.38200666  0.00938325  0.26247439  1
  O  O276  1  0.37277094  0.01370888  0.76569995  1
  O  O277  1  0.37522073  0.50479641  0.25301318  1
  O  O278  1  0.37690509  0.50991913  0.75607138  1
  O  O279  1  0.88190268  0.01592843  0.24335045  1
  O  O280  1  0.86789203  0.00774686  0.75593801  1
  O  O281  1  0.86319253  0.50567000  0.25683822  1
  O  O282  1  0.86200072  0.50056947  0.76375382  1
  O  O283  1  0.13773681  0.35876789  0.36449578  1
  O  O284  1  0.12172105  0.36270442  0.87790908  1
  O  O285  1  0.12833524  0.86614400  0.36572807  1
  O  O286  1  0.11792374  0.86882514  0.87063746  1
  O  O287  1  0.61451186  0.38153190  0.37103213  1
  O  O288  1  0.60845964  0.37047461  0.87601974  1
  O  O289  1  0.61898287  0.87024382  0.36576237  1
  O  O290  1  0.61472227  0.86783374  0.86663410  1
  O  O291  1  0.38336685  0.11393590  0.13509808  1
  O  O292  1  0.37061335  0.12409510  0.64568737  1
  O  O293  1  0.36800405  0.63849387  0.13109682  1
  O  O294  1  0.37592325  0.62225328  0.63173772  1
  O  O295  1  0.88224317  0.13207023  0.13160169  1
  O  O296  1  0.86842675  0.13094100  0.64048112  1
  O  O297  1  0.88660048  0.63711005  0.12034209  1
  O  O298  1  0.86657594  0.64529848  0.63082245  1
  O  O299  1  0.24529656  0.25349242  0.11572331  1
  O  O300  1  0.26118365  0.24616414  0.60727236  1
  O  O301  1  0.25955510  0.75683181  0.12267608  1
  O  O302  1  0.25293990  0.75992639  0.61718636  1
  O  O303  1  0.75766091  0.24928720  0.11609513  1
  O  O304  1  0.75251789  0.26148451  0.62695460  1
  O  O305  1  0.75583547  0.75522288  0.11671532  1
  O  O306  1  0.75446903  0.75523601  0.61804360  1
  O  O307  1  0.24636720  0.23626235  0.37912181  1
  O  O308  1  0.23843754  0.24315897  0.88985678  1
  O  O309  1  0.24951001  0.74660887  0.37720742  1
  O  O310  1  0.24180419  0.74099520  0.87884710  1
  O  O311  1  0.74759250  0.25042148  0.37481230  1
  O  O312  1  0.74127852  0.24726025  0.88391699  1
  O  O313  1  0.73853958  0.75983451  0.38192813  1
  O  O314  1  0.74547420  0.74325479  0.87954820  1
  O  O315  1  0.00175773  0.12221645  0.01286251  1
  O  O316  1  -0.00102542  0.11570998  0.50649630  1
  O  O317  1  0.00736795  0.61601319  0.01096684  1
  O  O318  1  0.01168610  0.61687379  0.50793582  1
  O  O319  1  0.50132518  0.11919390  0.00610709  1
  O  O320  1  0.51708831  0.11826997  0.49615256  1
  O  O321  1  0.51033513  0.61660445  -0.01687457  1
  O  O322  1  0.51498492  0.62442792  0.50332250  1
  O  O323  1  0.49619824  0.37309016  0.49067660  1
  O  O324  1  0.48972271  0.38381729  0.99033864  1
  O  O325  1  0.49895093  0.87597935  0.49221157  1
  O  O326  1  0.50214836  0.88247612  0.98575003  1
  O  O327  1  0.98141975  0.37176973  0.50024748  1
  O  O328  1  1.00627265  0.39052857  1.00550454  1
  O  O329  1  1.00531341  0.89039155  0.50396150  1
  O  O330  1  0.99579422  0.88027638  0.99150813  1
  O  O331  1  0.49382913  0.49152502  0.37305493  1
  O  O332  1  0.48967941  0.48993846  0.87853187  1
  O  O333  1  0.49658989  0.98619543  0.37452517  1
  O  O334  1  0.49140668  0.99264770  0.88068681  1
  O  O335  1  0.97058019  0.50245759  0.36508570  1
  O  O336  1  0.98873743  0.49854871  0.88806111  1
  O  O337  1  0.99739611  1.00196207  0.38814140  1
  O  O338  1  0.99167872  0.99399606  0.88387639  1
  O  O339  1  0.00668984  0.00651558  0.12097397  1
  O  O340  1  0.00311109  0.00850793  0.61571770  1
  O  O341  1  0.00396108  0.50762941  0.12646525  1
  O  O342  1  -0.04256353  0.51046680  0.60951728  1
  O  O343  1  0.50548015  0.00336188  0.11581919  1
  O  O344  1  0.49573236  0.01271763  0.62826675  1
  O  O345  1  0.48649907  0.51461360  0.10536856  1
  O  O346  1  0.51457793  0.50046326  0.62290286  1
  O  O347  1  0.25007084  0.37606926  0.24685446  1
  O  O348  1  0.22534478  0.34651594  0.74667277  1
  O  O349  1  0.23816402  0.87032873  0.23793184  1
  O  O350  1  0.24036556  0.87579538  0.74503466  1
  O  O351  1  0.74725986  0.39077344  0.24543054  1
  O  O352  1  0.75274731  0.38258907  0.73983471  1
  O  O353  1  0.73297809  0.86522964  0.23219869  1
  O  O354  1  0.73839816  0.88625682  0.75284924  1
  O  O355  1  0.26163001  0.12698374  0.25830576  1
  O  O356  1  0.24552563  0.12218991  0.75549846  1
  O  O357  1  0.26383272  0.62088900  0.25826598  1
  O  O358  1  0.25759253  0.62952461  0.76286973  1
  O  O359  1  0.76129468  0.12366979  0.24058012  1
  O  O360  1  0.75359325  0.12016367  0.75805666  1
  O  O361  1  0.74694902  0.61072316  0.24730842  1
  O  O362  1  0.75257019  0.61784533  0.76018061  1
  O  O363  1  0.37175522  0.11702784  0.36854918  1
  O  O364  1  0.36587210  0.12033410  0.86824879  1
  O  O365  1  0.37571880  0.61898109  0.36745111  1
  O  O366  1  0.36642755  0.61638870  0.86916093  1
  O  O367  1  0.87422064  0.12239689  0.35661776  1
  O  O368  1  0.86878547  0.12106966  0.86758026  1
  O  O369  1  0.87004837  0.62387534  0.38159493  1
  O  O370  1  0.86133470  0.61844762  0.87925355  1
  O  O371  1  0.13417284  0.38111885  0.13899649  1
  O  O372  1  0.11429573  0.37537745  0.63783636  1
  O  O373  1  0.13015925  0.88143065  0.12957416  1
  O  O374  1  0.13421344  0.87023290  0.64010855  1
  O  O375  1  0.58066251  0.39039782  0.13812087  1
  O  O376  1  0.63748611  0.38810808  0.61385224  1
  O  O377  1  0.62629368  0.88248163  0.12726555  1
  O  O378  1  0.62360786  0.87124347  0.63995206  1
  O  O379  1  0.11794558  0.25428219  0.25560886  1
  O  O380  1  0.10700008  0.25079742  0.76471781  1
  O  O381  1  0.11978164  0.75738171  0.25430056  1
  O  O382  1  0.12819844  0.76130851  0.76564499  1
  O  O383  1  0.61013237  0.25093908  0.24241917  1
  O  O384  1  0.63055254  0.24527394  0.76426825  1
  O  O385  1  0.62289480  0.75550557  0.25688666  1
  O  O386  1  0.61718775  0.75383553  0.75460200  1
  O  O387  1  0.38656911  0.23348532  0.25386111  1
  O  O388  1  0.36393350  0.23366217  0.75480197  1
  O  O389  1  0.37923803  0.74085976  0.23893029  1
  O  O390  1  0.38147047  0.73663197  0.75012863  1
  O  O391  1  0.88234055  0.23971811  0.24369968  1
  O  O392  1  0.88424757  0.24483074  0.75622829  1
  O  O393  1  0.88900754  0.75947420  0.24424547  1
  O  O394  1  0.87037114  0.75204056  0.73886652  1
  O  O395  1  0.38467694  0.49145988  0.48855673  1
  O  O396  1  0.37709712  0.49430282  0.98946297  1
  O  O397  1  0.38191545  0.99760085  0.48577917  1
  O  O398  1  0.38589398  1.00491346  0.98948603  1
  O  O399  1  0.86277092  0.48282242  0.47774984  1
  O  O400  1  0.88261156  0.50642516  0.99505244  1
  O  O401  1  0.88521875  0.99875699  0.50115417  1
  O  O402  1  0.87815374  0.99503717  0.99703602  1
  O  O403  1  0.11746733  0.00642221  0.01046978  1
  O  O404  1  0.11396110  0.00372362  0.49719204  1
  O  O405  1  0.11910482  0.50568959  0.00979460  1
  O  O406  1  0.10513296  0.50173348  0.44848537  1
  O  O407  1  0.61135564  0.00622660  0.00203502  1
  O  O408  1  0.62954289  0.00733859  0.49988779  1
  O  O409  1  0.61459417  0.50890148  0.00160846  1
  O  O410  1  0.63086253  0.50738560  0.50404983  1
  O  O411  1  0.37316139  0.37920356  0.11166682  1
  O  O412  1  0.37841832  0.37754737  0.60994580  1
  O  O413  1  0.36750298  0.86316505  0.13199639  1
  O  O414  1  0.36186806  0.87441060  0.63017194  1
  O  O415  1  0.88515957  0.36162546  0.13302488  1
  O  O416  1  0.86528923  0.37000432  0.61410953  1
  O  O417  1  0.87020442  0.87020747  0.11929196  1
  O  O418  1  0.87037420  0.86530157  0.62554901  1
  O  O419  1  0.13658831  0.13415875  0.36583481  1
  O  O420  1  0.12560117  0.13471207  0.88520520  1
  O  O421  1  0.14269099  0.64035920  0.36094730  1
  O  O422  1  0.12915218  0.62960402  0.87784160  1
  O  O423  1  0.63052595  0.12211815  0.38907178  1
  O  O424  1  0.62596502  0.13357770  0.88182202  1
  O  O425  1  0.62111683  0.63623498  0.38264275  1
  O  O426  1  0.63478895  0.62915068  0.87922845  1
