# generated using pymatgen
data_V85Zn86O256
_symmetry_space_group_name_H-M   'P 1'
_cell_length_a   16.95272484
_cell_length_b   16.97571446
_cell_length_c   16.96351475
_cell_angle_alpha   90.08373606
_cell_angle_beta   90.04243397
_cell_angle_gamma   89.91487949
_symmetry_Int_Tables_number   1
_chemical_formula_structural   V85Zn86O256
_chemical_formula_sum   'V85 Zn86 O256'
_cell_volume   4881.82664927
_cell_formula_units_Z   1
loop_
 _symmetry_equiv_pos_site_id
 _symmetry_equiv_pos_as_xyz
  1  'x, y, z'
loop_
 _atom_site_type_symbol
 _atom_site_label
 _atom_site_symmetry_multiplicity
 _atom_site_fract_x
 _atom_site_fract_y
 _atom_site_fract_z
 _atom_site_occupancy
  V  V0  1  0.74960671  0.24783190  0.00587990  1
  V  V1  1  0.74671115  0.86542337  0.11842440  1
  V  V2  1  0.47647715  0.88026177  0.38024881  1
  V  V3  1  0.37842251  0.62251824  0.74792628  1
  V  V4  1  0.00310116  0.87456104  0.86683237  1
  V  V5  1  0.25150724  0.74878736  0.00091118  1
  V  V6  1  0.49850788  0.12334290  0.12523228  1
  V  V7  1  0.49505579  0.38468576  0.87319687  1
  V  V8  1  0.26006008  0.37130279  0.61826174  1
  V  V9  1  0.63181789  0.63044890  0.50044712  1
  V  V10  1  0.87653884  0.25646098  0.62247065  1
  V  V11  1  0.48608940  0.00663419  0.50081518  1
  V  V12  1  0.87133784  0.49734442  0.37028386  1
  V  V13  1  0.75480315  0.25477808  0.49817054  1
  V  V14  1  0.86942055  0.87116831  0.50569534  1
  V  V15  1  0.12058031  0.62824169  0.50021206  1
  V  V16  1  0.13202530  0.25087871  0.38218533  1
  V  V17  1  -0.00138916  0.50089953  -0.00288912  1
  V  V18  1  0.61767490  0.88035837  0.75239355  1
  V  V19  1  0.75030410  0.12423352  0.37521435  1
  V  V20  1  0.24748476  0.87289409  0.12520294  1
  V  V21  1  0.24575312  0.62804742  0.37908602  1
  V  V22  1  0.51298060  0.49735224  0.01270784  1
  V  V23  1  0.12850281  -0.00866482  0.62197085  1
  V  V24  1  0.37296888  0.24981442  0.12496648  1
  V  V25  1  0.12171135  0.12760267  -0.00201841  1
  V  V26  1  0.74824864  -0.00500579  0.24916337  1
  V  V27  1  0.49691687  -0.00233748  -0.01014404  1
  V  V28  1  0.13815938  0.87468278  0.74609102  1
  V  V29  1  0.50150953  0.62812744  0.62346285  1
  V  V30  1  0.87617577  0.00207555  0.87478852  1
  V  V31  1  0.26382808  0.03154592  0.72522769  1
  V  V32  1  0.62909877  0.38916634  0.24815129  1
  V  V33  1  -0.00421574  0.50184312  0.50585875  1
  V  V34  1  0.74994195  0.12628564  0.87553947  1
  V  V35  1  0.38087031  0.74928313  0.12674600  1
  V  V36  1  -0.00244070  0.37393670  0.39096435  1
  V  V37  1  0.74850031  0.62545990  0.36616359  1
  V  V38  1  0.50374398  0.50237266  0.50445681  1
  V  V39  1  0.87768952  -0.01271787  0.37395021  1
  V  V40  1  0.37411125  0.12163400  0.25462850  1
  V  V41  1  0.74788213  0.00389337  0.74104883  1
  V  V42  1  0.61950367  0.25177747  0.87281642  1
  V  V43  1  0.26020394  0.62157129  0.87429111  1
  V  V44  1  0.62241944  0.12475150  0.00074209  1
  V  V45  1  0.12525279  0.74693480  0.87146292  1
  V  V46  1  0.86682808  0.50637303  0.86290035  1
  V  V47  1  -0.00170746  0.12405237  0.12682553  1
  V  V48  1  0.24710386  0.37493768  0.12755608  1
  V  V49  1  0.50171302  0.37909505  0.37491292  1
  V  V50  1  0.13005975  0.12568482  0.49853514  1
  V  V51  1  0.00063973  0.12393562  0.62360840  1
  V  V52  1  0.87339633  0.73743596  0.62563442  1
  V  V53  1  0.25549037  0.12195042  0.87970544  1
  V  V54  1  0.62666224  0.24970964  0.37348546  1
  V  V55  1  0.37535336  0.87434995  -0.00632025  1
  V  V56  1  0.37089642  0.76219910  0.61801804  1
  V  V57  1  0.25189314  -0.00060913  0.25546052  1
  V  V58  1  0.00026698  0.73210499  0.74402886  1
  V  V59  1  0.37836285  0.36556110  0.50073865  1
  V  V60  1  0.12552782  0.50471933  0.62713559  1
  V  V61  1  0.48512417  0.24184606  0.73716455  1
  V  V62  1  0.37275159  0.38273981  -0.00156395  1
  V  V63  1  0.24447174  0.25377276  -0.00585266  1
  V  V64  1  0.24608236  0.76171500  0.49988212  1
  V  V65  1  0.62354205  -0.00094020  0.12479817  1
  V  V66  1  0.49903074  0.75674329  0.75631473  1
  V  V67  1  0.12106808  0.37437071  0.25366878  1
  V  V68  1  -0.00020522  0.63008914  0.12222090  1
  V  V69  1  0.87635897  0.12309210  0.25226843  1
  V  V70  1  0.50154116  0.25067127  0.24910958  1
  V  V71  1  0.87780457  0.12867708  0.74973259  1
  V  V72  1  0.11814464  0.87072864  0.26134892  1
  V  V73  1  0.87213773  0.86417768  -0.00464852  1
  V  V74  1  0.12635278  0.62245126  -0.00110276  1
  V  V75  1  0.87768590  0.37306564  -0.00299893  1
  V  V76  1  0.62660921  0.38131054  0.74766059  1
  V  V77  1  0.63055850  0.75975819  0.38051125  1
  V  V78  1  -0.00059994  -0.00691139  0.49471168  1
  V  V79  1  0.24875596  0.50212093  0.25349947  1
  V  V80  1  0.12325340  -0.00399130  0.12522864  1
  V  V81  1  0.74882651  0.37881139  0.62644464  1
  V  V82  1  -0.00178957  0.74984893  0.26538464  1
  V  V83  1  0.25632890  0.49885893  0.75048135  1
  V  V84  1  0.74993884  0.38959120  0.13065854  1
  Zn  Zn85  1  0.74438946  0.87043251  0.62140336  1
  Zn  Zn86  1  0.87072726  0.74449271  0.11976289  1
  Zn  Zn87  1  0.61771937  0.87534646  0.25290056  1
  Zn  Zn88  1  0.87463010  0.25037470  0.12895724  1
  Zn  Zn89  1  0.25419345  0.12652183  0.37757202  1
  Zn  Zn90  1  0.66917702  0.54379608  0.66827039  1
  Zn  Zn91  1  0.12382124  0.50029741  0.12662140  1
  Zn  Zn92  1  0.49815125  0.74966270  0.25650296  1
  Zn  Zn93  1  0.37360617  0.62774443  0.25250932  1
  Zn  Zn94  1  0.13216662  0.36619242  0.75520962  1
  Zn  Zn95  1  0.01498849  0.36443508  0.87457654  1
  Zn  Zn96  1  0.63565400  0.75651213  0.88146838  1
  Zn  Zn97  1  0.50529767  0.61545521  0.13372995  1
  Zn  Zn98  1  -0.00068813  0.25005330  0.25456526  1
  Zn  Zn99  1  0.01952097  0.24431391  0.76028110  1
  Zn  Zn100  1  0.37504028  -0.00217200  0.86668862  1
  Zn  Zn101  1  0.00000647  -0.00322606  -0.00177706  1
  Zn  Zn102  1  0.87105674  0.62260990  0.24632015  1
  Zn  Zn103  1  0.61977456  0.12626782  0.50960657  1
  Zn  Zn104  1  0.64638196  0.65036423  0.00949835  1
  Zn  Zn105  1  0.61389189  0.00625519  0.62265598  1
  Zn  Zn106  1  0.37429697  0.50286108  0.37847538  1
  Zn  Zn107  1  0.18539780  0.18844487  0.18824634  1
  Zn  Zn108  1  0.20607463  0.18652888  0.67699204  1
  Zn  Zn109  1  0.18420327  0.68855869  0.18910916  1
  Zn  Zn110  1  0.18962332  0.68647112  0.68363252  1
  Zn  Zn111  1  0.68745403  0.18702928  0.18955966  1
  Zn  Zn112  1  0.68341097  0.19107160  0.68775264  1
  Zn  Zn113  1  0.67742729  0.68657040  0.19071196  1
  Zn  Zn114  1  0.71374070  0.70810211  0.73026896  1
  Zn  Zn115  1  0.31316019  0.31338770  0.31582275  1
  Zn  Zn116  1  0.31027649  0.31376118  0.81410688  1
  Zn  Zn117  1  0.30483812  0.81013396  0.31307230  1
  Zn  Zn118  1  0.31742710  0.80712412  0.81339197  1
  Zn  Zn119  1  0.81576804  0.31432583  0.31268323  1
  Zn  Zn120  1  0.81582694  0.31381829  0.81134809  1
  Zn  Zn121  1  0.81106724  0.80770253  0.31108952  1
  Zn  Zn122  1  0.81890004  0.82365737  0.80026161  1
  Zn  Zn123  1  0.18642860  0.44017985  0.44108636  1
  Zn  Zn124  1  0.18876195  0.43994533  0.93334502  1
  Zn  Zn125  1  0.18754585  0.93859550  0.43476782  1
  Zn  Zn126  1  0.18980617  0.93991549  0.93511158  1
  Zn  Zn127  1  0.68743292  0.44004549  0.44028205  1
  Zn  Zn128  1  0.68855107  0.43045042  0.94186896  1
  Zn  Zn129  1  0.68480723  0.94269248  0.44303681  1
  Zn  Zn130  1  0.68615759  0.93482426  0.93510679  1
  Zn  Zn131  1  0.31148556  0.06104928  0.06543530  1
  Zn  Zn132  1  0.30997354  0.05759381  0.56040625  1
  Zn  Zn133  1  0.31450558  0.56414052  0.06758641  1
  Zn  Zn134  1  0.31595492  0.56309368  0.56171095  1
  Zn  Zn135  1  0.81316270  0.05717451  0.06194941  1
  Zn  Zn136  1  0.81138745  0.06799191  0.55914116  1
  Zn  Zn137  1  0.81454496  0.56272066  0.05903049  1
  Zn  Zn138  1  0.81437368  0.56279996  0.55732589  1
  Zn  Zn139  1  0.43335188  0.43560692  0.19131497  1
  Zn  Zn140  1  0.44336774  0.43923879  0.68736520  1
  Zn  Zn141  1  0.43678531  0.93479590  0.18748766  1
  Zn  Zn142  1  0.43509826  0.93872468  0.68206249  1
  Zn  Zn143  1  0.93827125  0.43975184  0.18713171  1
  Zn  Zn144  1  0.94566244  0.43026712  0.68893308  1
  Zn  Zn145  1  0.93602718  0.93232916  0.18499274  1
  Zn  Zn146  1  0.93874969  0.93694662  0.68571385  1
  Zn  Zn147  1  0.06314549  0.06014356  0.31377168  1
  Zn  Zn148  1  0.06983739  0.06108003  0.80863156  1
  Zn  Zn149  1  0.06158333  0.56372896  0.31596955  1
  Zn  Zn150  1  0.06479602  0.55361169  0.81621401  1
  Zn  Zn151  1  0.56068146  0.05961516  0.31806571  1
  Zn  Zn152  1  0.56118045  0.06700624  0.80893204  1
  Zn  Zn153  1  0.55959145  0.56781265  0.31550487  1
  Zn  Zn154  1  0.68630008  0.57213185  0.83955813  1
  Zn  Zn155  1  0.43886868  0.18821382  0.43580067  1
  Zn  Zn156  1  0.43518849  0.19123637  0.93572673  1
  Zn  Zn157  1  0.43563430  0.69105286  0.43663787  1
  Zn  Zn158  1  0.49452401  0.62818444  0.88911915  1
  Zn  Zn159  1  0.94038895  0.18600884  0.43875432  1
  Zn  Zn160  1  0.93906784  0.18880029  0.93923061  1
  Zn  Zn161  1  0.93254000  0.68399371  0.44204675  1
  Zn  Zn162  1  0.81153816  0.68676494  0.91854828  1
  Zn  Zn163  1  0.06085682  0.31040023  0.06573591  1
  Zn  Zn164  1  0.08526523  0.29735785  0.59208091  1
  Zn  Zn165  1  0.05996023  0.81067568  0.05847214  1
  Zn  Zn166  1  0.05762748  0.81062499  0.56123579  1
  Zn  Zn167  1  0.56385081  0.31559943  0.06506558  1
  Zn  Zn168  1  0.56394308  0.31025224  0.56327215  1
  Zn  Zn169  1  0.56076125  0.81300131  0.05894990  1
  Zn  Zn170  1  0.55999676  0.81949612  0.56230433  1
  O  O171  1  0.11742734  0.11633703  0.12137577  1
  O  O172  1  0.11793770  0.11134658  0.61511869  1
  O  O173  1  0.12021429  0.62352876  0.11562371  1
  O  O174  1  0.13041449  0.61284942  0.61602560  1
  O  O175  1  0.61996566  0.11975614  0.11937630  1
  O  O176  1  0.63172179  0.11973148  0.62294609  1
  O  O177  1  0.61568118  0.63308883  0.11720431  1
  O  O178  1  0.61058900  0.62910511  0.61455950  1
  O  O179  1  0.38367933  0.37745061  0.38154331  1
  O  O180  1  0.38242915  0.36820424  0.88709874  1
  O  O181  1  0.37829910  0.87458379  0.37607454  1
  O  O182  1  0.36804316  0.87656039  0.89017758  1
  O  O183  1  0.88581691  0.38237852  0.37223237  1
  O  O184  1  0.87394315  0.37650205  0.89042181  1
  O  O185  1  0.87035562  0.88367515  0.38015664  1
  O  O186  1  0.88306176  0.88367165  0.87616474  1
  O  O187  1  0.24357082  0.00407176  0.35889098  1
  O  O188  1  0.25264448  0.00988492  0.86981686  1
  O  O189  1  0.24987499  0.50746916  0.36944731  1
  O  O190  1  0.25094119  0.50778614  0.85965743  1
  O  O191  1  0.75719691  0.00379348  0.36670401  1
  O  O192  1  0.75783831  0.00635860  0.86601258  1
  O  O193  1  0.76131271  0.50775401  0.38348997  1
  O  O194  1  0.76115239  0.49013564  0.87785486  1
  O  O195  1  0.24628264  0.49326621  0.13501650  1
  O  O196  1  0.24754370  0.50029905  0.63448885  1
  O  O197  1  0.24005913  0.99453748  0.13290576  1
  O  O198  1  0.23674970  0.98385102  0.62368939  1
  O  O199  1  0.75575238  0.48715362  0.12666732  1
  O  O200  1  0.75095595  0.48240442  0.60965679  1
  O  O201  1  0.74418075  0.99460136  0.13206667  1
  O  O202  1  0.75685749  1.00297565  0.63699148  1
  O  O203  1  0.01135253  0.37587328  0.25642654  1
  O  O204  1  0.01128790  0.36458157  0.75184149  1
  O  O205  1  0.00395430  0.85923538  0.24378645  1
  O  O206  1  0.00986350  0.87884521  0.75869426  1
  O  O207  1  0.50841065  0.36888142  0.25369868  1
  O  O208  1  0.50478908  0.36762256  0.75816350  1
  O  O209  1  0.49796495  0.87639204  0.26627883  1
  O  O210  1  0.50468352  0.87034692  0.74377131  1
  O  O211  1  0.49325983  0.12884222  0.24558419  1
  O  O212  1  0.49822294  0.14307719  0.75600617  1
  O  O213  1  0.49182730  0.63045260  0.25105982  1
  O  O214  1  0.49314030  0.63737729  0.73690635  1
  O  O215  1  0.99210730  0.12302852  0.24463756  1
  O  O216  1  0.99877100  0.12451303  0.73923851  1
  O  O217  1  1.00441270  0.63650483  0.24208528  1
  O  O218  1  1.00859790  0.63462715  0.75234533  1
  O  O219  1  0.36571483  0.25694362  0.00802911  1
  O  O220  1  0.38334097  0.26566454  0.49700729  1
  O  O221  1  0.36502675  0.76062969  0.01146912  1
  O  O222  1  0.36108256  0.74576012  0.51002880  1
  O  O223  1  0.86601952  0.25490475  0.00506880  1
  O  O224  1  0.86563875  0.24367973  0.50730263  1
  O  O225  1  0.87075741  0.76231589  -0.00718566  1
  O  O226  1  0.88491516  0.75869174  0.51568309  1
  O  O227  1  0.11886982  0.23752205  0.49516317  1
  O  O228  1  0.13373411  0.23929310  1.01123392  1
  O  O229  1  0.13584484  0.74191935  0.51044352  1
  O  O230  1  0.12971096  0.73910016  0.99365391  1
  O  O231  1  0.62948019  0.24799968  0.48610196  1
  O  O232  1  0.63005970  0.24630048  0.99368682  1
  O  O233  1  0.61800107  0.74302065  0.49214507  1
  O  O234  1  0.63460288  0.76603842  0.99455317  1
  O  O235  1  0.49536954  0.24416839  0.13028003  1
  O  O236  1  0.50018059  0.25290778  0.63797371  1
  O  O237  1  0.48565904  0.75901651  0.12932621  1
  O  O238  1  0.48678740  0.74672429  0.62349183  1
  O  O239  1  0.99723680  0.23566474  0.13068469  1
  O  O240  1  0.98879341  0.23373151  0.61340838  1
  O  O241  1  0.99678836  0.73781611  0.12187680  1
  O  O242  1  0.99444922  0.75054075  0.63788351  1
  O  O243  1  0.00736229  0.25859213  0.37585106  1
  O  O244  1  -0.00144279  0.24987700  0.87169116  1
  O  O245  1  -0.00350775  0.74496687  0.36360448  1
  O  O246  1  0.01004526  0.76015477  0.85644659  1
  O  O247  1  0.50946114  0.25714868  0.36822806  1
  O  O248  1  0.50798601  0.25954589  0.87618755  1
  O  O249  1  0.50336876  0.76719106  0.37908576  1
  O  O250  1  0.49299795  0.74844191  0.85567780  1
  O  O251  1  0.23394634  0.11548139  0.49351092  1
  O  O252  1  0.24154414  0.13125545  0.99834587  1
  O  O253  1  0.24116998  0.62902676  0.49491287  1
  O  O254  1  0.24634021  0.62689747  0.99460986  1
  O  O255  1  0.74825003  0.13600201  0.49011707  1
  O  O256  1  0.74484100  0.12978081  0.99597337  1
  O  O257  1  0.73509399  0.62175161  0.49475747  1
  O  O258  1  0.75443569  0.62169348  0.98932428  1
  O  O259  1  0.25390525  0.36891890  0.00581512  1
  O  O260  1  0.26504142  0.38861652  0.50859568  1
  O  O261  1  0.25239565  0.87040824  0.00650234  1
  O  O262  1  0.24224487  0.86027084  0.49675232  1
  O  O263  1  0.75602404  0.36646221  0.01329780  1
  O  O264  1  0.74261659  0.36034131  0.50580300  1
  O  O265  1  0.76026609  0.88666535  0.00843859  1
  O  O266  1  0.76516677  0.88339096  0.50361704  1
  O  O267  1  0.13266854  0.49256716  0.25199044  1
  O  O268  1  0.13558840  0.50040237  0.74063750  1
  O  O269  1  0.12711693  0.99358166  0.23981831  1
  O  O270  1  0.13873906  0.99456707  0.73838769  1
  O  O271  1  0.62263654  0.48748475  0.25801559  1
  O  O272  1  0.61767523  0.48198072  0.75476302  1
  O  O273  1  0.63393260  0.99949696  0.24585234  1
  O  O274  1  0.63157387  0.99896476  0.74867555  1
  O  O275  1  0.36347761  0.00960048  0.24033818  1
  O  O276  1  0.35813966  -0.00858219  0.74947923  1
  O  O277  1  0.35914966  0.49912223  0.25375883  1
  O  O278  1  0.36937339  0.51064596  0.74219289  1
  O  O279  1  0.87080089  0.00402716  0.25555171  1
  O  O280  1  0.86991022  0.00610872  0.75839278  1
  O  O281  1  0.88476904  0.50500047  0.26579070  1
  O  O282  1  0.88195462  0.48696962  0.76659231  1
  O  O283  1  0.11925369  0.36926632  0.37283957  1
  O  O284  1  0.13116443  0.37210385  0.86965045  1
  O  O285  1  0.12186512  0.88018742  0.36002054  1
  O  O286  1  0.12022428  0.87019426  0.86835785  1
  O  O287  1  0.62283090  0.36823540  0.36824893  1
  O  O288  1  0.61765379  0.36700863  0.87115647  1
  O  O289  1  0.63166132  0.86617519  0.37524440  1
  O  O290  1  0.62711809  0.87815248  0.85717380  1
  O  O291  1  0.37831850  0.13166690  0.13277110  1
  O  O292  1  0.29900151  0.11221478  0.65874070  1
  O  O293  1  0.37804131  0.63654649  0.12878761  1
  O  O294  1  0.38261425  0.63343782  0.62945125  1
  O  O295  1  0.88208768  0.12055446  0.13367261  1
  O  O296  1  0.88262489  0.12987123  0.62981883  1
  O  O297  1  0.88483138  0.62542329  0.12756625  1
  O  O298  1  0.87565088  0.63862732  0.61800561  1
  O  O299  1  0.25287186  0.25559130  0.11843502  1
  O  O300  1  0.25594489  0.27325797  0.61570821  1
  O  O301  1  0.25344851  0.75468259  0.12019855  1
  O  O302  1  0.26097468  0.74535738  0.61351737  1
  O  O303  1  0.75106706  0.24816083  0.11423325  1
  O  O304  1  0.75788773  0.25561567  0.61624121  1
  O  O305  1  0.75233042  0.76417904  0.13574054  1
  O  O306  1  0.77021859  0.75452826  0.63771892  1
  O  O307  1  0.23581849  0.24927996  0.37326040  1
  O  O308  1  0.25229845  0.24321530  0.88966343  1
  O  O309  1  0.24982983  0.74353259  0.39067219  1
  O  O310  1  0.24532528  0.74083264  0.88059592  1
  O  O311  1  0.74605376  0.24738975  0.37941318  1
  O  O312  1  0.74240116  0.24801795  0.88726112  1
  O  O313  1  0.74279258  0.74086613  0.37591027  1
  O  O314  1  0.74974153  0.74573647  0.84279956  1
  O  O315  1  0.00426157  0.12069500  0.01119201  1
  O  O316  1  0.00645916  0.11211793  0.50405775  1
  O  O317  1  0.01145491  0.61498762  0.00706767  1
  O  O318  1  0.01297340  0.61858566  0.49510034  1
  O  O319  1  0.50282547  0.12001983  0.00604034  1
  O  O320  1  0.50258607  0.11079570  0.48622829  1
  O  O321  1  0.48797251  0.59699495  0.00243362  1
  O  O322  1  0.50406373  0.62105334  0.50376905  1
  O  O323  1  0.49889173  0.38332660  0.49631584  1
  O  O324  1  0.49114344  0.37852680  0.99810313  1
  O  O325  1  0.49884040  0.88750440  0.48641192  1
  O  O326  1  0.48690742  0.88798614  1.00753050  1
  O  O327  1  1.00761950  0.38400544  0.49231313  1
  O  O328  1  0.99230877  0.38103738  1.00522022  1
  O  O329  1  0.98984274  0.88688776  0.50280549  1
  O  O330  1  0.99342319  0.87503604  0.98503845  1
  O  O331  1  0.49764236  0.49339459  0.38214505  1
  O  O332  1  0.49762864  0.48506386  0.89060426  1
  O  O333  1  0.49954697  0.98637647  0.38074788  1
  O  O334  1  0.49527034  1.00763472  0.88653038  1
  O  O335  1  0.99606414  0.49315794  0.38346867  1
  O  O336  1  0.99536022  0.49315085  0.88782274  1
  O  O337  1  0.98951848  1.00313888  0.38232715  1
  O  O338  1  0.99393411  0.99436164  0.87325208  1
  O  O339  1  0.00545251  0.00697874  0.12442087  1
  O  O340  1  0.00303798  0.00883395  0.61718171  1
  O  O341  1  0.00207960  0.50865592  0.11572049  1
  O  O342  1  0.01067965  0.49341676  0.61586330  1
  O  O343  1  0.50526998  0.00627133  0.11934496  1
  O  O344  1  0.49414518  -0.00122972  0.60624952  1
  O  O345  1  0.49689487  0.49272841  0.11632235  1
  O  O346  1  0.49934307  0.51327187  0.61736070  1
  O  O347  1  0.23885133  0.38093767  0.25032335  1
  O  O348  1  0.25506940  0.38325182  0.73774289  1
  O  O349  1  0.23963496  0.88065852  0.24424215  1
  O  O350  1  0.23760359  0.86620278  0.75368012  1
  O  O351  1  0.74569117  0.36894810  0.23701131  1
  O  O352  1  0.74062172  0.36658926  0.73904362  1
  O  O353  1  0.75402169  0.88669149  0.24178615  1
  O  O354  1  0.74280137  0.89074022  0.74413357  1
  O  O355  1  0.25604805  0.11715821  0.24782724  1
  O  O356  1  0.22029883  0.12503426  0.77740513  1
  O  O357  1  0.24604501  0.61798362  0.25865381  1
  O  O358  1  0.25915825  0.62043106  0.75322435  1
  O  O359  1  0.75816179  0.11393890  0.25227039  1
  O  O360  1  0.75621334  0.12261176  0.75859414  1
  O  O361  1  0.74957383  0.62665952  0.26259872  1
  O  O362  1  0.73288915  0.60092779  0.74128698  1
  O  O363  1  0.37188672  0.13414738  0.35826571  1
  O  O364  1  0.35993805  0.12221875  0.88236582  1
  O  O365  1  0.36015194  0.62477297  0.37523451  1
  O  O366  1  0.37914379  0.62752648  0.85477858  1
  O  O367  1  0.87069630  0.11605147  0.36748098  1
  O  O368  1  0.87010585  0.11826737  0.87176853  1
  O  O369  1  0.86449524  0.61877443  0.37543022  1
  O  O370  1  0.88005343  0.60460044  0.87132213  1
  O  O371  1  0.12894730  0.37557313  0.13640581  1
  O  O372  1  0.14608478  0.39338906  0.61526467  1
  O  O373  1  0.12694444  0.88111398  0.12789284  1
  O  O374  1  0.11180066  0.88436774  0.63351877  1
  O  O375  1  0.64103980  0.37006589  0.13325598  1
  O  O376  1  0.63481285  0.36816837  0.63492795  1
  O  O377  1  0.63136617  0.88356679  0.13013120  1
  O  O378  1  0.62689197  0.88362699  0.63378584  1
  O  O379  1  0.12210409  0.25781565  0.25968254  1
  O  O380  1  0.12132534  0.25810785  0.70274828  1
  O  O381  1  0.11006567  0.75831710  0.24532844  1
  O  O382  1  0.11740326  0.75546648  0.74802755  1
  O  O383  1  0.62264090  0.25558797  0.25887356  1
  O  O384  1  0.61942814  0.25726684  0.76230600  1
  O  O385  1  0.61985703  0.75554535  0.26582576  1
  O  O386  1  0.61249579  0.76426037  0.74695374  1
  O  O387  1  0.37963829  0.24601019  0.24295377  1
  O  O388  1  0.38653802  0.25533219  0.75186616  1
  O  O389  1  0.37010007  0.75098774  0.23998170  1
  O  O390  1  0.37813964  0.74571219  0.73573788  1
  O  O391  1  0.87625364  0.23538116  0.25002941  1
  O  O392  1  0.87401425  0.24115121  0.73908190  1
  O  O393  1  0.88855838  0.74720521  0.24588842  1
  O  O394  1  0.89332094  0.75408212  0.73911336  1
  O  O395  1  0.38939774  0.49647758  0.49816305  1
  O  O396  1  0.37246610  0.48410174  1.00693540  1
  O  O397  1  0.38503141  1.00786903  0.49419439  1
  O  O398  1  0.38063770  0.99287061  1.00204792  1
  O  O399  1  0.89051334  0.50623585  0.49060212  1
  O  O400  1  0.88426229  0.48984937  0.99470944  1
  O  O401  1  0.88073881  0.99635502  0.49198971  1
  O  O402  1  0.87724479  0.99495331  0.98571676  1
  O  O403  1  0.12380600  0.00389024  0.01301057  1
  O  O404  1  0.11656032  0.00085862  0.50338138  1
  O  O405  1  0.12192218  0.50964093  0.00087138  1
  O  O406  1  0.11712136  0.50949354  0.50494861  1
  O  O407  1  0.61585541  0.00443794  0.00319793  1
  O  O408  1  0.61177104  0.00531123  0.50011542  1
  O  O409  1  0.61264646  0.49022367  0.00383695  1
  O  O410  1  0.61189345  0.51118346  0.49403275  1
  O  O411  1  0.36618027  0.36689004  0.12179843  1
  O  O412  1  0.36761390  0.38563737  0.61579076  1
  O  O413  1  0.36454248  0.87068924  0.11893827  1
  O  O414  1  0.37339607  0.86025591  0.62239687  1
  O  O415  1  0.86646490  0.37233335  0.11989050  1
  O  O416  1  0.86886932  0.36187419  0.62847817  1
  O  O417  1  0.86833791  0.87367270  0.11110112  1
  O  O418  1  0.87527168  0.86908594  0.61826566  1
  O  O419  1  0.12241926  0.13396589  0.38103776  1
  O  O420  1  0.12570114  0.11447946  0.89608265  1
  O  O421  1  0.13585268  0.62193465  0.38483987  1
  O  O422  1  0.13305724  0.62789758  0.88209108  1
  O  O423  1  0.63387815  0.13514123  0.36978218  1
  O  O424  1  0.62969268  0.13338275  0.88175339  1
  O  O425  1  0.63034219  0.63507173  0.38166104  1
  O  O426  1  0.61049941  0.63601411  0.89169191  1
