# generated using pymatgen
data_V85Zn86O256
_symmetry_space_group_name_H-M   'P 1'
_cell_length_a   16.91648454
_cell_length_b   16.92625714
_cell_length_c   16.91905794
_cell_angle_alpha   89.99537060
_cell_angle_beta   89.98127111
_cell_angle_gamma   89.93591639
_symmetry_Int_Tables_number   1
_chemical_formula_structural   V85Zn86O256
_chemical_formula_sum   'V85 Zn86 O256'
_cell_volume   4844.47737500
_cell_formula_units_Z   1
loop_
 _symmetry_equiv_pos_site_id
 _symmetry_equiv_pos_as_xyz
  1  'x, y, z'
loop_
 _atom_site_type_symbol
 _atom_site_label
 _atom_site_symmetry_multiplicity
 _atom_site_fract_x
 _atom_site_fract_y
 _atom_site_fract_z
 _atom_site_occupancy
  V  V0  1  0.88010524  0.24918335  0.13484887  1
  V  V1  1  0.11705931  0.62427155  0.50126460  1
  V  V2  1  0.49974316  0.12331485  0.12541731  1
  V  V3  1  0.62684174  0.25054790  0.87214915  1
  V  V4  1  0.49127640  0.49446766  0.50085705  1
  V  V5  1  0.11670529  0.87322597  0.25199849  1
  V  V6  1  0.36760808  0.86988863  0.01252725  1
  V  V7  1  -0.00161946  0.12597605  0.14269515  1
  V  V8  1  0.87507494  0.12369658  0.75139536  1
  V  V9  1  0.12257706  -0.00894930  0.12114705  1
  V  V10  1  0.11516199  0.49308990  0.62417388  1
  V  V11  1  0.49707749  0.87127143  0.87581912  1
  V  V12  1  0.37352865  0.24924993  0.12554474  1
  V  V13  1  0.00014917  0.87039738  0.87035918  1
  V  V14  1  0.25884074  0.49488030  0.73912268  1
  V  V15  1  0.25269681  0.11922121  0.37873601  1
  V  V16  1  0.00228516  0.37552940  0.37270032  1
  V  V17  1  0.75024837  0.37656319  0.12337672  1
  V  V18  1  0.24493803  0.38160566  0.12327685  1
  V  V19  1  0.88207391  -0.00061207  0.88119194  1
  V  V20  1  0.62346074  0.61429852  0.50288270  1
  V  V21  1  0.00017457  0.25983192  0.75483999  1
  V  V22  1  0.24937921  -0.00504473  0.24751940  1
  V  V23  1  0.12746162  0.25017946  0.36843765  1
  V  V24  1  0.75211009  0.62353830  0.37502057  1
  V  V25  1  0.62916562  0.62762077  -0.00415442  1
  V  V26  1  0.79612421  0.19225833  0.44441272  1
  V  V27  1  0.75139695  0.24968577  0.00014759  1
  V  V28  1  0.63152892  0.38769758  0.74638065  1
  V  V29  1  0.49737242  0.61936776  0.62805475  1
  V  V30  1  0.49316690  0.00005146  0.49888233  1
  V  V31  1  0.62109077  0.87485028  0.74817939  1
  V  V32  1  0.00707520  0.49418476  -0.00611297  1
  V  V33  1  0.87817321  0.37647641  -0.00788752  1
  V  V34  1  0.24873442  0.12697812  0.87415272  1
  V  V35  1  0.24977435  0.26265689  0.50509878  1
  V  V36  1  0.88386483  0.50377928  0.37536167  1
  V  V37  1  0.12041361  0.74273972  0.87412353  1
  V  V38  1  0.62240978  0.74778298  0.37251860  1
  V  V39  1  0.86384995  0.50582080  0.86847123  1
  V  V40  1  0.75505343  0.01390207  0.25643424  1
  V  V41  1  0.12357716  0.38247806  0.24579880  1
  V  V42  1  0.62177274  0.50706389  0.12736162  1
  V  V43  1  0.86725760  0.25108104  0.62540901  1
  V  V44  1  0.50163852  -0.00240555  0.00051949  1
  V  V45  1  0.89120274  0.87748211  0.00426159  1
  V  V46  1  0.48095148  0.74371627  0.24582525  1
  V  V47  1  0.25593600  0.63017375  0.37004144  1
  V  V48  1  0.24820341  0.24807222  -0.00040276  1
  V  V49  1  0.37256447  0.74956527  0.62333423  1
  V  V50  1  0.87287326  0.87222726  0.49855253  1
  V  V51  1  0.49866820  0.25043689  0.25303401  1
  V  V52  1  0.37861086  0.12505025  0.73814280  1
  V  V53  1  0.25876916  0.62472204  0.86654274  1
  V  V54  1  0.36932912  0.49092426  0.37090885  1
  V  V55  1  0.75638867  0.87089291  0.12752509  1
  V  V56  1  0.87339971  0.38271178  0.49897379  1
  V  V57  1  0.89707949  0.75113146  0.12858060  1
  V  V58  1  0.50105812  0.37372311  0.87164388  1
  V  V59  1  0.74921186  0.12096823  0.87667959  1
  V  V60  1  0.49333664  0.74432311  0.75076350  1
  V  V61  1  0.11326683  0.75015598  0.37162771  1
  V  V62  1  0.61547903  0.13207252  0.49688951  1
  V  V63  1  0.75046574  0.74827430  0.50359486  1
  V  V64  1  0.37602425  0.37459119  -0.00344542  1
  V  V65  1  0.37385974  0.00183957  0.87501589  1
  V  V66  1  0.74899699  -0.00129313  0.75214163  1
  V  V67  1  0.86212621  0.63720778  0.75165834  1
  V  V68  1  0.62211846  0.37805273  0.25207059  1
  V  V69  1  0.62684977  0.87298937  0.25065182  1
  V  V70  1  0.74807875  0.39007596  0.62440395  1
  V  V71  1  0.49204233  0.87813598  0.37534250  1
  V  V72  1  0.12500609  0.87186302  0.74846134  1
  V  V73  1  0.61888459  0.00670488  0.62363600  1
  V  V74  1  0.62934446  -0.00166577  0.12432524  1
  V  V75  1  0.62542447  0.12234781  -0.00067704  1
  V  V76  1  0.37512331  0.11784029  0.25510752  1
  V  V77  1  0.00239445  0.12512660  0.62737246  1
  V  V78  1  0.12634567  0.62094653  0.00493780  1
  V  V79  1  0.37824261  0.26427438  0.62008461  1
  V  V80  1  -0.00166995  0.63807717  0.63867085  1
  V  V81  1  0.11365139  0.12226096  -0.00020366  1
  V  V82  1  -0.00050812  -0.00096978  0.49967493  1
  V  V83  1  0.88496305  0.63041706  0.25016987  1
  V  V84  1  0.75125703  0.87199842  0.62561536  1
  Zn  Zn85  1  0.25366660  0.74911507  0.00403606  1
  Zn  Zn86  1  0.25077610  0.51142910  0.23815461  1
  Zn  Zn87  1  0.12840261  0.12400806  0.50245913  1
  Zn  Zn88  1  0.00430127  0.61376255  0.12689912  1
  Zn  Zn89  1  0.37929922  0.50279431  0.86769672  1
  Zn  Zn90  1  0.36872795  0.87763694  0.49868549  1
  Zn  Zn91  1  0.75870555  0.74469961  -0.00090511  1
  Zn  Zn92  1  0.75233474  0.50252778  0.24950589  1
  Zn  Zn93  1  0.12720692  0.37605327  0.75279169  1
  Zn  Zn94  1  0.24961283  0.87623578  0.62395348  1
  Zn  Zn95  1  0.11736287  0.25645000  0.87960553  1
  Zn  Zn96  1  0.62671566  0.25067410  0.37653328  1
  Zn  Zn97  1  0.24645658  0.75225254  0.50176485  1
  Zn  Zn98  1  0.87119345  0.01218646  0.37514399  1
  Zn  Zn99  1  -0.00732398  0.87584342  0.37210684  1
  Zn  Zn100  1  0.63102757  0.74253545  0.87043152  1
  Zn  Zn101  1  0.50560895  0.24688037  0.74019939  1
  Zn  Zn102  1  0.48109924  0.62573055  0.12498767  1
  Zn  Zn103  1  0.49558522  0.37244082  0.37990487  1
  Zn  Zn104  1  0.49900969  0.50197287  0.00040876  1
  Zn  Zn105  1  0.12517055  -0.00238895  0.62664734  1
  Zn  Zn106  1  0.24809729  -0.00062579  0.74736131  1
  Zn  Zn107  1  0.18664598  0.18705926  0.18698431  1
  Zn  Zn108  1  0.18828761  0.18840068  0.68682450  1
  Zn  Zn109  1  0.29779572  0.69285291  0.17816986  1
  Zn  Zn110  1  0.18603925  0.68653113  0.69021653  1
  Zn  Zn111  1  0.68636975  0.19114164  0.18608422  1
  Zn  Zn112  1  0.68640312  0.18854583  0.68535636  1
  Zn  Zn113  1  0.69433395  0.68739561  0.18659938  1
  Zn  Zn114  1  0.68122717  0.68575676  0.68572608  1
  Zn  Zn115  1  0.30808630  0.31147655  0.31114814  1
  Zn  Zn116  1  0.31051631  0.31178717  0.80825183  1
  Zn  Zn117  1  0.30580488  0.81646475  0.31884443  1
  Zn  Zn118  1  0.31105808  0.81047810  0.81325420  1
  Zn  Zn119  1  0.81400293  0.32103557  0.30760337  1
  Zn  Zn120  1  0.81201724  0.31585675  0.81121039  1
  Zn  Zn121  1  0.81361571  0.81124663  0.31244878  1
  Zn  Zn122  1  0.80982506  0.81055439  0.81706758  1
  Zn  Zn123  1  0.18658629  0.44236983  0.43938949  1
  Zn  Zn124  1  0.18850468  0.43599038  0.92748831  1
  Zn  Zn125  1  0.18586193  0.93630228  0.43856018  1
  Zn  Zn126  1  0.18464567  0.93852017  0.93581435  1
  Zn  Zn127  1  0.69169928  0.43602558  0.43659198  1
  Zn  Zn128  1  0.68679477  0.44049092  0.93858038  1
  Zn  Zn129  1  0.68308090  0.93934886  0.43637170  1
  Zn  Zn130  1  0.69572403  0.91688820  0.93389004  1
  Zn  Zn131  1  0.30963124  0.05870486  0.06285498  1
  Zn  Zn132  1  0.30824495  0.06118552  0.56345579  1
  Zn  Zn133  1  0.31181286  0.55981612  0.05342296  1
  Zn  Zn134  1  0.31057559  0.56694213  0.55857296  1
  Zn  Zn135  1  0.81655971  0.06116082  0.06612577  1
  Zn  Zn136  1  0.81415153  0.05564478  0.56860459  1
  Zn  Zn137  1  0.81397613  0.56249279  0.06295896  1
  Zn  Zn138  1  0.81939957  0.56602290  0.56416256  1
  Zn  Zn139  1  0.43408681  0.44051972  0.18782986  1
  Zn  Zn140  1  0.44095833  0.43619257  0.68784261  1
  Zn  Zn141  1  0.43932998  0.93617916  0.19022061  1
  Zn  Zn142  1  0.43502757  0.93660050  0.68623936  1
  Zn  Zn143  1  0.93967608  0.43828320  0.18493786  1
  Zn  Zn144  1  0.93431986  0.44341138  0.68654423  1
  Zn  Zn145  1  0.93876540  0.94639486  0.18940268  1
  Zn  Zn146  1  0.93711280  0.93391953  0.68824149  1
  Zn  Zn147  1  0.06464288  0.05997924  0.31606805  1
  Zn  Zn148  1  0.06289730  0.06225726  0.81221422  1
  Zn  Zn149  1  0.06573823  0.56129971  0.31279311  1
  Zn  Zn150  1  0.06074196  0.55647222  0.81319283  1
  Zn  Zn151  1  0.56729136  0.06183440  0.31614285  1
  Zn  Zn152  1  0.55886236  0.06204284  0.81204359  1
  Zn  Zn153  1  0.55740891  0.56329826  0.31426132  1
  Zn  Zn154  1  0.56371941  0.56146475  0.81358286  1
  Zn  Zn155  1  0.43445589  0.18795810  0.43897789  1
  Zn  Zn156  1  0.43792111  0.18827403  0.93390122  1
  Zn  Zn157  1  0.43677083  0.68713351  0.43976505  1
  Zn  Zn158  1  0.44049899  0.68739758  0.94265605  1
  Zn  Zn159  1  0.95774934  0.19200565  0.43793760  1
  Zn  Zn160  1  0.93516951  0.18820616  0.93943845  1
  Zn  Zn161  1  0.93886793  0.68699584  0.44510645  1
  Zn  Zn162  1  0.93955355  0.68534383  0.93706995  1
  Zn  Zn163  1  0.06070882  0.31149806  0.06133705  1
  Zn  Zn164  1  0.05982457  0.31280043  0.55981262  1
  Zn  Zn165  1  0.11843747  0.76162558  0.11898299  1
  Zn  Zn166  1  0.06107528  0.81026762  0.56131111  1
  Zn  Zn167  1  0.56249474  0.31326533  0.06360224  1
  Zn  Zn168  1  0.56279659  0.31457020  0.56540923  1
  Zn  Zn169  1  0.56141864  0.81084467  0.06534306  1
  Zn  Zn170  1  0.56190524  0.81092811  0.56213083  1
  O  O171  1  0.11428559  0.12134544  0.12038244  1
  O  O172  1  0.11237643  0.12427560  0.62514455  1
  O  O173  1  0.12290383  0.62788546  0.10652163  1
  O  O174  1  0.11456700  0.62106523  0.62234704  1
  O  O175  1  0.61883721  0.12015729  0.11868723  1
  O  O176  1  0.62747323  0.11749938  0.61359711  1
  O  O177  1  0.62512740  0.61583759  0.12306299  1
  O  O178  1  0.61116287  0.62957979  0.61316855  1
  O  O179  1  0.37221820  0.38725250  0.37443181  1
  O  O180  1  0.38409227  0.37031609  0.87918478  1
  O  O181  1  0.38787533  0.87309605  0.37709025  1
  O  O182  1  0.38459648  0.88118105  0.87706877  1
  O  O183  1  0.88109234  0.38310312  0.37832436  1
  O  O184  1  0.87006646  0.38447784  0.88512242  1
  O  O185  1  0.87254415  0.87620880  0.38837312  1
  O  O186  1  0.88184744  0.88092538  0.88136397  1
  O  O187  1  0.24245808  0.01342674  0.36805054  1
  O  O188  1  0.25528631  0.01249641  0.87395851  1
  O  O189  1  0.25763700  0.51054949  0.37626529  1
  O  O190  1  0.25355683  0.50872867  0.86031965  1
  O  O191  1  0.74864120  -0.00242683  0.36113254  1
  O  O192  1  0.75798218  -0.00082655  0.86954619  1
  O  O193  1  0.76281876  0.50689570  0.37410038  1
  O  O194  1  0.76475437  0.50118886  0.87977675  1
  O  O195  1  0.24992336  0.48469635  0.12088223  1
  O  O196  1  0.24079624  0.51171588  0.63593820  1
  O  O197  1  0.23626744  1.00813682  0.13612442  1
  O  O198  1  0.24351036  0.99612842  0.62896610  1
  O  O199  1  0.74126526  0.49385373  0.12673232  1
  O  O200  1  0.75406661  0.48965452  0.62029659  1
  O  O201  1  0.74797174  0.99503868  0.13687278  1
  O  O202  1  0.73916167  0.99290243  0.63137329  1
  O  O203  1  0.00735774  0.37962800  0.26128075  1
  O  O204  1  -0.00552739  0.36091391  0.74350505  1
  O  O205  1  0.00936104  0.88720724  0.25659426  1
  O  O206  1  0.00494835  0.87701059  0.76202031  1
  O  O207  1  0.50429142  0.36671902  0.25062980  1
  O  O208  1  0.50900549  0.36992973  0.75577442  1
  O  O209  1  0.50534243  0.86529665  0.25664279  1
  O  O210  1  0.50212460  0.86832992  0.75644837  1
  O  O211  1  0.49447489  0.12873197  0.24793522  1
  O  O212  1  0.48321378  0.13032159  0.75753653  1
  O  O213  1  0.49939809  0.64196849  0.25124830  1
  O  O214  1  0.50607797  0.63171079  0.74143347  1
  O  O215  1  1.00279363  0.12660021  0.24138272  1
  O  O216  1  0.99338961  0.13118022  0.74316892  1
  O  O217  1  0.98955972  0.61765579  0.24727005  1
  O  O218  1  0.99477089  0.62439767  0.74222581  1
  O  O219  1  0.37095987  0.25714914  0.00401004  1
  O  O220  1  0.36413270  0.24650566  0.51096435  1
  O  O221  1  0.37513594  0.76562319  -0.00260571  1
  O  O222  1  0.37399368  0.75344140  0.50904096  1
  O  O223  1  0.87037489  0.25907077  0.00379815  1
  O  O224  1  0.86744192  0.25127514  0.50185677  1
  O  O225  1  0.87858079  0.75838884  0.00962390  1
  O  O226  1  0.86225478  0.75695036  0.49865681  1
  O  O227  1  0.13554195  0.24953248  0.49297423  1
  O  O228  1  0.13145497  0.24016977  0.99983705  1
  O  O229  1  0.12392674  0.74270072  0.49042484  1
  O  O230  1  0.12799184  0.73653639  0.98600158  1
  O  O231  1  0.62013843  0.23654973  0.49991513  1
  O  O232  1  0.63082816  0.24465840  0.99363840  1
  O  O233  1  0.62761831  0.74191786  0.48872006  1
  O  O234  1  0.62390807  0.73503051  1.00553803  1
  O  O235  1  0.49567426  0.24434204  0.13523572  1
  O  O236  1  0.48349177  0.25102534  0.62193474  1
  O  O237  1  0.50139589  0.75104298  0.14425623  1
  O  O238  1  0.49479090  0.74394991  0.63187009  1
  O  O239  1  0.99364843  0.23690544  0.12148297  1
  O  O240  1  0.98890310  0.24377953  0.62919761  1
  O  O241  1  0.99915140  0.74353917  0.12354670  1
  O  O242  1  0.99962687  0.73667257  0.62671122  1
  O  O243  1  0.01479048  0.26025855  0.37265982  1
  O  O244  1  -0.00353207  0.24329728  0.85781575  1
  O  O245  1  0.00967434  0.74989425  0.37715426  1
  O  O246  1  0.00739677  0.75874258  0.87832788  1
  O  O247  1  0.49958206  0.25188774  0.36477429  1
  O  O248  1  0.50851059  0.25990325  0.87430558  1
  O  O249  1  0.50437900  0.75401385  0.36531804  1
  O  O250  1  0.50253962  0.75599483  0.86852976  1
  O  O251  1  0.24830841  0.13077753  0.49207624  1
  O  O252  1  0.24425033  0.13015224  0.99380975  1
  O  O253  1  0.23614275  0.62890946  0.49033407  1
  O  O254  1  0.24010031  0.61711962  0.98239683  1
  O  O255  1  0.74249383  0.12721083  0.50414659  1
  O  O256  1  0.74527382  0.12789541  0.99615359  1
  O  O257  1  0.74396769  0.63117269  0.49801762  1
  O  O258  1  0.73522326  0.62738999  1.00650596  1
  O  O259  1  0.25619617  0.36765604  0.00306167  1
  O  O260  1  0.24793813  0.36111353  0.49593140  1
  O  O261  1  0.26617595  0.87720947  -0.00881325  1
  O  O262  1  0.25122979  0.87100221  0.50315436  1
  O  O263  1  0.75583319  0.37038813  0.00505026  1
  O  O264  1  0.76220522  0.37461586  0.50586619  1
  O  O265  1  0.76422946  0.88220233  0.02032749  1
  O  O266  1  0.75151814  0.86938820  0.50520893  1
  O  O267  1  0.13127600  0.48700990  0.25282322  1
  O  O268  1  0.13271209  0.49988420  0.73760439  1
  O  O269  1  0.13119923  0.99615693  0.24410704  1
  O  O270  1  0.12485226  0.98772173  0.75112190  1
  O  O271  1  0.62441378  0.49529543  0.24532698  1
  O  O272  1  0.62537654  0.48711715  0.75269182  1
  O  O273  1  0.63229163  0.99259493  0.24455022  1
  O  O274  1  0.62683267  0.99673317  0.74217376  1
  O  O275  1  0.36741487  0.00961050  0.24377938  1
  O  O276  1  0.37466056  0.01078383  0.75472878  1
  O  O277  1  0.36980772  0.49941469  0.26514601  1
  O  O278  1  0.36316236  0.49949111  0.74752078  1
  O  O279  1  0.86021488  0.00291646  0.25458315  1
  O  O280  1  0.86892965  0.00506448  0.75654419  1
  O  O281  1  0.87402748  0.50618550  0.25750258  1
  O  O282  1  0.87820918  0.50702686  0.76384312  1
  O  O283  1  0.11963494  0.37260749  0.37134753  1
  O  O284  1  0.12577445  0.36808503  0.86695028  1
  O  O285  1  0.11953000  0.86744167  0.37045900  1
  O  O286  1  0.11751078  0.86793852  0.87115386  1
  O  O287  1  0.62262228  0.37493217  0.36262329  1
  O  O288  1  0.62138228  0.36997296  0.86980968  1
  O  O289  1  0.61676777  0.86567696  0.37092244  1
  O  O290  1  0.60624446  0.88364138  0.86712547  1
  O  O291  1  0.38082136  0.12927741  0.13177345  1
  O  O292  1  0.37100309  0.12961339  0.63626756  1
  O  O293  1  0.36750580  0.61998935  0.12762738  1
  O  O294  1  0.38755169  0.63587269  0.61856793  1
  O  O295  1  0.88999027  0.13256646  0.12024675  1
  O  O296  1  0.88152899  0.13164350  0.62927848  1
  O  O297  1  0.87765225  0.63399113  0.13259721  1
  O  O298  1  0.88795702  0.61912070  0.63966119  1
  O  O299  1  0.25613242  0.25460118  0.11862469  1
  O  O300  1  0.25603799  0.24670518  0.61170738  1
  O  O301  1  0.23201332  0.75611876  0.11575331  1
  O  O302  1  0.26013103  0.74777860  0.62611360  1
  O  O303  1  0.75618116  0.25494127  0.11779954  1
  O  O304  1  0.76415648  0.25467984  0.62949086  1
  O  O305  1  0.76337036  0.75898360  0.12432640  1
  O  O306  1  0.73919826  0.75812004  0.61195502  1
  O  O307  1  0.24824097  0.24208916  0.38542676  1
  O  O308  1  0.25085469  0.23884451  0.87941471  1
  O  O309  1  0.23839603  0.74088118  0.37605602  1
  O  O310  1  0.24533362  0.73658213  0.87667364  1
  O  O311  1  0.74766519  0.25340810  0.37726135  1
  O  O312  1  0.74656887  0.24304792  0.88027296  1
  O  O313  1  0.74190633  0.74509383  0.38412560  1
  O  O314  1  0.73281739  0.78912665  0.89490482  1
  O  O315  1  0.01152113  0.12750482  0.00086041  1
  O  O316  1  0.00246734  0.11779050  0.51065542  1
  O  O317  1  0.00821685  0.61233632  -0.00282386  1
  O  O318  1  0.01008164  0.62607273  0.51271403  1
  O  O319  1  0.50514559  0.11904319  0.00415880  1
  O  O320  1  0.50835407  0.11736113  0.49619290  1
  O  O321  1  0.51045388  0.62240273  0.00707337  1
  O  O322  1  0.50630335  0.61643387  0.50387330  1
  O  O323  1  0.50796762  0.39032152  0.49762089  1
  O  O324  1  0.49303005  0.37370155  0.99246222  1
  O  O325  1  0.50265089  0.88238989  0.49129114  1
  O  O326  1  0.49339705  0.87758223  0.99421822  1
  O  O327  1  0.98505200  0.36639394  0.48753586  1
  O  O328  1  0.99230649  0.38273990  0.99933561  1
  O  O329  1  0.98893381  0.88116489  0.50137000  1
  O  O330  1  0.99111145  0.87992250  0.98738066  1
  O  O331  1  0.48383118  0.50100739  0.37971571  1
  O  O332  1  0.49846383  0.48659229  0.87594756  1
  O  O333  1  0.50801224  0.98926267  0.38412687  1
  O  O334  1  0.49240306  0.99461430  0.88185830  1
  O  O335  1  0.99136894  0.49411866  0.37516237  1
  O  O336  1  0.98698709  0.50152360  0.88709580  1
  O  O337  1  0.99165556  1.00355975  0.38585441  1
  O  O338  1  0.98713973  0.99501934  0.87070643  1
  O  O339  1  0.00668109  0.01713269  0.12652360  1
  O  O340  1  -0.00295425  0.00868390  0.61933799  1
  O  O341  1  -0.00801431  0.49924889  0.10206651  1
  O  O342  1  0.01204383  0.50945537  0.62889172  1
  O  O343  1  0.50848682  0.00359835  0.12107528  1
  O  O344  1  0.51255133  -0.00725331  0.61768122  1
  O  O345  1  0.50863822  0.50174406  0.12457752  1
  O  O346  1  0.49289448  0.50847375  0.61596932  1
  O  O347  1  0.24441859  0.37670762  0.23904562  1
  O  O348  1  0.24960715  0.39100248  0.74870852  1
  O  O349  1  0.24156388  0.89075125  0.25861940  1
  O  O350  1  0.23930600  0.87689251  0.75161948  1
  O  O351  1  0.73906309  0.37879798  0.24205550  1
  O  O352  1  0.74381384  0.37239434  0.73890339  1
  O  O353  1  0.74736307  0.88052565  0.24210641  1
  O  O354  1  0.74409165  0.87881822  0.74170421  1
  O  O355  1  0.25730674  0.11913432  0.25616740  1
  O  O356  1  0.25906990  0.12594590  0.75759753  1
  O  O357  1  0.24346912  0.62590551  0.26639112  1
  O  O358  1  0.24734799  0.61589913  0.76101310  1
  O  O359  1  0.74209779  0.11236229  0.24789418  1
  O  O360  1  0.75492171  0.11906484  0.75639651  1
  O  O361  1  0.76301876  0.62475417  0.25863269  1
  O  O362  1  0.76235134  0.62843112  0.74219855  1
  O  O363  1  0.36748358  0.12789397  0.36453977  1
  O  O364  1  0.36729748  0.12182949  0.86883480  1
  O  O365  1  0.35905650  0.62218907  0.37994171  1
  O  O366  1  0.36242857  0.62389692  0.88082031  1
  O  O367  1  0.86351441  0.13642865  0.39120032  1
  O  O368  1  0.86863510  0.11680128  0.87348751  1
  O  O369  1  0.87485814  0.62075081  0.37115244  1
  O  O370  1  0.87510004  0.61774635  0.86397574  1
  O  O371  1  0.13244903  0.36541879  0.13382969  1
  O  O372  1  0.11771032  0.38932104  0.62617351  1
  O  O373  1  0.11467942  0.88764257  0.13373294  1
  O  O374  1  0.12120159  0.87145032  0.63865863  1
  O  O375  1  0.62709455  0.38341798  0.13383889  1
  O  O376  1  0.63677759  0.36865455  0.63367975  1
  O  O377  1  0.63586512  0.87754305  0.13008183  1
  O  O378  1  0.63312456  0.88164912  0.62785224  1
  O  O379  1  0.13697184  0.26141435  0.26290528  1
  O  O380  1  0.10932609  0.25102871  0.74498870  1
  O  O381  1  0.12535335  0.76868561  0.25399876  1
  O  O382  1  0.12911287  0.75740216  0.76412209  1
  O  O383  1  0.61588527  0.25811887  0.25040086  1
  O  O384  1  0.62455340  0.25366701  0.75845225  1
  O  O385  1  0.62698348  0.75360096  0.26105805  1
  O  O386  1  0.61388030  0.75693899  0.75115045  1
  O  O387  1  0.38043869  0.24152910  0.24587929  1
  O  O388  1  0.37273520  0.24281593  0.73528733  1
  O  O389  1  0.37779910  0.75321532  0.25127567  1
  O  O390  1  0.38725553  0.75253903  0.74453023  1
  O  O391  1  0.87150874  0.25563587  0.23418550  1
  O  O392  1  0.88232749  0.24497120  0.74394118  1
  O  O393  1  0.87585233  0.74274097  0.24249843  1
  O  O394  1  0.87218392  0.73701498  0.75617642  1
  O  O395  1  0.38013756  0.50543672  0.48738574  1
  O  O396  1  0.37646320  0.48382888  0.99212085  1
  O  O397  1  0.38974234  1.00001031  0.50651351  1
  O  O398  1  0.38135597  0.99310103  0.99498057  1
  O  O399  1  0.87504702  0.49374960  0.49079820  1
  O  O400  1  0.87996169  0.49554253  0.99038712  1
  O  O401  1  0.88078929  0.99287391  0.49815404  1
  O  O402  1  0.87209102  0.99241606  0.99148371  1
  O  O403  1  0.13159190  0.00913711  0.01028595  1
  O  O404  1  0.11024584  -0.00001416  0.50288952  1
  O  O405  1  0.11369893  0.50295539  -0.00939475  1
  O  O406  1  0.13075611  0.50791881  0.51631052  1
  O  O407  1  0.62210776  0.00081205  0.00555748  1
  O  O408  1  0.61901083  0.00994569  0.50596046  1
  O  O409  1  0.62329310  0.50979140  0.00872584  1
  O  O410  1  0.61810174  0.51115611  0.48965296  1
  O  O411  1  0.36890969  0.36874471  0.11696900  1
  O  O412  1  0.37310681  0.36278753  0.62677059  1
  O  O413  1  0.37676095  0.88144864  0.11101016  1
  O  O414  1  0.37520421  0.86225100  0.62322235  1
  O  O415  1  0.87118528  0.36897714  0.11436790  1
  O  O416  1  0.87192984  0.37052647  0.61651077  1
  O  O417  1  0.87766842  0.87005568  0.12252251  1
  O  O418  1  0.85964530  0.88094750  0.61592429  1
  O  O419  1  0.13246297  0.13472847  0.37632729  1
  O  O420  1  0.13132936  0.12755776  0.88199570  1
  O  O421  1  0.12877462  0.62974357  0.38179869  1
  O  O422  1  0.13144025  0.62793379  0.87585923  1
  O  O423  1  0.62731876  0.12761134  0.39136707  1
  O  O424  1  0.62987360  0.12858957  0.87968672  1
  O  O425  1  0.62950347  0.63070640  0.38015359  1
  O  O426  1  0.62276266  0.62503766  0.89074210  1
