# generated using pymatgen
data_V85Zn86O256
_symmetry_space_group_name_H-M   'P 1'
_cell_length_a   16.95789408
_cell_length_b   16.94235176
_cell_length_c   16.95851887
_cell_angle_alpha   90.00864781
_cell_angle_beta   90.12345553
_cell_angle_gamma   89.99092473
_symmetry_Int_Tables_number   1
_chemical_formula_structural   V85Zn86O256
_chemical_formula_sum   'V85 Zn86 O256'
_cell_volume   4872.28308315
_cell_formula_units_Z   1
loop_
 _symmetry_equiv_pos_site_id
 _symmetry_equiv_pos_as_xyz
  1  'x, y, z'
loop_
 _atom_site_type_symbol
 _atom_site_label
 _atom_site_symmetry_multiplicity
 _atom_site_fract_x
 _atom_site_fract_y
 _atom_site_fract_z
 _atom_site_occupancy
  V  V0  1  0.35932600  -0.00395095  0.36791049  1
  V  V1  1  0.74417490  0.74908223  -0.00704248  1
  V  V2  1  0.12435609  0.38201188  0.74391873  1
  V  V3  1  0.37710912  0.62627429  0.74486634  1
  V  V4  1  0.13153899  0.38838965  0.24332184  1
  V  V5  1  0.12368889  0.25346931  0.87977994  1
  V  V6  1  0.50375271  0.11979815  0.12686804  1
  V  V7  1  -0.00822699  0.88045108  0.37171588  1
  V  V8  1  0.62423356  0.24819631  0.37688405  1
  V  V9  1  0.37546510  0.37600456  0.50291688  1
  V  V10  1  0.62202799  0.62771444  -0.00871655  1
  V  V11  1  0.12111960  0.74993573  0.87679703  1
  V  V12  1  0.87234886  0.37719418  0.00266763  1
  V  V13  1  0.37773643  0.74921517  0.61530471  1
  V  V14  1  0.24308017  0.61945279  0.36950928  1
  V  V15  1  0.74116193  0.88019996  0.12245962  1
  V  V16  1  -0.00434179  0.75257967  0.24887612  1
  V  V17  1  0.73622413  0.63862884  0.39192207  1
  V  V18  1  0.87132859  0.75010518  0.12150502  1
  V  V19  1  0.50584034  -0.00522897  0.00430275  1
  V  V20  1  0.13913706  0.12765748  -0.00320777  1
  V  V21  1  -0.00303015  0.87901931  0.87047632  1
  V  V22  1  0.37269087  0.86765297  0.00397089  1
  V  V23  1  0.37511969  0.50165709  0.87178073  1
  V  V24  1  -0.00094859  0.12585809  0.12218874  1
  V  V25  1  0.61114383  0.11897576  0.50141948  1
  V  V26  1  0.35782362  0.12073304  0.25155217  1
  V  V27  1  0.12930700  0.00509000  0.62100319  1
  V  V28  1  -0.00238468  0.00453615  -0.00680938  1
  V  V29  1  0.62251980  0.37469552  0.25101682  1
  V  V30  1  0.00529986  0.62308869  0.12531449  1
  V  V31  1  0.11823434  0.74554779  0.38058769  1
  V  V32  1  0.49907448  0.49733644  -0.00148193  1
  V  V33  1  0.87148708  0.88114354  -0.00659456  1
  V  V34  1  0.86625711  0.49641355  0.86404632  1
  V  V35  1  0.49863261  0.37236008  0.86786302  1
  V  V36  1  0.50139002  0.74837588  0.25814356  1
  V  V37  1  0.00197621  0.25311680  0.25085113  1
  V  V38  1  0.49952516  0.62665961  0.12763243  1
  V  V39  1  0.24715769  0.62670042  0.87434702  1
  V  V40  1  -0.00112829  0.37882361  0.87419629  1
  V  V41  1  0.26992798  0.15104855  0.85954518  1
  V  V42  1  0.36363110  0.24590876  0.11737003  1
  V  V43  1  0.00362766  0.50101314  0.00297135  1
  V  V44  1  0.01293874  0.62276221  0.62164729  1
  V  V45  1  0.49900942  0.38047214  0.37970124  1
  V  V46  1  0.24775690  0.50379275  0.73769187  1
  V  V47  1  0.87242203  0.50125971  0.37441571  1
  V  V48  1  0.24528151  0.87635999  0.61656896  1
  V  V49  1  0.74698646  0.37812651  0.12725983  1
  V  V50  1  0.87034477  0.87372269  0.49790182  1
  V  V51  1  0.74536369  0.24626417  0.50405303  1
  V  V52  1  0.25023319  -0.00250023  0.75330381  1
  V  V53  1  0.61783318  0.24178732  0.86823811  1
  V  V54  1  0.87917613  0.24925099  0.62255418  1
  V  V55  1  0.74571564  0.62304325  0.86291432  1
  V  V56  1  0.25018447  0.37220151  0.61818714  1
  V  V57  1  0.87311892  0.74849380  0.62422085  1
  V  V58  1  0.00876279  0.25086884  0.74262525  1
  V  V59  1  0.24561230  0.74260310  0.49941322  1
  V  V60  1  0.49928710  0.88313477  0.37379220  1
  V  V61  1  0.63971650  0.49254433  0.62099340  1
  V  V62  1  0.01170029  0.38067177  0.38300944  1
  V  V63  1  0.14348637  0.24541056  0.36782278  1
  V  V64  1  0.74760984  0.87987638  0.62099923  1
  V  V65  1  0.50293835  0.61047899  0.60904294  1
  V  V66  1  0.75096354  0.00021208  0.25273531  1
  V  V67  1  0.74587673  0.50339397  0.25192496  1
  V  V68  1  0.24925467  0.39232395  0.11826632  1
  V  V69  1  0.49694454  0.24666688  0.24847189  1
  V  V70  1  0.50477121  0.75142878  0.74745283  1
  V  V71  1  -0.00569122  0.00304757  0.49581237  1
  V  V72  1  0.74100158  0.24887755  0.00413313  1
  V  V73  1  0.86840117  0.62697807  0.24944940  1
  V  V74  1  0.00412911  0.12615498  0.62294826  1
  V  V75  1  0.62592982  0.87485507  0.75520754  1
  V  V76  1  0.42716184  0.93379657  0.54695716  1
  V  V77  1  0.87735204  0.12087283  0.25867423  1
  V  V78  1  0.87020312  0.37351669  0.49609328  1
  V  V79  1  0.37086573  -0.00693751  0.87920684  1
  V  V80  1  0.30677625  0.19676784  0.56000186  1
  V  V81  1  0.37159821  0.50007496  0.36940221  1
  V  V82  1  0.12990090  0.88069483  0.24930258  1
  V  V83  1  0.12985591  0.13338997  0.49326815  1
  V  V84  1  0.62517177  0.87615065  0.25395527  1
  Zn  Zn85  1  0.62384876  0.00284632  0.62433483  1
  Zn  Zn86  1  0.62766434  0.11740929  0.00663852  1
  Zn  Zn87  1  0.36887614  0.62191265  0.24825120  1
  Zn  Zn88  1  0.62248239  0.50038419  0.12490454  1
  Zn  Zn89  1  0.00672392  0.51230473  0.49936747  1
  Zn  Zn90  1  0.12369260  0.87447675  0.74885335  1
  Zn  Zn91  1  0.13026868  0.00367231  0.12759669  1
  Zn  Zn92  1  0.63622479  0.37565330  0.75461479  1
  Zn  Zn93  1  0.25181318  0.87776995  0.12772636  1
  Zn  Zn94  1  0.87128060  0.62272055  0.74493763  1
  Zn  Zn95  1  0.12705687  0.62218528  0.00477636  1
  Zn  Zn96  1  0.76497330  -0.00249578  0.76150300  1
  Zn  Zn97  1  0.75946805  0.11728077  0.87965094  1
  Zn  Zn98  1  0.37027328  0.74966382  0.13141160  1
  Zn  Zn99  1  0.24727342  0.74849490  0.00576042  1
  Zn  Zn100  1  0.87845531  0.11824785  0.75911248  1
  Zn  Zn101  1  0.76106703  0.37698674  0.65007369  1
  Zn  Zn102  1  0.87259726  0.25138187  0.12842582  1
  Zn  Zn103  1  0.50302810  0.86694380  0.87837795  1
  Zn  Zn104  1  0.75331584  0.11822306  0.37976946  1
  Zn  Zn105  1  0.37035982  0.36911781  -0.00386568  1
  Zn  Zn106  1  -0.00255914  0.74678080  0.75104798  1
  Zn  Zn107  1  0.18561302  0.19016215  0.18182513  1
  Zn  Zn108  1  0.37831474  0.15097514  0.72490846  1
  Zn  Zn109  1  0.18558680  0.69443113  0.19107054  1
  Zn  Zn110  1  0.18597226  0.69275827  0.69087152  1
  Zn  Zn111  1  0.68708458  0.18627783  0.18917785  1
  Zn  Zn112  1  0.69754691  0.18426569  0.68987547  1
  Zn  Zn113  1  0.68270092  0.68997241  0.18647097  1
  Zn  Zn114  1  0.66824743  0.70512748  0.63163720  1
  Zn  Zn115  1  0.31405966  0.31602866  0.30400861  1
  Zn  Zn116  1  0.30814889  0.31977625  0.81214127  1
  Zn  Zn117  1  0.31368650  0.80827384  0.31529873  1
  Zn  Zn118  1  0.31286514  0.81257741  0.80782300  1
  Zn  Zn119  1  0.81177935  0.31122381  0.31333725  1
  Zn  Zn120  1  0.81655690  0.28739517  0.81895596  1
  Zn  Zn121  1  0.80961642  0.81239345  0.31380321  1
  Zn  Zn122  1  0.81012176  0.81027449  0.80908188  1
  Zn  Zn123  1  0.18770811  0.43513585  0.43488160  1
  Zn  Zn124  1  0.18692192  0.44121621  0.93557618  1
  Zn  Zn125  1  0.18222621  0.93431659  0.43824278  1
  Zn  Zn126  1  0.18551190  0.93695815  0.94257823  1
  Zn  Zn127  1  0.68575651  0.44069973  0.44228528  1
  Zn  Zn128  1  0.68412211  0.43569180  0.93415907  1
  Zn  Zn129  1  0.68633369  0.93771558  0.43444666  1
  Zn  Zn130  1  0.68571711  0.93781700  0.93289761  1
  Zn  Zn131  1  0.31223851  0.05620609  0.06328853  1
  Zn  Zn132  1  0.52364221  0.16841592  0.66161993  1
  Zn  Zn133  1  0.31649167  0.56608210  0.05878836  1
  Zn  Zn134  1  0.31387521  0.56065416  0.55519647  1
  Zn  Zn135  1  0.81357951  0.06197151  0.06597863  1
  Zn  Zn136  1  0.81334437  0.06308815  0.56676813  1
  Zn  Zn137  1  0.81138853  0.56241302  0.06031141  1
  Zn  Zn138  1  0.81680483  0.56128571  0.56208708  1
  Zn  Zn139  1  0.43472181  0.43655835  0.18777356  1
  Zn  Zn140  1  0.43813728  0.42898633  0.68552468  1
  Zn  Zn141  1  0.43436550  0.93754944  0.18888245  1
  Zn  Zn142  1  0.46253309  0.97805890  0.71711776  1
  Zn  Zn143  1  0.93781490  0.43877589  0.18948836  1
  Zn  Zn144  1  0.93941343  0.44047580  0.68205050  1
  Zn  Zn145  1  0.93556611  0.94034865  0.18128421  1
  Zn  Zn146  1  0.93732959  0.93988254  0.68472491  1
  Zn  Zn147  1  0.06238288  0.06266678  0.31388886  1
  Zn  Zn148  1  0.06694415  0.06528683  0.81203293  1
  Zn  Zn149  1  0.05900533  0.56570217  0.31083793  1
  Zn  Zn150  1  0.05845582  0.56364219  0.80961284  1
  Zn  Zn151  1  0.56151847  0.05941903  0.31066152  1
  Zn  Zn152  1  0.56386353  0.05975152  0.81862158  1
  Zn  Zn153  1  0.56184102  0.56104873  0.31721288  1
  Zn  Zn154  1  0.56531114  0.56119913  0.80246446  1
  Zn  Zn155  1  0.43511242  0.18390427  0.43030882  1
  Zn  Zn156  1  0.43728556  0.18343723  0.93657214  1
  Zn  Zn157  1  0.43546918  0.68934177  0.43414214  1
  Zn  Zn158  1  0.43796443  0.68794535  0.93293589  1
  Zn  Zn159  1  0.94266425  0.19409977  0.43551002  1
  Zn  Zn160  1  0.93727146  0.19381130  0.93921273  1
  Zn  Zn161  1  0.93192116  0.68760250  0.43973079  1
  Zn  Zn162  1  0.93260911  0.68639312  0.93575662  1
  Zn  Zn163  1  0.06362011  0.31354809  0.06428046  1
  Zn  Zn164  1  0.07061365  0.32692375  0.54995712  1
  Zn  Zn165  1  0.06018589  0.81179467  0.06056551  1
  Zn  Zn166  1  0.05762391  0.81190076  0.56147617  1
  Zn  Zn167  1  0.55725924  0.31149415  0.06323589  1
  Zn  Zn168  1  0.55603199  0.31477242  0.57160919  1
  Zn  Zn169  1  0.56119254  0.80903031  0.06561988  1
  Zn  Zn170  1  0.56686469  0.81110955  0.55510344  1
  O  O171  1  0.11440787  0.12762297  0.11454727  1
  O  O172  1  0.11859501  0.11673174  0.61062991  1
  O  O173  1  0.10889051  0.63201741  0.12614510  1
  O  O174  1  0.11184564  0.63227013  0.62632880  1
  O  O175  1  0.60801436  0.12993263  0.12681481  1
  O  O176  1  0.62212666  0.12507313  0.61632238  1
  O  O177  1  0.61360565  0.62339110  0.11430521  1
  O  O178  1  0.60909182  0.60507287  0.62979772  1
  O  O179  1  0.37957316  0.37873103  0.37767932  1
  O  O180  1  0.37913351  0.38408631  0.87827458  1
  O  O181  1  0.38082326  0.88710586  0.36755603  1
  O  O182  1  0.37539880  0.87908144  0.88199482  1
  O  O183  1  0.87966440  0.38425305  0.37634893  1
  O  O184  1  0.88013385  0.37862179  0.88474001  1
  O  O185  1  0.88431513  0.87129827  0.38097273  1
  O  O186  1  0.88122361  0.86726728  0.88716057  1
  O  O187  1  0.26090044  -0.00849829  0.37735008  1
  O  O188  1  0.25291617  -0.00478785  0.86692821  1
  O  O189  1  0.25419247  0.50852285  0.38032816  1
  O  O190  1  0.25231596  0.51103651  0.86494164  1
  O  O191  1  0.74913686  0.00064718  0.35867896  1
  O  O192  1  0.75229918  0.00393233  0.87725519  1
  O  O193  1  0.75817256  0.50397754  0.37181483  1
  O  O194  1  0.75692075  0.50912836  0.88373625  1
  O  O195  1  0.25609426  0.49110255  0.12425621  1
  O  O196  1  0.25166781  0.49513753  0.63276124  1
  O  O197  1  0.24190107  0.99172628  0.11929163  1
  O  O198  1  0.23825561  0.99114985  0.63037301  1
  O  O199  1  0.74620227  0.49467766  0.13138701  1
  O  O200  1  0.74414609  0.49536195  0.62382444  1
  O  O201  1  0.75388571  0.98965160  0.13482136  1
  O  O202  1  0.75180975  0.98892486  0.62978520  1
  O  O203  1  0.01066813  0.37006012  0.25309639  1
  O  O204  1  0.00838926  0.37445033  0.75071577  1
  O  O205  1  -0.00077523  0.87136752  0.25560670  1
  O  O206  1  0.00155212  0.87541067  0.76319324  1
  O  O207  1  0.50283768  0.36735673  0.25771909  1
  O  O208  1  0.49748316  0.37451398  0.76595051  1
  O  O209  1  0.50646702  0.87000434  0.25508064  1
  O  O210  1  0.51020061  0.87133429  0.74847286  1
  O  O211  1  0.49166839  0.12812409  0.24390391  1
  O  O212  1  0.48440671  0.09743554  0.74179910  1
  O  O213  1  0.50306125  0.63163443  0.24351461  1
  O  O214  1  0.49352538  0.63272467  0.73898813  1
  O  O215  1  0.99612493  0.13088754  0.24247233  1
  O  O216  1  1.00525759  0.13684071  0.74263795  1
  O  O217  1  0.98963025  0.63173411  0.24280633  1
  O  O218  1  0.99503780  0.62588731  0.73676680  1
  O  O219  1  0.37902396  0.25029172  0.01445728  1
  O  O220  1  0.36523239  0.25437540  0.49251182  1
  O  O221  1  0.37637214  0.75870759  -0.00028817  1
  O  O222  1  0.36339661  0.74701320  0.50826724  1
  O  O223  1  0.86602927  0.26478377  0.00642131  1
  O  O224  1  0.86283690  0.24707320  0.50639967  1
  O  O225  1  0.86601738  0.75650346  0.00474360  1
  O  O226  1  0.88027116  0.76489528  0.50798113  1
  O  O227  1  0.11924759  0.24267207  0.48238609  1
  O  O228  1  0.11195842  0.23975636  0.99044512  1
  O  O229  1  0.12761740  0.75539449  0.48707680  1
  O  O230  1  0.12414413  0.74635835  0.98838983  1
  O  O231  1  0.62894742  0.24343188  0.49607619  1
  O  O232  1  0.62913315  0.24690466  0.99957816  1
  O  O233  1  0.63671663  0.73456155  0.52770061  1
  O  O234  1  0.63148148  0.74064406  1.00153706  1
  O  O235  1  0.48795538  0.24450200  0.13140989  1
  O  O236  1  0.47942531  0.26135997  0.63095019  1
  O  O237  1  0.49851980  0.74177440  0.13727854  1
  O  O238  1  0.48976597  0.74377645  0.62888941  1
  O  O239  1  0.99908490  0.24525706  0.13490170  1
  O  O240  1  1.00051411  0.24758971  0.62616943  1
  O  O241  1  0.98975315  0.74416584  0.12716077  1
  O  O242  1  0.99136892  0.74303445  0.62657556  1
  O  O243  1  0.00923991  0.25610398  0.36066157  1
  O  O244  1  0.00762009  0.26006373  0.86491499  1
  O  O245  1  0.00226236  0.75576508  0.37073584  1
  O  O246  1  0.00451721  0.75786286  0.87595751  1
  O  O247  1  0.50877239  0.25490702  0.36888047  1
  O  O248  1  0.51091947  0.25656978  0.88607860  1
  O  O249  1  0.49401647  0.76092412  0.36486687  1
  O  O250  1  0.49308080  0.74946575  0.85246676  1
  O  O251  1  0.23876198  0.13900831  0.50669029  1
  O  O252  1  0.24074819  0.12514558  0.98990639  1
  O  O253  1  0.24848696  0.63567030  0.49214679  1
  O  O254  1  0.24691006  0.62628555  0.98902534  1
  O  O255  1  0.74350543  0.13411803  0.49959851  1
  O  O256  1  0.74830971  0.13536129  1.00495607  1
  O  O257  1  0.75485411  0.62315525  0.48963834  1
  O  O258  1  0.74008539  0.63172928  0.99564571  1
  O  O259  1  0.25034009  0.38194224  0.01263939  1
  O  O260  1  0.25431310  0.37609334  0.51159604  1
  O  O261  1  0.25914834  0.86834430  -0.00183634  1
  O  O262  1  0.24144011  0.86246043  0.50974735  1
  O  O263  1  0.75338332  0.37171163  0.00739461  1
  O  O264  1  0.75869707  0.36121769  0.49395385  1
  O  O265  1  0.75310968  0.86907991  0.00457049  1
  O  O266  1  0.76235802  0.88550433  0.50434164  1
  O  O267  1  0.11868865  0.48628567  0.25013497  1
  O  O268  1  0.13312516  0.49050718  0.75522506  1
  O  O269  1  0.11635918  0.98419442  0.24962648  1
  O  O270  1  0.13455333  0.99976927  0.74183519  1
  O  O271  1  0.62972260  0.49250748  0.24915135  1
  O  O272  1  0.61482522  0.49041673  0.72945420  1
  O  O273  1  0.63210410  0.98698719  0.24934684  1
  O  O274  1  0.62004389  0.98502740  0.74500132  1
  O  O275  1  0.37204856  0.00582280  0.25932803  1
  O  O276  1  0.35920100  -0.00917284  0.76266367  1
  O  O277  1  0.37630599  0.50101153  0.26364548  1
  O  O278  1  0.36602944  0.50457039  0.75291115  1
  O  O279  1  0.86868538  0.01046302  0.24439199  1
  O  O280  1  0.88153391  0.00499250  0.75231020  1
  O  O281  1  0.86636513  0.50513025  0.25677908  1
  O  O282  1  0.87626579  0.49808212  0.76136171  1
  O  O283  1  0.13024026  0.36425106  0.35330683  1
  O  O284  1  0.11771099  0.37341985  0.86917046  1
  O  O285  1  0.11135762  0.86956803  0.36654117  1
  O  O286  1  0.11439311  0.86788502  0.87646498  1
  O  O287  1  0.61720474  0.36911266  0.37311284  1
  O  O288  1  0.61426338  0.36406592  0.87591200  1
  O  O289  1  0.61442279  0.87784052  0.36738027  1
  O  O290  1  0.62420825  0.86873695  0.85878537  1
  O  O291  1  0.37890041  0.13221598  0.12895663  1
  O  O292  1  0.36229372  0.13222685  0.61289094  1
  O  O293  1  0.38788077  0.62638565  0.12663709  1
  O  O294  1  0.37983655  0.63139483  0.62567812  1
  O  O295  1  0.88756025  0.12876870  0.13170677  1
  O  O296  1  0.88624036  0.13524372  0.62382525  1
  O  O297  1  0.87800787  0.63158032  0.12985513  1
  O  O298  1  0.87824970  0.63453955  0.62556865  1
  O  O299  1  0.26121433  0.25712580  0.12480358  1
  O  O300  1  0.25968412  0.25837290  0.62697301  1
  O  O301  1  0.25178934  0.75576075  0.12335532  1
  O  O302  1  0.25412480  0.75525896  0.61867977  1
  O  O303  1  0.74853322  0.25857363  0.11927245  1
  O  O304  1  0.76078569  0.25203094  0.61790099  1
  O  O305  1  0.75353577  0.75601264  0.11450407  1
  O  O306  1  0.76619182  0.76710549  0.62894409  1
  O  O307  1  0.24261655  0.24977945  0.36468996  1
  O  O308  1  0.23102584  0.25764711  0.88039155  1
  O  O309  1  0.24002472  0.74496377  0.38293144  1
  O  O310  1  0.24301338  0.73853594  0.87109189  1
  O  O311  1  0.73685260  0.24750131  0.38072714  1
  O  O312  1  0.72792225  0.25274076  0.89369602  1
  O  O313  1  0.75081007  0.73669155  0.37272620  1
  O  O314  1  0.75470732  0.74160413  0.88744445  1
  O  O315  1  0.00021255  0.12097886  0.00347865  1
  O  O316  1  0.00711219  0.11998609  0.50100265  1
  O  O317  1  -0.00387635  0.61774919  0.00832415  1
  O  O318  1  -0.00260144  0.62695204  0.51363998  1
  O  O319  1  0.49880630  0.11248878  0.00982578  1
  O  O320  1  0.51267444  0.12916456  0.49675603  1
  O  O321  1  0.50550679  0.62126061  0.00351456  1
  O  O322  1  0.49394277  0.62714669  0.51160553  1
  O  O323  1  0.48926514  0.36671816  0.48654023  1
  O  O324  1  0.49541106  0.38396067  0.99362305  1
  O  O325  1  0.49213991  0.87163571  0.49233487  1
  O  O326  1  0.49415856  0.87641118  0.99924853  1
  O  O327  1  0.97182756  0.34219924  0.48752070  1
  O  O328  1  0.99115924  0.38159191  0.99896477  1
  O  O329  1  0.99303554  0.88361371  0.49135790  1
  O  O330  1  0.99224615  0.88354950  0.99205714  1
  O  O331  1  0.49110275  0.48873325  0.37278437  1
  O  O332  1  0.49695632  0.49339945  0.87961725  1
  O  O333  1  0.49161327  0.98761918  0.37101132  1
  O  O334  1  0.48949705  0.99282106  0.88515121  1
  O  O335  1  0.98495939  0.50047932  0.37261764  1
  O  O336  1  0.98910825  0.49656227  0.88203933  1
  O  O337  1  1.00193338  0.99193234  0.38337239  1
  O  O338  1  1.00554206  0.99524617  0.88508019  1
  O  O339  1  0.00438993  0.00936456  0.11312778  1
  O  O340  1  0.01258166  0.00328439  0.61614716  1
  O  O341  1  -0.00945575  0.51082938  0.11598956  1
  O  O342  1  -0.00163647  0.51661205  0.62007481  1
  O  O343  1  0.49180014  0.00857120  0.11811595  1
  O  O344  1  0.49104154  -0.01324449  0.60593917  1
  O  O345  1  0.49877863  0.50619073  0.11673083  1
  O  O346  1  0.48999620  0.51013865  0.62109058  1
  O  O347  1  0.23899163  0.37527006  0.23574281  1
  O  O348  1  0.24507744  0.38350386  0.74044245  1
  O  O349  1  0.23110097  0.86772806  0.25514007  1
  O  O350  1  0.24625632  0.87794470  0.73570186  1
  O  O351  1  0.74396811  0.38148284  0.24665590  1
  O  O352  1  0.75079510  0.35901159  0.76080327  1
  O  O353  1  0.74529615  0.87951290  0.24284112  1
  O  O354  1  0.73917332  0.87547753  0.74311936  1
  O  O355  1  0.25884784  0.12624522  0.24269427  1
  O  O356  1  0.25458025  0.11290723  0.76259327  1
  O  O357  1  0.24929541  0.63127619  0.26524168  1
  O  O358  1  0.25436651  0.61932557  0.75192250  1
  O  O359  1  0.75895004  0.11783996  0.24872193  1
  O  O360  1  0.75603591  0.11847724  0.75664561  1
  O  O361  1  0.75136045  0.61857576  0.25119401  1
  O  O362  1  0.74816186  0.63014100  0.76384633  1
  O  O363  1  0.37720976  0.10818385  0.36504102  1
  O  O364  1  0.36404168  0.10004237  0.89948990  1
  O  O365  1  0.36491241  0.61566759  0.37608998  1
  O  O366  1  0.36656910  0.62184263  0.86559951  1
  O  O367  1  0.87501235  0.13203117  0.36224004  1
  O  O368  1  0.86086545  0.17733465  0.86042332  1
  O  O369  1  0.86637155  0.61877366  0.36869771  1
  O  O370  1  0.86489432  0.61404067  0.87355250  1
  O  O371  1  0.13753992  0.37240073  0.13142251  1
  O  O372  1  0.13554880  0.37001160  0.63472722  1
  O  O373  1  0.11777213  0.87175440  0.14187193  1
  O  O374  1  0.12865191  0.88206944  0.62467142  1
  O  O375  1  0.62875601  0.37623765  0.13279198  1
  O  O376  1  0.63342406  0.38113003  0.62842498  1
  O  O377  1  0.63724813  0.87115740  0.12974623  1
  O  O378  1  0.63374550  0.88221201  0.62798231  1
  O  O379  1  0.11821333  0.25434774  0.25081070  1
  O  O380  1  0.11540596  0.26523384  0.75824632  1
  O  O381  1  0.11341995  0.75871628  0.26141262  1
  O  O382  1  0.12017753  0.75359222  0.76378829  1
  O  O383  1  0.62019428  0.25393835  0.25959504  1
  O  O384  1  0.62221369  0.24318877  0.76555268  1
  O  O385  1  0.61683188  0.76446578  0.24560398  1
  O  O386  1  0.61533001  0.76344838  0.73072400  1
  O  O387  1  0.37852811  0.24132215  0.24129828  1
  O  O388  1  0.35365249  0.21675703  0.81285537  1
  O  O389  1  0.38527139  0.74415105  0.25095964  1
  O  O390  1  0.37803771  0.74700560  0.73384650  1
  O  O391  1  0.88374341  0.24533600  0.24841637  1
  O  O392  1  0.89437974  0.25907951  0.73039339  1
  O  O393  1  0.87731536  0.74748287  0.24179497  1
  O  O394  1  0.87865255  0.74867910  0.73978963  1
  O  O395  1  0.37039157  0.48389812  0.48717348  1
  O  O396  1  0.38696301  0.50302824  0.99056731  1
  O  O397  1  0.37723144  0.99520537  0.48643774  1
  O  O398  1  0.38190825  0.98316746  0.99795961  1
  O  O399  1  0.87882274  0.48847907  0.49172425  1
  O  O400  1  0.87933427  0.49043810  0.99402962  1
  O  O401  1  0.88854228  0.99495978  0.50594417  1
  O  O402  1  0.88382762  0.99192970  1.00417194  1
  O  O403  1  0.11565507  0.01264034  -0.00153959  1
  O  O404  1  0.11811072  0.00795356  0.50299564  1
  O  O405  1  0.10771253  0.50256920  -0.00517195  1
  O  O406  1  0.08379447  0.43179571  0.47775943  1
  O  O407  1  0.60981082  -0.00463934  -0.00034482  1
  O  O408  1  0.62960673  0.01644250  0.50120070  1
  O  O409  1  0.61253696  0.50626465  0.00055908  1
  O  O410  1  0.62107849  0.49136872  0.52029320  1
  O  O411  1  0.36234198  0.36679801  0.12500109  1
  O  O412  1  0.36490739  0.38017535  0.61310729  1
  O  O413  1  0.37483095  0.86977864  0.11768821  1
  O  O414  1  0.36743769  0.87239854  0.61130420  1
  O  O415  1  0.86615843  0.37663201  0.11975141  1
  O  O416  1  0.87517733  0.36925059  0.61335811  1
  O  O417  1  0.86692998  0.86971133  0.11278643  1
  O  O418  1  0.87350348  0.87006825  0.61541187  1
  O  O419  1  0.12327208  0.13189989  0.38138901  1
  O  O420  1  0.13481029  0.13742801  0.87724858  1
  O  O421  1  0.12770394  0.63333170  0.37293649  1
  O  O422  1  0.13030799  0.63112308  0.87500187  1
  O  O423  1  0.62548542  0.13122506  0.38405427  1
  O  O424  1  0.62098329  0.13466032  0.88453006  1
  O  O425  1  0.63843200  0.61973221  0.37584731  1
  O  O426  1  0.62862143  0.61828804  0.88398000  1
