# generated using pymatgen
data_V85Zn86O256
_symmetry_space_group_name_H-M   'P 1'
_cell_length_a   16.94012249
_cell_length_b   16.93936090
_cell_length_c   16.94700268
_cell_angle_alpha   89.97820950
_cell_angle_beta   89.97920848
_cell_angle_gamma   90.00888072
_symmetry_Int_Tables_number   1
_chemical_formula_structural   V85Zn86O256
_chemical_formula_sum   'V85 Zn86 O256'
_cell_volume   4863.02385622
_cell_formula_units_Z   1
loop_
 _symmetry_equiv_pos_site_id
 _symmetry_equiv_pos_as_xyz
  1  'x, y, z'
loop_
 _atom_site_type_symbol
 _atom_site_label
 _atom_site_symmetry_multiplicity
 _atom_site_fract_x
 _atom_site_fract_y
 _atom_site_fract_z
 _atom_site_occupancy
  V  V0  1  0.74527007  0.75154145  -0.00472700  1
  V  V1  1  0.14270853  0.46732641  0.59699598  1
  V  V2  1  0.49923079  0.62877801  0.62472081  1
  V  V3  1  0.24888169  0.74608479  0.00041623  1
  V  V4  1  -0.00608419  0.48814652  0.49287180  1
  V  V5  1  0.12339838  0.00178923  0.10210491  1
  V  V6  1  0.75220783  0.87739974  0.12505605  1
  V  V7  1  0.37956084  0.00407235  0.37540262  1
  V  V8  1  0.24893138  0.62908727  0.37896558  1
  V  V9  1  0.62593517  0.62786571  0.49817004  1
  V  V10  1  0.87607661  0.75196425  0.12393492  1
  V  V11  1  0.37261760  0.74968792  0.12658985  1
  V  V12  1  0.51428072  0.86532161  0.87902347  1
  V  V13  1  0.75810639  0.37094554  0.62300337  1
  V  V14  1  0.36686137  0.62128281  0.25106499  1
  V  V15  1  0.62415807  0.49922898  0.12226082  1
  V  V16  1  0.81023963  0.30732845  0.45729491  1
  V  V17  1  0.75036927  0.50015832  0.24886226  1
  V  V18  1  0.24707822  0.49388244  0.74903811  1
  V  V19  1  0.00081493  0.12468101  0.11024624  1
  V  V20  1  0.49874483  0.62278561  0.12496518  1
  V  V21  1  0.37480317  0.37893049  -0.00649877  1
  V  V22  1  0.74875753  0.00022474  0.73446441  1
  V  V23  1  0.87446832  -0.00427906  0.37733055  1
  V  V24  1  0.38545419  0.12015139  0.74344419  1
  V  V25  1  0.75431905  0.62419110  0.37396977  1
  V  V26  1  0.62582353  0.37259456  0.75037664  1
  V  V27  1  0.87556489  0.75310241  0.62105924  1
  V  V28  1  0.49961387  0.25083346  0.25061983  1
  V  V29  1  0.50169347  0.00761503  -0.00114378  1
  V  V30  1  0.37196612  0.12716374  0.25152692  1
  V  V31  1  0.11778766  0.61824380  -0.00220050  1
  V  V32  1  0.75884246  0.50072201  0.74906508  1
  V  V33  1  0.12691718  -0.01909809  0.63383125  1
  V  V34  1  -0.00042528  0.75546769  0.74900058  1
  V  V35  1  0.62641529  0.25037500  0.38035101  1
  V  V36  1  -0.00459727  0.37952172  0.89299235  1
  V  V37  1  0.11962422  0.75184346  0.87140518  1
  V  V38  1  0.74536316  0.62896407  0.87151648  1
  V  V39  1  0.75196067  0.12064447  0.87586751  1
  V  V40  1  0.25396019  0.12519209  0.87310741  1
  V  V41  1  0.37455049  0.61812296  0.75176491  1
  V  V42  1  0.62748318  0.50002714  0.62463753  1
  V  V43  1  0.62394754  0.87603909  0.24879394  1
  V  V44  1  0.13111871  0.75795287  0.37842896  1
  V  V45  1  0.87774883  0.12544299  0.24425018  1
  V  V46  1  0.62612505  0.00794964  0.12309213  1
  V  V47  1  0.24790577  0.00627132  0.24985916  1
  V  V48  1  0.36388388  0.87385828  0.50212307  1
  V  V49  1  0.36340454  0.75412355  0.62419689  1
  V  V50  1  0.12581860  0.50135860  0.12976695  1
  V  V51  1  0.12206810  0.63098251  0.50290645  1
  V  V52  1  0.12111881  0.37683039  0.25319542  1
  V  V53  1  0.76048600  0.37555397  0.11720831  1
  V  V54  1  0.76143518  0.25092170  0.00430834  1
  V  V55  1  0.10999248  0.37454796  0.75131766  1
  V  V56  1  0.88201364  0.88786597  -0.00645413  1
  V  V57  1  0.49542999  0.37528612  0.37930255  1
  V  V58  1  0.75107492  0.12488443  0.37960337  1
  V  V59  1  0.50458914  -0.00199141  0.51869047  1
  V  V60  1  0.12763628  0.23892201  0.37494130  1
  V  V61  1  -0.00151152  0.12701772  0.64410065  1
  V  V62  1  0.12111805  0.24850027  0.87542749  1
  V  V63  1  0.87662937  0.49900495  0.89232918  1
  V  V64  1  -0.00190827  0.62075417  0.12282381  1
  V  V65  1  -0.00101196  0.87566080  0.38142426  1
  V  V66  1  0.37439942  0.25171370  0.12199840  1
  V  V67  1  0.25152367  0.61798253  0.87606909  1
  V  V68  1  0.24997643  0.37993885  0.12805767  1
  V  V69  1  -0.00412492  0.00347401  0.50566850  1
  V  V70  1  0.49833296  0.74977432  0.25223720  1
  V  V71  1  0.00011239  0.75236371  0.25024763  1
  V  V72  1  0.62397593  0.12315874  0.51455277  1
  V  V73  1  0.12524506  0.88033974  0.24948587  1
  V  V74  1  0.37618759  0.87436516  -0.00068259  1
  V  V75  1  0.50155181  0.12851237  0.12181509  1
  V  V76  1  0.49690445  0.50090379  -0.00795468  1
  V  V77  1  0.62318780  0.24703678  0.88548542  1
  V  V78  1  0.36755905  0.49654787  0.37548386  1
  V  V79  1  0.87722801  0.24716491  0.64111071  1
  V  V80  1  0.75501698  0.75803973  0.49691664  1
  V  V81  1  0.00029244  0.25047681  0.24759751  1
  V  V82  1  0.49399206  0.49952500  0.49951831  1
  V  V83  1  0.49087296  0.37700712  0.86776267  1
  V  V84  1  0.24882797  0.24932175  -0.00571559  1
  Zn  Zn85  1  0.12729963  0.12807627  0.51047581  1
  Zn  Zn86  1  0.91390151  0.05454642  0.82594135  1
  Zn  Zn87  1  0.28113289  0.33249398  0.56576531  1
  Zn  Zn88  1  0.62889322  0.86955401  0.74161968  1
  Zn  Zn89  1  -0.00079329  0.89163314  0.87262832  1
  Zn  Zn90  1  0.87561723  0.48329535  0.37634055  1
  Zn  Zn91  1  0.24771521  0.87704351  0.12116394  1
  Zn  Zn92  1  0.75046662  0.00256053  0.24903637  1
  Zn  Zn93  1  0.50748925  0.74531756  0.75724227  1
  Zn  Zn94  1  0.87740916  0.62254442  0.25181510  1
  Zn  Zn95  1  0.37615690  -0.00293650  0.87399232  1
  Zn  Zn96  1  0.50035837  0.87523622  0.37795164  1
  Zn  Zn97  1  0.00139361  0.61917795  0.62486373  1
  Zn  Zn98  1  0.62117343  0.63125555  -0.00577045  1
  Zn  Zn99  1  0.28719770  0.17495726  0.43481190  1
  Zn  Zn100  1  0.62582658  0.75082787  0.37266028  1
  Zn  Zn101  1  0.38879320  0.24257992  0.61318465  1
  Zn  Zn102  1  0.74701558  0.87870108  0.61653532  1
  Zn  Zn103  1  0.25408481  -0.01485424  0.74247931  1
  Zn  Zn104  1  0.51136786  0.23449737  0.73733175  1
  Zn  Zn105  1  0.87917219  0.62567586  0.74924297  1
  Zn  Zn106  1  0.62319984  0.37418822  0.24875479  1
  Zn  Zn107  1  0.18416073  0.18635248  0.18063693  1
  Zn  Zn108  1  0.18660074  0.18161781  0.68912646  1
  Zn  Zn109  1  0.18636761  0.68903780  0.18972659  1
  Zn  Zn110  1  0.18524690  0.68731145  0.69098600  1
  Zn  Zn111  1  0.68810064  0.18894557  0.18883462  1
  Zn  Zn112  1  0.69642289  0.18985916  0.69238667  1
  Zn  Zn113  1  0.68726750  0.68717109  0.18487154  1
  Zn  Zn114  1  0.68689065  0.69380718  0.68754097  1
  Zn  Zn115  1  0.30970222  0.31669404  0.30913161  1
  Zn  Zn116  1  0.29763072  0.29514232  0.75757250  1
  Zn  Zn117  1  0.31095439  0.82004134  0.31391309  1
  Zn  Zn118  1  0.31738996  0.80674920  0.81190617  1
  Zn  Zn119  1  0.81128275  0.30954128  0.28994369  1
  Zn  Zn120  1  0.81317653  0.31412747  0.81823313  1
  Zn  Zn121  1  0.81205258  0.81331254  0.31101618  1
  Zn  Zn122  1  0.81398676  0.81571585  0.80946691  1
  Zn  Zn123  1  0.18183330  0.44243277  0.42431593  1
  Zn  Zn124  1  0.18497363  0.43779038  0.93813480  1
  Zn  Zn125  1  0.20138351  0.97597969  0.45210240  1
  Zn  Zn126  1  0.20298454  0.92026127  0.90746257  1
  Zn  Zn127  1  0.68073135  0.44229318  0.43451156  1
  Zn  Zn128  1  0.68582038  0.43775216  0.93566616  1
  Zn  Zn129  1  0.68333769  0.94030467  0.43573591  1
  Zn  Zn130  1  0.68934267  0.93945333  0.94293661  1
  Zn  Zn131  1  0.31173278  0.06296354  0.06033478  1
  Zn  Zn132  1  0.31126615  0.05561537  0.56804470  1
  Zn  Zn133  1  0.31188884  0.55992711  0.06232881  1
  Zn  Zn134  1  0.31031163  0.56436659  0.56038338  1
  Zn  Zn135  1  0.81117241  0.06866841  0.05958444  1
  Zn  Zn136  1  0.81683058  0.06971896  0.56076426  1
  Zn  Zn137  1  0.80998511  0.56789804  0.06280545  1
  Zn  Zn138  1  0.81621354  0.56608273  0.56244436  1
  Zn  Zn139  1  0.43612845  0.43786623  0.18962062  1
  Zn  Zn140  1  0.43399313  0.43339174  0.68057244  1
  Zn  Zn141  1  0.43768014  0.93876567  0.18571881  1
  Zn  Zn142  1  0.43826102  0.93253431  0.69435580  1
  Zn  Zn143  1  0.93796326  0.43890635  0.18538265  1
  Zn  Zn144  1  0.94240170  0.43883636  0.67994493  1
  Zn  Zn145  1  0.94092500  0.94183469  0.18494398  1
  Zn  Zn146  1  0.93087911  0.93245507  0.68615258  1
  Zn  Zn147  1  0.05944025  0.06187301  0.30904061  1
  Zn  Zn148  1  0.07788407  0.05790619  0.81931458  1
  Zn  Zn149  1  0.06019026  0.56368735  0.31418821  1
  Zn  Zn150  1  0.05929703  0.56071485  0.80871125  1
  Zn  Zn151  1  0.56194529  0.06505667  0.31200307  1
  Zn  Zn152  1  0.56915095  0.05652405  0.81573016  1
  Zn  Zn153  1  0.56197933  0.56261995  0.31199360  1
  Zn  Zn154  1  0.56629425  0.56136086  0.80942247  1
  Zn  Zn155  1  0.44628113  0.19089128  0.44952844  1
  Zn  Zn156  1  0.43639890  0.19006330  0.93078384  1
  Zn  Zn157  1  0.43469489  0.69066894  0.43951069  1
  Zn  Zn158  1  0.43441920  0.68539724  0.93656200  1
  Zn  Zn159  1  0.94731885  0.18252508  0.43313184  1
  Zn  Zn160  1  0.93640400  0.19843089  0.93666245  1
  Zn  Zn161  1  0.93822294  0.68518768  0.43820651  1
  Zn  Zn162  1  0.93260768  0.68778236  0.93680948  1
  Zn  Zn163  1  0.06354958  0.30956904  0.06359776  1
  Zn  Zn164  1  0.05784321  0.30467908  0.55802465  1
  Zn  Zn165  1  0.06371367  0.81205660  0.05917388  1
  Zn  Zn166  1  0.05797784  0.81203376  0.55964653  1
  Zn  Zn167  1  0.56296333  0.31706015  0.06070529  1
  Zn  Zn168  1  0.56165890  0.31232984  0.56309909  1
  Zn  Zn169  1  0.56259955  0.81436429  0.06548169  1
  Zn  Zn170  1  0.56312531  0.81376046  0.56636298  1
  O  O171  1  0.11542447  0.11211654  0.12119894  1
  O  O172  1  0.11082300  0.11964554  0.62888978  1
  O  O173  1  0.11919004  0.61911840  0.12181992  1
  O  O174  1  0.12695479  0.63282655  0.60757066  1
  O  O175  1  0.61670676  0.11769968  0.13170106  1
  O  O176  1  0.63726336  0.13114237  0.61232332  1
  O  O177  1  0.61872697  0.61389718  0.12276127  1
  O  O178  1  0.61874248  0.61977126  0.61701221  1
  O  O179  1  0.38051670  0.38510793  0.37036671  1
  O  O180  1  0.38975578  0.37109031  0.87291501  1
  O  O181  1  0.37979758  0.88168209  0.38350480  1
  O  O182  1  0.38964809  0.87270079  0.89048042  1
  O  O183  1  0.85765017  0.36514755  0.38166971  1
  O  O184  1  0.88819802  0.38190604  0.87462489  1
  O  O185  1  0.88182655  0.88848220  0.36641957  1
  O  O186  1  0.87710598  0.87140160  0.89052685  1
  O  O187  1  0.26683153  -0.00473338  0.35976556  1
  O  O188  1  0.25352958  0.02319010  0.89632670  1
  O  O189  1  0.25862849  0.50993960  0.37247085  1
  O  O190  1  0.24287179  0.51113729  0.86801711  1
  O  O191  1  0.75748876  0.00671396  0.37149115  1
  O  O192  1  0.74815995  0.01960541  0.88631920  1
  O  O193  1  0.75095525  0.50539359  0.36611854  1
  O  O194  1  0.75771419  0.50246419  0.86718346  1
  O  O195  1  0.24005156  0.49217084  0.12203094  1
  O  O196  1  0.23581725  0.51010303  0.63328791  1
  O  O197  1  0.23741613  1.00043830  0.12730265  1
  O  O198  1  0.23221815  0.99234336  0.62597523  1
  O  O199  1  0.74264830  0.49723825  0.12856892  1
  O  O200  1  0.74831565  0.49400684  0.62985100  1
  O  O201  1  0.74175995  0.99875019  0.12671542  1
  O  O202  1  0.75231980  1.00372091  0.63188684  1
  O  O203  1  0.00816005  0.36323853  0.23722107  1
  O  O204  1  0.00826595  0.38234016  0.76032590  1
  O  O205  1  0.00530853  0.87330620  0.25836153  1
  O  O206  1  -0.00742541  0.86042084  0.75492622  1
  O  O207  1  0.50098928  0.36997669  0.26065775  1
  O  O208  1  0.51474076  0.38190779  0.75349611  1
  O  O209  1  0.50596127  0.86583566  0.24738576  1
  O  O210  1  0.50193456  0.87380611  0.77056578  1
  O  O211  1  0.49272042  0.13353619  0.24411144  1
  O  O212  1  0.49002793  0.11577000  0.75769160  1
  O  O213  1  0.49115531  0.63169462  0.24629143  1
  O  O214  1  0.49178266  0.62131149  0.74279325  1
  O  O215  1  0.99423251  0.12943044  0.24106008  1
  O  O216  1  0.99653029  0.11863229  0.74400816  1
  O  O217  1  0.99878712  0.63414722  0.24300931  1
  O  O218  1  0.99922772  0.63333779  0.74385635  1
  O  O219  1  0.37256549  0.26085352  0.00358295  1
  O  O220  1  0.35691140  0.24166495  0.49796262  1
  O  O221  1  0.36986082  0.75316095  0.00754345  1
  O  O222  1  0.37706774  0.75785708  0.51351783  1
  O  O223  1  0.85987245  0.25636523  0.00276277  1
  O  O224  1  0.87907586  0.24691554  0.50441399  1
  O  O225  1  0.86627216  0.75436220  0.01138064  1
  O  O226  1  0.86539439  0.74461655  0.50447973  1
  O  O227  1  0.12074509  0.24621973  0.48068701  1
  O  O228  1  0.13680382  0.26065817  0.98742135  1
  O  O229  1  0.11883593  0.74717984  0.48546893  1
  O  O230  1  0.13109812  0.73525658  0.99944710  1
  O  O231  1  0.61944375  0.23972981  0.48593990  1
  O  O232  1  0.62720192  0.25453428  0.98760201  1
  O  O233  1  0.62938106  0.73824854  0.49564259  1
  O  O234  1  0.64078559  0.75022612  1.01010891  1
  O  O235  1  0.49604973  0.24881836  0.12858019  1
  O  O236  1  0.50352161  0.24278524  0.62479143  1
  O  O237  1  0.49463328  0.74281075  0.13364359  1
  O  O238  1  0.49313382  0.73615239  0.62368213  1
  O  O239  1  1.01039088  0.23369566  0.13295982  1
  O  O240  1  0.99444043  0.23521783  0.62560430  1
  O  O241  1  0.99486243  0.74282609  0.12945251  1
  O  O242  1  0.99279570  0.74874593  0.63035995  1
  O  O243  1  0.01187274  0.24646821  0.35799476  1
  O  O244  1  0.00824685  0.26623780  0.87963125  1
  O  O245  1  0.00345822  0.75831992  0.36942952  1
  O  O246  1  0.00508172  0.74216348  0.86554321  1
  O  O247  1  0.50598895  0.25750184  0.37226936  1
  O  O248  1  0.51255801  0.25747767  0.87098573  1
  O  O249  1  0.50159323  0.74975002  0.36276237  1
  O  O250  1  0.50055444  0.76163540  0.88142686  1
  O  O251  1  0.23593632  0.09144619  0.49023325  1
  O  O252  1  0.26059162  0.14501371  0.99667571  1
  O  O253  1  0.24134566  0.62344883  0.48574688  1
  O  O254  1  0.24490056  0.62627314  0.99331657  1
  O  O255  1  0.74185821  0.11879953  0.48608759  1
  O  O256  1  0.74914195  0.14151950  0.99350699  1
  O  O257  1  0.74281960  0.62790756  0.49114566  1
  O  O258  1  0.74751915  0.63448069  0.99197429  1
  O  O259  1  0.25648088  0.37132041  0.00473073  1
  O  O260  1  0.20105296  0.39897254  0.52671650  1
  O  O261  1  0.26072536  0.86542503  -0.00119324  1
  O  O262  1  0.26529745  0.88685385  0.49590922  1
  O  O263  1  0.74161279  0.36393172  0.00524863  1
  O  O264  1  0.74427616  0.37559168  0.50776197  1
  O  O265  1  0.75920340  0.86910287  0.00611904  1
  O  O266  1  0.74581982  0.86068495  0.49083758  1
  O  O267  1  0.11831652  0.49337481  0.23896626  1
  O  O268  1  0.12825261  0.48893667  0.74220758  1
  O  O269  1  0.13372629  0.99636479  0.24910521  1
  O  O270  1  0.12737960  0.99728375  0.73666252  1
  O  O271  1  0.63409034  0.50066396  0.24228265  1
  O  O272  1  0.63849569  0.49345020  0.74389980  1
  O  O273  1  0.62370379  0.99339352  0.24048886  1
  O  O274  1  0.64501675  0.99418272  0.75870211  1
  O  O275  1  0.37009041  0.00605977  0.25318568  1
  O  O276  1  0.37262492  0.00501472  0.75507450  1
  O  O277  1  0.38080033  0.51182222  0.26073026  1
  O  O278  1  0.36384552  0.51114165  0.74075927  1
  O  O279  1  0.87607748  0.01048223  0.25671395  1
  O  O280  1  0.85690879  -0.00308624  0.74891515  1
  O  O281  1  0.86265333  0.49984403  0.25300696  1
  O  O282  1  0.86611977  0.49833797  0.75042719  1
  O  O283  1  0.12746544  0.36688749  0.35648594  1
  O  O284  1  0.11265584  0.37586288  0.86992464  1
  O  O285  1  0.11723073  0.87079218  0.36951820  1
  O  O286  1  0.11025008  0.85254607  0.89629373  1
  O  O287  1  0.61748617  0.36754717  0.37216284  1
  O  O288  1  0.62049559  0.36665617  0.86701407  1
  O  O289  1  0.62196243  0.87436269  0.36012721  1
  O  O290  1  0.61520968  0.87465548  0.88333026  1
  O  O291  1  0.38149881  0.13232731  0.13003142  1
  O  O292  1  0.37269957  0.11905315  0.64061005  1
  O  O293  1  0.37807810  0.62745746  0.13403933  1
  O  O294  1  0.38015262  0.63243222  0.62863827  1
  O  O295  1  0.88919223  0.11641261  0.13165120  1
  O  O296  1  0.88848214  0.13230034  0.62463552  1
  O  O297  1  0.88193340  0.63298154  0.12685925  1
  O  O298  1  0.87951442  0.63559592  0.62666470  1
  O  O299  1  0.25268868  0.25879435  0.11470302  1
  O  O300  1  0.26236767  0.25377747  0.65025892  1
  O  O301  1  0.25496460  0.75149140  0.11930391  1
  O  O302  1  0.26490828  0.74674203  0.63126061  1
  O  O303  1  0.74034895  0.25900280  0.11197811  1
  O  O304  1  0.76143247  0.25795741  0.62345391  1
  O  O305  1  0.75905553  0.75491091  0.12069347  1
  O  O306  1  0.75751671  0.74445508  0.61069278  1
  O  O307  1  0.23362683  0.25017144  0.36500551  1
  O  O308  1  0.24561584  0.24498864  0.87720238  1
  O  O309  1  0.24068327  0.74485252  0.36923018  1
  O  O310  1  0.24005915  0.73477817  0.88000843  1
  O  O311  1  0.74768378  0.24743755  0.38045227  1
  O  O312  1  0.74139990  0.24917275  0.88571787  1
  O  O313  1  0.74849466  0.74134581  0.37818439  1
  O  O314  1  0.75923964  0.74117315  0.88376179  1
  O  O315  1  -0.00577731  0.13285179  0.01201332  1
  O  O316  1  0.00548491  0.11515860  0.50708438  1
  O  O317  1  0.00713523  0.63144818  0.00966973  1
  O  O318  1  0.00886019  0.61841621  0.49974454  1
  O  O319  1  0.49415199  0.11489933  0.00324385  1
  O  O320  1  0.51012817  0.10789711  0.49660592  1
  O  O321  1  0.50079640  0.61828486  0.00424051  1
  O  O322  1  0.50648728  0.62154165  0.50426518  1
  O  O323  1  0.50722927  0.38332971  0.48618341  1
  O  O324  1  0.49534087  0.38261818  0.99009766  1
  O  O325  1  0.49540703  0.88660063  0.49794592  1
  O  O326  1  0.49698383  0.88126435  0.99649810  1
  O  O327  1  1.00713456  0.38911041  0.49707349  1
  O  O328  1  1.00325586  0.37837907  0.99194336  1
  O  O329  1  0.99817141  0.88097708  0.48628507  1
  O  O330  1  0.98337978  0.87011711  1.00276609  1
  O  O331  1  0.49286630  0.49375625  0.37777627  1
  O  O332  1  0.50754471  0.49168566  0.88229476  1
  O  O333  1  0.48793242  0.99800517  0.37076563  1
  O  O334  1  0.50207758  0.98945377  0.88705136  1
  O  O335  1  0.99440908  0.50196207  0.38559857  1
  O  O336  1  0.99088580  0.49050753  0.87509817  1
  O  O337  1  0.99439639  0.99566542  0.38250714  1
  O  O338  1  0.99925278  1.00481370  0.87531557  1
  O  O339  1  0.01375837  0.01067471  0.12462111  1
  O  O340  1  0.00098422  0.00617917  0.62297273  1
  O  O341  1  0.00518561  0.51420953  0.12821397  1
  O  O342  1  0.01727034  0.49798444  0.60951086  1
  O  O343  1  0.50608962  0.00682807  0.11889119  1
  O  O344  1  0.49865645  -0.00400913  0.61656756  1
  O  O345  1  0.50566531  0.50360596  0.11916866  1
  O  O346  1  0.50466971  0.51007467  0.62003751  1
  O  O347  1  0.24065092  0.37215105  0.23396077  1
  O  O348  1  0.23594684  0.39044792  0.76062782  1
  O  O349  1  0.24527665  0.88677731  0.24286746  1
  O  O350  1  0.24671057  0.88987546  0.80257644  1
  O  O351  1  0.74280298  0.38328611  0.23763974  1
  O  O352  1  0.74343187  0.38049915  0.74472183  1
  O  O353  1  0.74126297  0.87757824  0.24316549  1
  O  O354  1  0.74977089  0.88952525  0.75040415  1
  O  O355  1  0.25573923  0.11457097  0.24012131  1
  O  O356  1  0.26093552  0.11683912  0.76022051  1
  O  O357  1  0.26053595  0.63020068  0.25858700  1
  O  O358  1  0.25334020  0.61613389  0.75713168  1
  O  O359  1  0.75889019  0.12708693  0.25981437  1
  O  O360  1  0.74720063  0.11358236  0.76411850  1
  O  O361  1  0.75026722  0.61776755  0.25583132  1
  O  O362  1  0.75276442  0.61644245  0.75495598  1
  O  O363  1  0.37566987  0.12051929  0.36865164  1
  O  O364  1  0.36989247  0.12130541  0.86779998  1
  O  O365  1  0.36703269  0.62272013  0.36997138  1
  O  O366  1  0.36485781  0.62801067  0.86423550  1
  O  O367  1  0.87075784  0.11604680  0.36892384  1
  O  O368  1  0.85742971  0.13995598  0.87572024  1
  O  O369  1  0.86229480  0.62342944  0.37249047  1
  O  O370  1  0.86517456  0.61471589  0.87308009  1
  O  O371  1  0.13028109  0.38331849  0.12870970  1
  O  O372  1  0.11071141  0.36907567  0.64169029  1
  O  O373  1  0.12285689  0.88754040  0.12894420  1
  O  O374  1  0.11642166  0.88262008  0.62793030  1
  O  O375  1  0.62791660  0.38864391  0.12582601  1
  O  O376  1  0.63629179  0.37963791  0.63109770  1
  O  O377  1  0.63006208  0.88265143  0.13391366  1
  O  O378  1  0.63379007  0.87319401  0.62530538  1
  O  O379  1  0.11961392  0.25514348  0.25180273  1
  O  O380  1  0.12908268  0.26737203  0.76241329  1
  O  O381  1  0.12000729  0.75897919  0.25739597  1
  O  O382  1  0.11634982  0.74503919  0.76139086  1
  O  O383  1  0.61900559  0.25074882  0.26216098  1
  O  O384  1  0.62863091  0.25848546  0.75990034  1
  O  O385  1  0.61653189  0.75686779  0.24755930  1
  O  O386  1  0.62039261  0.75336136  0.75133323  1
  O  O387  1  0.37911005  0.24744616  0.24249346  1
  O  O388  1  0.38934467  0.22795298  0.75626706  1
  O  O389  1  0.38061029  0.74543917  0.24617606  1
  O  O390  1  0.38131697  0.73960883  0.74091081  1
  O  O391  1  0.88475382  0.23524485  0.24885899  1
  O  O392  1  0.87163471  0.25379801  0.74052428  1
  O  O393  1  0.87944092  0.75015579  0.23812388  1
  O  O394  1  0.88031019  0.74683656  0.74129192  1
  O  O395  1  0.38045760  0.50743654  0.48712804  1
  O  O396  1  0.38846902  0.49559622  1.00331156  1
  O  O397  1  0.38777793  0.99600159  0.49429719  1
  O  O398  1  0.38430593  0.99026343  1.00265474  1
  O  O399  1  0.88930394  0.50114661  0.49922265  1
  O  O400  1  0.86844640  0.50082158  0.99140677  1
  O  O401  1  0.88517699  1.00355980  0.49151892  1
  O  O402  1  0.87083636  0.98604009  1.00597815  1
  O  O403  1  0.13147458  -0.00810158  0.00654790  1
  O  O404  1  0.10812831  -0.00414731  0.51522600  1
  O  O405  1  0.12773693  0.51153797  0.01133902  1
  O  O406  1  0.11528878  0.51320804  0.49470408  1
  O  O407  1  0.61654814  -0.00362884  0.01492415  1
  O  O408  1  0.61152947  0.00638491  0.49537342  1
  O  O409  1  0.61437627  0.50151786  0.00630566  1
  O  O410  1  0.61830695  0.51146917  0.50451303  1
  O  O411  1  0.36719614  0.37263604  0.11982494  1
  O  O412  1  0.37359778  0.36231726  0.62402094  1
  O  O413  1  0.37580285  0.86881612  0.11461725  1
  O  O414  1  0.38049591  0.86088984  0.62169628  1
  O  O415  1  0.85971218  0.37959856  0.12646397  1
  O  O416  1  0.86568312  0.36909555  0.62589037  1
  O  O417  1  0.87102138  0.86980072  0.12128786  1
  O  O418  1  0.86602643  0.85939005  0.62306710  1
  O  O419  1  0.12328567  0.13688694  0.37023721  1
  O  O420  1  0.13608493  0.14116661  0.86941017  1
  O  O421  1  0.13132987  0.63499208  0.37822024  1
  O  O422  1  0.12760949  0.62703027  0.88341603  1
  O  O423  1  0.63469197  0.13225791  0.37532249  1
  O  O424  1  0.63466163  0.14049666  0.87261695  1
  O  O425  1  0.63488752  0.62448813  0.38092449  1
  O  O426  1  0.64078518  0.61804561  0.87672775  1
