# generated using pymatgen
data_V85Zn86O256
_symmetry_space_group_name_H-M   'P 1'
_cell_length_a   16.96865306
_cell_length_b   16.97543379
_cell_length_c   16.96009438
_cell_angle_alpha   89.98990647
_cell_angle_beta   89.89386455
_cell_angle_gamma   90.00767429
_symmetry_Int_Tables_number   1
_chemical_formula_structural   V85Zn86O256
_chemical_formula_sum   'V85 Zn86 O256'
_cell_volume   4885.35086596
_cell_formula_units_Z   1
loop_
 _symmetry_equiv_pos_site_id
 _symmetry_equiv_pos_as_xyz
  1  'x, y, z'
loop_
 _atom_site_type_symbol
 _atom_site_label
 _atom_site_symmetry_multiplicity
 _atom_site_fract_x
 _atom_site_fract_y
 _atom_site_fract_z
 _atom_site_occupancy
  V  V0  1  0.12952641  0.49316476  0.12470372  1
  V  V1  1  0.12185645  0.49742410  0.63199111  1
  V  V2  1  0.12020008  0.12254188  0.49909538  1
  V  V3  1  0.75613579  0.88735847  0.62413815  1
  V  V4  1  0.62686862  0.75875673  0.37839615  1
  V  V5  1  0.62731715  0.62018535  0.50364640  1
  V  V6  1  0.50421221  0.49844917  0.50644828  1
  V  V7  1  0.12098982  0.62412466  -0.00151999  1
  V  V8  1  -0.00695217  0.63590362  0.63197250  1
  V  V9  1  0.74846405  0.12001814  0.36748588  1
  V  V10  1  0.24594209  0.37420208  0.62698716  1
  V  V11  1  -0.00563290  0.12744262  0.62337901  1
  V  V12  1  -0.00128187  0.49030959  -0.00150887  1
  V  V13  1  0.11970357  0.12928190  0.00377543  1
  V  V14  1  0.37613836  0.62127015  0.75119064  1
  V  V15  1  0.75329422  0.88340942  0.14067023  1
  V  V16  1  0.75130446  0.62434383  0.37525031  1
  V  V17  1  0.25357918  0.62668514  0.37389530  1
  V  V18  1  0.63957777  0.38298501  0.24354878  1
  V  V19  1  0.50182471  0.12368237  0.11724799  1
  V  V20  1  0.49161471  0.38187143  0.87908132  1
  V  V21  1  0.75972381  0.75127230  0.51103297  1
  V  V22  1  0.88184498  0.11947383  0.24491080  1
  V  V23  1  0.73919616  0.62389719  0.87820815  1
  V  V24  1  0.87778682  0.24362289  0.11782139  1
  V  V25  1  0.50694566  0.75071233  0.24609610  1
  V  V26  1  0.25722361  0.25789366  0.01246378  1
  V  V27  1  0.37550386  0.37191863  0.49990182  1
  V  V28  1  0.24921699  0.49431677  0.75390197  1
  V  V29  1  0.75804944  0.00584118  0.75898031  1
  V  V30  1  0.49894257  0.52003558  0.00794504  1
  V  V31  1  0.24595013  0.87402013  0.62465084  1
  V  V32  1  0.25013759  0.12813239  0.87719478  1
  V  V33  1  0.12733312  0.74931620  0.37421604  1
  V  V34  1  0.25101711  0.75285371  0.00187942  1
  V  V35  1  -0.00093926  0.00105786  -0.01736171  1
  V  V36  1  0.12644488  0.87545012  0.24783590  1
  V  V37  1  0.62021731  0.25109351  0.88098981  1
  V  V38  1  0.87209471  0.49740741  0.37091778  1
  V  V39  1  0.11876247  0.00029774  0.62078583  1
  V  V40  1  0.11424142  0.00334825  0.12435836  1
  V  V41  1  0.24837318  0.00288358  0.24828966  1
  V  V42  1  0.25095689  0.12667017  0.37626209  1
  V  V43  1  -0.06372773  0.81049532  0.81719919  1
  V  V44  1  0.50444048  0.62227552  0.63035137  1
  V  V45  1  0.62544410  0.11822164  0.50236039  1
  V  V46  1  0.62727553  0.24987507  0.37173684  1
  V  V47  1  0.12604100  0.62281214  0.50186104  1
  V  V48  1  0.50292925  0.13493917  0.62758340  1
  V  V49  1  0.12603692  0.26127742  0.87162231  1
  V  V50  1  0.37741651  0.13054988  0.24444208  1
  V  V51  1  0.37583646  0.87463750  0.49260361  1
  V  V52  1  0.24902004  0.61996162  0.87402978  1
  V  V53  1  0.57776130  -0.05433558  0.67999643  1
  V  V54  1  0.50121500  0.37551352  0.37428646  1
  V  V55  1  0.37875204  0.00227768  0.37050280  1
  V  V56  1  0.49914389  0.25548209  0.24077473  1
  V  V57  1  0.62041335  0.37008833  0.74149332  1
  V  V58  1  0.00075524  0.49922244  0.50180362  1
  V  V59  1  0.37547205  0.74878224  0.62689932  1
  V  V60  1  0.37515670  -0.01085695  0.88947778  1
  V  V61  1  0.25410382  0.49350186  0.24493316  1
  V  V62  1  0.86573889  0.49250532  0.87132507  1
  V  V63  1  0.00125817  0.26074411  0.74809850  1
  V  V64  1  0.25257024  0.74738472  0.49864686  1
  V  V65  1  0.37694059  0.50018646  0.37641494  1
  V  V66  1  0.74161596  0.49613758  0.73433870  1
  V  V67  1  0.38401857  0.62779160  0.23901930  1
  V  V68  1  0.87530275  0.00138874  0.38406290  1
  V  V69  1  0.37721538  0.12966221  0.75064810  1
  V  V70  1  0.00238328  0.37300845  0.37497014  1
  V  V71  1  0.00212429  0.88062020  0.38368940  1
  V  V72  1  0.62958431  0.00140036  0.13728294  1
  V  V73  1  0.00321568  0.74992945  0.25118025  1
  V  V74  1  0.87750439  0.62407825  0.25447765  1
  V  V75  1  0.87813557  0.75347838  0.12713150  1
  V  V76  1  0.12974534  0.25096002  0.37577384  1
  V  V77  1  0.11895658  0.75141970  0.86899251  1
  V  V78  1  0.86666470  0.37057948  0.50453687  1
  V  V79  1  -0.00259838  0.62215669  0.12538344  1
  V  V80  1  0.88393277  0.87842437  -0.00043974  1
  V  V81  1  0.82332720  0.42187668  0.05445351  1
  V  V82  1  0.74543898  0.75104814  -0.00013104  1
  V  V83  1  0.11672953  0.87369603  0.75338040  1
  V  V84  1  0.24531660  0.00065317  0.75234643  1
  Zn  Zn85  1  0.37553593  0.38401679  0.01557519  1
  Zn  Zn86  1  0.52121122  0.76784753  0.74986159  1
  Zn  Zn87  1  0.37404902  0.25240220  0.63192332  1
  Zn  Zn88  1  0.88135332  0.87542776  0.50444419  1
  Zn  Zn89  1  0.86471610  0.25504069  0.63331964  1
  Zn  Zn90  1  0.25376710  0.88217639  0.11233886  1
  Zn  Zn91  1  0.25102869  0.24881927  0.50354980  1
  Zn  Zn92  1  0.62571525  0.11537299  -0.00087639  1
  Zn  Zn93  1  0.50243691  -0.00136602  0.49914682  1
  Zn  Zn94  1  0.60418632  0.75889589  0.88637052  1
  Zn  Zn95  1  0.75788488  0.12780089  0.88258587  1
  Zn  Zn96  1  0.74943939  0.24993191  0.00383161  1
  Zn  Zn97  1  0.50622388  0.87980608  0.36660663  1
  Zn  Zn98  1  0.88079515  0.12695693  0.76222675  1
  Zn  Zn99  1  0.13083853  0.37121941  0.24725744  1
  Zn  Zn100  1  0.62309501  0.50737465  0.12496224  1
  Zn  Zn101  1  0.87114743  0.63251731  0.74899816  1
  Zn  Zn102  1  -0.00358909  0.37556645  0.87188766  1
  Zn  Zn103  1  0.00317233  0.24692990  0.24657418  1
  Zn  Zn104  1  0.53049014  -0.06954996  -0.03625738  1
  Zn  Zn105  1  0.74343877  0.25066802  0.50671885  1
  Zn  Zn106  1  0.40983497  0.77845587  0.08959676  1
  Zn  Zn107  1  0.18232162  0.18386103  0.18884298  1
  Zn  Zn108  1  0.18575915  0.18915654  0.68848844  1
  Zn  Zn109  1  0.18846533  0.68059474  0.18606307  1
  Zn  Zn110  1  0.18502609  0.68526481  0.68817237  1
  Zn  Zn111  1  0.69219514  0.18995051  0.18487066  1
  Zn  Zn112  1  0.68651988  0.19031913  0.68859009  1
  Zn  Zn113  1  0.68889136  0.69412382  0.19340574  1
  Zn  Zn114  1  0.68513291  0.68439934  0.68878923  1
  Zn  Zn115  1  0.31521485  0.31148875  0.18978856  1
  Zn  Zn116  1  0.31070782  0.31243379  0.81470593  1
  Zn  Zn117  1  0.33443973  0.83111939  0.27666409  1
  Zn  Zn118  1  0.30873735  0.80880077  0.81264518  1
  Zn  Zn119  1  0.81432413  0.30527739  0.31082583  1
  Zn  Zn120  1  0.80703466  0.31184197  0.81181386  1
  Zn  Zn121  1  0.81649397  0.81019069  0.31973821  1
  Zn  Zn122  1  0.74351618  0.80143201  0.79382837  1
  Zn  Zn123  1  0.19017341  0.43792073  0.43830017  1
  Zn  Zn124  1  0.18839174  0.43637620  0.94026237  1
  Zn  Zn125  1  0.18979955  0.93905157  0.43629364  1
  Zn  Zn126  1  0.18326386  0.93717348  0.93507693  1
  Zn  Zn127  1  0.68805057  0.43862460  0.43379769  1
  Zn  Zn128  1  0.67579371  0.43961465  0.93533041  1
  Zn  Zn129  1  0.69316504  0.93972485  0.43765658  1
  Zn  Zn130  1  0.69567730  0.93806598  0.94578381  1
  Zn  Zn131  1  0.30740598  0.06756153  0.06492140  1
  Zn  Zn132  1  0.31074711  0.06214203  0.56205214  1
  Zn  Zn133  1  0.31700760  0.56457154  0.06036704  1
  Zn  Zn134  1  0.31491986  0.55899322  0.56507492  1
  Zn  Zn135  1  0.81345660  0.06368971  0.05647975  1
  Zn  Zn136  1  0.80760497  0.06612117  0.56205779  1
  Zn  Zn137  1  0.77499679  0.59188678  0.08864938  1
  Zn  Zn138  1  0.81611421  0.56074152  0.56069948  1
  Zn  Zn139  1  0.44615207  0.44380596  0.18499794  1
  Zn  Zn140  1  0.43768383  0.43686823  0.69008417  1
  Zn  Zn141  1  0.44745142  0.92574133  0.15178776  1
  Zn  Zn142  1  0.41561765  0.94392948  0.68730100  1
  Zn  Zn143  1  0.94245929  0.43616157  0.19263123  1
  Zn  Zn144  1  0.93361609  0.44035039  0.68884540  1
  Zn  Zn145  1  0.93814056  0.94085895  0.19077105  1
  Zn  Zn146  1  0.93381574  0.94283957  0.68356627  1
  Zn  Zn147  1  0.05973994  0.06155082  0.31461955  1
  Zn  Zn148  1  0.06417218  0.07140455  0.80915015  1
  Zn  Zn149  1  0.06475293  0.55920281  0.31268124  1
  Zn  Zn150  1  0.05898420  0.56172057  0.81180411  1
  Zn  Zn151  1  0.56237392  0.06267471  0.30691296  1
  Zn  Zn152  1  0.55501842  0.06619951  0.82050681  1
  Zn  Zn153  1  0.56613158  0.56250164  0.31539795  1
  Zn  Zn154  1  0.56305558  0.55811671  0.81679034  1
  Zn  Zn155  1  0.44157459  0.18844799  0.43666851  1
  Zn  Zn156  1  0.43773818  0.19216451  0.93380552  1
  Zn  Zn157  1  0.44061478  0.68735654  0.43455416  1
  Zn  Zn158  1  0.43429582  0.68732229  0.92556579  1
  Zn  Zn159  1  0.93900668  0.18770479  0.43578646  1
  Zn  Zn160  1  0.93910588  0.18708344  0.93408507  1
  Zn  Zn161  1  0.94078112  0.68763231  0.44098570  1
  Zn  Zn162  1  0.92296138  0.67497251  0.94278191  1
  Zn  Zn163  1  0.05974521  0.30942200  0.06424267  1
  Zn  Zn164  1  0.06156589  0.31157384  0.56120427  1
  Zn  Zn165  1  0.06447950  0.81365337  0.06071586  1
  Zn  Zn166  1  0.06432093  0.81047699  0.56258007  1
  Zn  Zn167  1  0.56237459  0.31940878  0.06218809  1
  Zn  Zn168  1  0.56314850  0.30703056  0.56142636  1
  Zn  Zn169  1  0.57749291  0.80926305  0.07235897  1
  Zn  Zn170  1  0.55977744  0.80541192  0.55824615  1
  O  O171  1  0.12743481  0.11632445  0.11577636  1
  O  O172  1  0.11886615  0.11899385  0.61796506  1
  O  O173  1  0.11573472  0.61488961  0.12003913  1
  O  O174  1  0.11671956  0.61712493  0.62060918  1
  O  O175  1  0.61958510  0.12019861  0.12649233  1
  O  O176  1  0.61483034  0.13009118  0.61503829  1
  O  O177  1  0.66991167  0.60931662  0.12764912  1
  O  O178  1  0.61246227  0.62723626  0.61863167  1
  O  O179  1  0.38515922  0.38543978  0.38616028  1
  O  O180  1  0.39037681  0.37051282  0.87200080  1
  O  O181  1  0.37551159  0.88400274  0.37707732  1
  O  O182  1  0.36409236  0.89153164  0.86954601  1
  O  O183  1  0.88243766  0.37980509  0.37949766  1
  O  O184  1  0.87584562  0.38717224  0.86954284  1
  O  O185  1  0.88490584  0.88366865  0.37690584  1
  O  O186  1  0.88433541  0.86717836  0.88286647  1
  O  O187  1  0.25567402  0.00849989  0.36878580  1
  O  O188  1  0.25050670  0.01041777  0.87201459  1
  O  O189  1  0.25450096  0.50973918  0.36800298  1
  O  O190  1  0.23997532  0.50658301  0.86484781  1
  O  O191  1  0.76041742  0.00823853  0.37404253  1
  O  O192  1  0.74441468  0.00135333  0.86110789  1
  O  O193  1  0.76043724  0.51189121  0.38144640  1
  O  O194  1  0.75229005  0.50572113  0.87479940  1
  O  O195  1  0.24154650  0.51180880  0.13350957  1
  O  O196  1  0.24202505  0.49452305  0.63188027  1
  O  O197  1  0.23893074  0.99894594  0.13173093  1
  O  O198  1  0.23974195  0.99464513  0.63054607  1
  O  O199  1  0.77089833  0.47920301  0.11615520  1
  O  O200  1  0.74911768  0.50371137  0.63592980  1
  O  O201  1  0.75028931  0.98879399  0.12359204  1
  O  O202  1  0.74575084  0.99606758  0.63021619  1
  O  O203  1  0.00632406  0.37528924  0.26577839  1
  O  O204  1  -0.00016346  0.36492720  0.74712572  1
  O  O205  1  0.01145350  0.87155133  0.25854297  1
  O  O206  1  -0.00507846  0.86982973  0.75233351  1
  O  O207  1  0.50697242  0.36985036  0.25799056  1
  O  O208  1  0.51178176  0.38688468  0.76217396  1
  O  O209  1  0.49575017  0.85380695  0.25030515  1
  O  O210  1  0.50991734  0.88798558  0.73112099  1
  O  O211  1  0.49334169  0.13600878  0.24529623  1
  O  O212  1  0.48876693  0.11740347  0.74027757  1
  O  O213  1  0.48974421  0.62820496  0.25826756  1
  O  O214  1  0.49089196  0.61479365  0.74278714  1
  O  O215  1  0.98560108  0.12740498  0.25623382  1
  O  O216  1  1.00074870  0.13642979  0.73903790  1
  O  O217  1  0.99700791  0.62910764  0.24690073  1
  O  O218  1  0.99532034  0.62139127  0.73575619  1
  O  O219  1  0.35726633  0.24770339  -0.00125826  1
  O  O220  1  0.37491764  0.26288138  0.49942721  1
  O  O221  1  0.35531488  0.74082585  -0.00351596  1
  O  O222  1  0.37148712  0.75582955  0.50385906  1
  O  O223  1  0.87725493  0.24520627  0.01441470  1
  O  O224  1  0.87622998  0.26511296  0.49598486  1
  O  O225  1  0.87745145  0.75876916  0.01135094  1
  O  O226  1  0.86286713  0.75182639  0.49566809  1
  O  O227  1  0.12722019  0.24106656  0.49438374  1
  O  O228  1  0.13213069  0.24536936  0.99630357  1
  O  O229  1  0.13305690  0.74302970  0.49374926  1
  O  O230  1  0.12499704  0.74322280  0.98679325  1
  O  O231  1  0.62135445  0.23925829  0.48796995  1
  O  O232  1  0.62621601  0.25387688  0.98969598  1
  O  O233  1  0.63079060  0.73745761  0.49500261  1
  O  O234  1  0.64346870  0.74308528  1.00702369  1
  O  O235  1  0.50861289  0.24410217  0.13714993  1
  O  O236  1  0.49237080  0.23827194  0.62366053  1
  O  O237  1  0.50866567  0.73771313  0.14354976  1
  O  O238  1  0.49526981  0.74201910  0.63372172  1
  O  O239  1  0.98578284  0.25317461  0.13035098  1
  O  O240  1  0.99942110  0.24395747  0.63124455  1
  O  O241  1  0.99801694  0.74405062  0.13118529  1
  O  O242  1  1.00425932  0.73420142  0.62246662  1
  O  O243  1  0.01153203  0.25750322  0.37571791  1
  O  O244  1  0.00948048  0.25392410  0.86763774  1
  O  O245  1  0.00822910  0.75534044  0.37003476  1
  O  O246  1  -0.00203418  0.74511881  0.87216254  1
  O  O247  1  0.51088845  0.25294435  0.36528428  1
  O  O248  1  0.51018814  0.26222880  0.87700640  1
  O  O249  1  0.51242411  0.75059506  0.37123701  1
  O  O250  1  0.49398963  0.74735715  0.85669394  1
  O  O251  1  0.24026245  0.12627481  0.49482890  1
  O  O252  1  0.24087032  0.13678426  0.99613972  1
  O  O253  1  0.24694774  0.62565706  0.49415530  1
  O  O254  1  0.24077632  0.62897148  0.99054383  1
  O  O255  1  0.74161473  0.12703461  0.48713715  1
  O  O256  1  0.74296219  0.13014062  0.99966867  1
  O  O257  1  0.74557490  0.63153280  0.49814899  1
  O  O258  1  0.77220520  0.64125573  0.98695120  1
  O  O259  1  0.25375697  0.36172848  -0.00168021  1
  O  O260  1  0.26013436  0.37635347  0.50791111  1
  O  O261  1  0.24157982  0.85751142  -0.00259990  1
  O  O262  1  0.25937480  0.86949183  0.50185109  1
  O  O263  1  0.75458309  0.37269439  -0.00292920  1
  O  O264  1  0.76406967  0.37415690  0.49249817  1
  O  O265  1  0.76902060  0.86835518  0.00817493  1
  O  O266  1  0.75241373  0.86814080  0.50719508  1
  O  O267  1  0.13664526  0.50122433  0.24240480  1
  O  O268  1  0.13122138  0.50336749  0.73806375  1
  O  O269  1  0.12583815  0.99549459  0.24341379  1
  O  O270  1  0.12768371  0.99539235  0.74279339  1
  O  O271  1  0.62385150  0.48608612  0.25362280  1
  O  O272  1  0.63545742  0.49094232  0.75298383  1
  O  O273  1  0.63119878  1.00288975  0.23889955  1
  O  O274  1  0.62699263  1.00313254  0.74840149  1
  O  O275  1  0.36914279  0.00787803  0.26126467  1
  O  O276  1  0.36244526  0.01155865  0.76061448  1
  O  O277  1  0.37220209  0.51285451  0.25473807  1
  O  O278  1  0.36253283  0.51255847  0.74193301  1
  O  O279  1  0.87957306  0.01425680  0.25885927  1
  O  O280  1  0.86129278  0.00610195  0.74729561  1
  O  O281  1  0.88190826  0.50487013  0.26445506  1
  O  O282  1  0.85785287  0.49769700  0.75418075  1
  O  O283  1  0.12027477  0.36781775  0.37723677  1
  O  O284  1  0.12408720  0.36391996  0.87747474  1
  O  O285  1  0.11927378  0.87110226  0.37063034  1
  O  O286  1  0.12430966  0.86494367  0.86609824  1
  O  O287  1  0.62022405  0.36778421  0.37039533  1
  O  O288  1  0.61397815  0.36742981  0.86884136  1
  O  O289  1  0.62551555  0.86238131  0.38383386  1
  O  O290  1  0.61362320  0.87127449  0.90953106  1
  O  O291  1  0.38262200  0.11798081  0.13785515  1
  O  O292  1  0.38035548  0.12235436  0.63327266  1
  O  O293  1  0.37004354  0.63485597  0.14043238  1
  O  O294  1  0.38486377  0.62925193  0.62824607  1
  O  O295  1  0.87398838  0.12977559  0.13735596  1
  O  O296  1  0.88957444  0.12481545  0.62055559  1
  O  O297  1  0.87801752  0.63245047  0.13599979  1
  O  O298  1  0.88841465  0.62257363  0.62637414  1
  O  O299  1  0.24572848  0.24998394  0.11706642  1
  O  O300  1  0.25121857  0.26017599  0.62386513  1
  O  O301  1  0.23542014  0.74591729  0.10375471  1
  O  O302  1  0.25213950  0.75365548  0.61701562  1
  O  O303  1  0.77065323  0.25207167  0.12664865  1
  O  O304  1  0.75396394  0.24443159  0.61872574  1
  O  O305  1  0.76099092  0.76285893  0.12189765  1
  O  O306  1  0.74244705  0.76121409  0.61681614  1
  O  O307  1  0.23565954  0.24301471  0.37988773  1
  O  O308  1  0.24346911  0.24489919  0.88345192  1
  O  O309  1  0.24661657  0.73704501  0.37923392  1
  O  O310  1  0.23804364  0.74137999  0.88193938  1
  O  O311  1  0.73863248  0.24353524  0.37776273  1
  O  O312  1  0.73378251  0.25052882  0.87685957  1
  O  O313  1  0.74462750  0.74527087  0.38689549  1
  O  O314  1  0.75301682  0.74068032  0.88687469  1
  O  O315  1  0.01413109  0.11888376  -0.00425942  1
  O  O316  1  0.01251575  0.12960312  0.50631286  1
  O  O317  1  0.00179936  0.61236528  0.00520926  1
  O  O318  1  0.00559673  0.61823536  0.50898560  1
  O  O319  1  0.49784871  0.13394940  0.01511999  1
  O  O320  1  0.50415894  0.12080219  0.50944486  1
  O  O321  1  0.49626927  0.61823326  -0.00625140  1
  O  O322  1  0.50763011  0.61901284  0.50695631  1
  O  O323  1  0.49694822  0.38140989  0.49762898  1
  O  O324  1  0.49421585  0.37623592  0.98889083  1
  O  O325  1  0.48572772  0.87584958  0.49862279  1
  O  O326  1  0.48278004  0.86820343  1.04887908  1
  O  O327  1  0.99412579  0.37982904  0.49040728  1
  O  O328  1  1.00597494  0.38719446  0.99680881  1
  O  O329  1  1.00067289  0.86864298  0.48806528  1
  O  O330  1  0.99226334  0.88339276  1.00363492  1
  O  O331  1  0.49682252  0.49825488  0.38829026  1
  O  O332  1  0.50267665  0.48825509  0.88691355  1
  O  O333  1  0.49200216  0.99817144  0.37470053  1
  O  O334  1  0.48116271  1.00192283  0.88362039  1
  O  O335  1  0.99606918  0.49368028  0.38263173  1
  O  O336  1  0.99109833  0.49878072  0.88201570  1
  O  O337  1  0.99279161  0.98955910  0.37300620  1
  O  O338  1  1.01100725  1.00152344  0.88375978  1
  O  O339  1  0.01211494  -0.00388267  0.11956351  1
  O  O340  1  0.01170537  0.00925136  0.62931668  1
  O  O341  1  0.00437181  0.50399923  0.11862449  1
  O  O342  1  0.00710280  0.50411505  0.62093278  1
  O  O343  1  0.51258375  0.01440286  0.13728786  1
  O  O344  1  0.50633179  0.00193716  0.62536479  1
  O  O345  1  0.50408913  0.51194746  0.11469036  1
  O  O346  1  0.49498054  0.50664410  0.61303330  1
  O  O347  1  0.25145261  0.39047563  0.25171363  1
  O  O348  1  0.25482863  0.38587278  0.74303958  1
  O  O349  1  0.23359754  0.88437963  0.25973093  1
  O  O350  1  0.24037481  0.87949696  0.74271546  1
  O  O351  1  0.73712137  0.37271379  0.25821358  1
  O  O352  1  0.73501197  0.38729713  0.75267105  1
  O  O353  1  0.76357748  0.87226619  0.23861273  1
  O  O354  1  0.74494985  0.89598917  0.73707863  1
  O  O355  1  0.25795425  0.12215364  0.25545057  1
  O  O356  1  0.25112837  0.12013969  0.75937046  1
  O  O357  1  0.26129553  0.62120103  0.25779850  1
  O  O358  1  0.25202156  0.61471032  0.75411206  1
  O  O359  1  0.76276409  0.13160949  0.26173527  1
  O  O360  1  0.74742532  0.11189913  0.75056211  1
  O  O361  1  0.76332431  0.63798619  0.27026537  1
  O  O362  1  0.74997345  0.61201776  0.75678203  1
  O  O363  1  0.37243061  0.12018696  0.36893652  1
  O  O364  1  0.36473762  0.12033052  0.87198226  1
  O  O365  1  0.36796702  0.61802124  0.37470754  1
  O  O366  1  0.35668929  0.62487868  0.86406598  1
  O  O367  1  0.86978678  0.12007424  0.36931580  1
  O  O368  1  0.87184679  0.12429327  0.87473680  1
  O  O369  1  0.87216487  0.61650850  0.37641758  1
  O  O370  1  0.86792807  0.60882678  0.86684521  1
  O  O371  1  0.12021501  0.38935535  0.12704160  1
  O  O372  1  0.13693197  0.38346896  0.61718032  1
  O  O373  1  0.12864326  0.88130363  0.13348376  1
  O  O374  1  0.12572945  0.88201549  0.63002401  1
  O  O375  1  0.62444008  0.38056885  0.14021473  1
  O  O376  1  0.61412184  0.36939383  0.64204053  1
  O  O377  1  0.64685330  0.88167477  0.12988618  1
  O  O378  1  0.62921080  0.88244298  0.61637104  1
  O  O379  1  0.12320304  0.25209578  0.25907479  1
  O  O380  1  0.11765402  0.24580931  0.76134662  1
  O  O381  1  0.12396754  0.75605280  0.25437311  1
  O  O382  1  0.12666103  0.75334004  0.76158249  1
  O  O383  1  0.62029845  0.25966580  0.25482035  1
  O  O384  1  0.62635443  0.26436293  0.76086542  1
  O  O385  1  0.61501680  0.74320530  0.26387929  1
  O  O386  1  0.63837133  0.75628224  0.76274872  1
  O  O387  1  0.38434166  0.24085399  0.25264628  1
  O  O388  1  0.36681878  0.23393663  0.75124788  1
  O  O389  1  0.39260554  0.73338510  0.26585928  1
  O  O390  1  0.36432868  0.73503285  0.74035191  1
  O  O391  1  0.88028908  0.23777614  0.24552187  1
  O  O392  1  0.88456701  0.24901698  0.74925601  1
  O  O393  1  0.88628272  0.74608317  0.24834656  1
  O  O394  1  0.86739721  0.75742727  0.76483754  1
  O  O395  1  0.38270341  0.49094778  0.49788330  1
  O  O396  1  0.38981433  0.50046648  1.00287212  1
  O  O397  1  0.37327325  0.99289326  0.48768592  1
  O  O398  1  0.36024967  0.99926769  0.98853225  1
  O  O399  1  0.88002969  0.48980014  0.49062271  1
  O  O400  1  0.88009857  0.49084967  0.99509879  1
  O  O401  1  0.87356672  1.00100497  0.48749998  1
  O  O402  1  0.88824040  0.99188684  1.00448344  1
  O  O403  1  0.12065300  0.00710304  0.00618372  1
  O  O404  1  0.13006547  0.00795458  0.50944187  1
  O  O405  1  0.11910793  0.50527786  0.00566399  1
  O  O406  1  0.12213611  0.50508495  0.50954668  1
  O  O407  1  0.62122189  -0.00109537  0.01676812  1
  O  O408  1  0.62176176  0.01452981  0.49067334  1
  O  O409  1  0.60496180  0.49466339  0.00487231  1
  O  O410  1  0.61976014  0.51160368  0.49573764  1
  O  O411  1  0.38194923  0.37406879  0.12833997  1
  O  O412  1  0.36575209  0.37518741  0.61947403  1
  O  O413  1  0.35615974  0.85744959  0.15855437  1
  O  O414  1  0.36492747  0.87035091  0.61541485  1
  O  O415  1  0.88101518  0.36626837  0.12153809  1
  O  O416  1  0.88114568  0.37632235  0.60665422  1
  O  O417  1  0.87327061  0.87325424  0.12100237  1
  O  O418  1  0.86242202  0.87994262  0.62019709  1
  O  O419  1  0.12725378  0.12960796  0.38196334  1
  O  O420  1  0.13611623  0.13334892  0.88232089  1
  O  O421  1  0.13315326  0.62758447  0.38059846  1
  O  O422  1  0.12945245  0.63050896  0.87650212  1
  O  O423  1  0.63093231  0.13136298  0.37556714  1
  O  O424  1  0.61858978  0.14094722  0.87828752  1
  O  O425  1  0.63544055  0.63113998  0.38358585  1
  O  O426  1  0.63717964  0.62539144  0.87690858  1
