# generated using pymatgen
data_V85Zn86O256
_symmetry_space_group_name_H-M   'P 1'
_cell_length_a   16.93177920
_cell_length_b   16.94071535
_cell_length_c   16.93954218
_cell_angle_alpha   90.01803862
_cell_angle_beta   89.97416548
_cell_angle_gamma   89.96680467
_symmetry_Int_Tables_number   1
_chemical_formula_structural   V85Zn86O256
_chemical_formula_sum   'V85 Zn86 O256'
_cell_volume   4858.87662163
_cell_formula_units_Z   1
loop_
 _symmetry_equiv_pos_site_id
 _symmetry_equiv_pos_as_xyz
  1  'x, y, z'
loop_
 _atom_site_type_symbol
 _atom_site_label
 _atom_site_symmetry_multiplicity
 _atom_site_fract_x
 _atom_site_fract_y
 _atom_site_fract_z
 _atom_site_occupancy
  V  V0  1  0.25258542  0.12948815  0.87522546  1
  V  V1  1  0.00312705  0.74787240  0.24903596  1
  V  V2  1  0.62128722  0.24468471  0.87046540  1
  V  V3  1  0.38127053  0.25134192  0.62793570  1
  V  V4  1  0.75045711  0.25036556  0.50029501  1
  V  V5  1  -0.00037174  0.87301187  0.37414797  1
  V  V6  1  0.49787303  0.87231231  0.36920354  1
  V  V7  1  0.37018982  0.63152663  0.25508712  1
  V  V8  1  -0.00060833  -0.00171211  -0.00143288  1
  V  V9  1  0.12691309  -0.00022985  0.12240132  1
  V  V10  1  0.25124750  0.25314592  0.01657739  1
  V  V11  1  0.12211142  0.50129257  0.62523710  1
  V  V12  1  0.75107712  0.62554944  0.36764289  1
  V  V13  1  0.37482381  0.86424315  0.50367113  1
  V  V14  1  0.13418628  0.63614220  0.50141220  1
  V  V15  1  0.87607964  0.24978783  0.62466425  1
  V  V16  1  0.24639977  0.49912681  0.23934571  1
  V  V17  1  0.87416701  0.13165544  0.24539916  1
  V  V18  1  0.85445183  0.62089599  0.75509549  1
  V  V19  1  0.87204569  0.49950641  0.37134606  1
  V  V20  1  0.49627398  0.36961770  0.86588513  1
  V  V21  1  0.47729250  0.24286012  0.25121419  1
  V  V22  1  0.62796481  0.12325959  0.50261262  1
  V  V23  1  0.00549378  0.37526326  0.37149605  1
  V  V24  1  0.73299183  0.38757044  0.13455101  1
  V  V25  1  0.74502608  0.24157988  0.01058426  1
  V  V26  1  0.12665355  0.87072455  0.75442717  1
  V  V27  1  0.38125181  0.74950148  0.12599024  1
  V  V28  1  0.50221496  0.76653086  0.75225168  1
  V  V29  1  0.12636659  0.25149366  0.87518886  1
  V  V30  1  0.62433736  0.62365071  0.49696344  1
  V  V31  1  0.37679684  0.50662057  0.87712947  1
  V  V32  1  0.85158431  0.49688476  0.87399823  1
  V  V33  1  0.62179577  0.74953451  0.36816611  1
  V  V34  1  0.37109673  0.37195320  0.01402567  1
  V  V35  1  0.49363444  0.50138242  0.50130879  1
  V  V36  1  0.38109792  0.87502886  -0.00252951  1
  V  V37  1  -0.00604189  0.37769514  0.87628137  1
  V  V38  1  0.49208939  0.12566388  0.12304698  1
  V  V39  1  0.50754950  0.49381419  0.00940685  1
  V  V40  1  0.25666710  0.00550293  0.24675582  1
  V  V41  1  0.24209975  0.24372791  0.50132525  1
  V  V42  1  0.74818646  0.12529984  0.87007375  1
  V  V43  1  0.35856300  0.50582710  0.37897565  1
  V  V44  1  0.25018969  0.37436416  0.62582014  1
  V  V45  1  0.12456543  0.37595333  0.75134986  1
  V  V46  1  0.12450613  0.62813214  -0.01545029  1
  V  V47  1  0.87634569  0.87101351  -0.01023167  1
  V  V48  1  0.24026465  0.11966462  0.37967346  1
  V  V49  1  0.52301602  0.39584574  0.35763014  1
  V  V50  1  0.87497096  0.62086266  0.24651323  1
  V  V51  1  0.00694507  0.12541559  0.61996132  1
  V  V52  1  -0.00387045  0.13434062  0.12195333  1
  V  V53  1  0.13178459  0.00056187  0.61447165  1
  V  V54  1  0.38022824  0.12980461  0.74989430  1
  V  V55  1  0.74260103  0.74519241  -0.01399651  1
  V  V56  1  0.37373289  0.37487639  0.49697682  1
  V  V57  1  0.49124305  0.63241582  0.63037685  1
  V  V58  1  0.38065101  0.00151247  0.87608803  1
  V  V59  1  0.25116769  0.00162012  0.74799223  1
  V  V60  1  0.25310489  0.87363699  0.12166269  1
  V  V61  1  0.87093967  0.87238830  0.50668616  1
  V  V62  1  0.87204935  0.37887009  0.49862530  1
  V  V63  1  -0.00046268  0.24854873  0.74927832  1
  V  V64  1  0.62105533  0.24603352  0.36763346  1
  V  V65  1  0.12623598  0.87348954  0.24776805  1
  V  V66  1  0.25142154  0.50747572  0.75663771  1
  V  V67  1  -0.00612074  0.62811903  0.62810923  1
  V  V68  1  0.50683169  0.62083966  0.12886645  1
  V  V69  1  0.50591218  0.12885496  0.63085406  1
  V  V70  1  0.37690363  0.00674192  0.37413918  1
  V  V71  1  0.62848439  0.49692991  0.62933688  1
  V  V72  1  0.87548659  0.74968958  0.12387062  1
  V  V73  1  0.00500534  0.00128514  0.49955935  1
  V  V74  1  0.25664352  0.85953084  0.62544534  1
  V  V75  1  0.25496188  0.74310285  -0.01698607  1
  V  V76  1  0.87444290  0.00263779  0.37308994  1
  V  V77  1  0.50133444  0.00009706  0.49996895  1
  V  V78  1  0.12611951  0.12537215  -0.00161047  1
  V  V79  1  0.63210897  -0.01433125  0.62748101  1
  V  V80  1  0.75086497  0.87481626  0.12469646  1
  V  V81  1  0.87183974  0.37087059  0.01246323  1
  V  V82  1  0.75167132  -0.02220867  0.74879783  1
  V  V83  1  0.00241782  0.74407458  0.75975103  1
  V  V84  1  0.62418340  0.87649197  0.24803744  1
  Zn  Zn85  1  0.00900124  0.87133432  0.87745028  1
  Zn  Zn86  1  0.00689000  0.62447956  0.12216169  1
  Zn  Zn87  1  0.87403048  0.12154061  0.74752804  1
  Zn  Zn88  1  0.13255082  0.36599661  0.23501114  1
  Zn  Zn89  1  0.51747838  0.88019222  0.87731286  1
  Zn  Zn90  1  0.87811420  0.00254718  0.87207951  1
  Zn  Zn91  1  0.12418174  0.49911527  0.11648454  1
  Zn  Zn92  1  0.37102795  0.63471059  0.75339605  1
  Zn  Zn93  1  0.75507489  0.38164112  0.63168989  1
  Zn  Zn94  1  0.75105801  0.12504929  0.37258675  1
  Zn  Zn95  1  0.74977811  0.75310368  0.50165457  1
  Zn  Zn96  1  0.12142756  0.24472316  0.37589152  1
  Zn  Zn97  1  0.14638111  0.73390186  0.36771921  1
  Zn  Zn98  1  0.62732119  0.01088122  0.12288586  1
  Zn  Zn99  1  -0.00260488  0.50283959  -0.00097548  1
  Zn  Zn100  1  0.86119845  0.76415149  0.64513858  1
  Zn  Zn101  1  -0.00070046  0.50425660  0.49912578  1
  Zn  Zn102  1  0.63074588  0.37358887  0.75355072  1
  Zn  Zn103  1  0.63933217  0.61280062  -0.00296135  1
  Zn  Zn104  1  0.51392732  0.01153234  -0.00404925  1
  Zn  Zn105  1  0.75118586  0.00201027  0.24850252  1
  Zn  Zn106  1  0.00111664  0.25291627  0.24756934  1
  Zn  Zn107  1  0.18405390  0.18422738  0.19271594  1
  Zn  Zn108  1  0.18857431  0.18628020  0.68667458  1
  Zn  Zn109  1  0.19147947  0.68317341  0.17841843  1
  Zn  Zn110  1  0.18439153  0.68593665  0.68970810  1
  Zn  Zn111  1  0.68354164  0.18823326  0.18871007  1
  Zn  Zn112  1  0.68846848  0.19035136  0.68935832  1
  Zn  Zn113  1  0.68737614  0.68967474  0.18524764  1
  Zn  Zn114  1  0.68357830  0.68709722  0.67776927  1
  Zn  Zn115  1  0.30825596  0.31735167  0.31834706  1
  Zn  Zn116  1  0.31354228  0.31621416  0.81431095  1
  Zn  Zn117  1  0.31434246  0.81464718  0.31041129  1
  Zn  Zn118  1  0.32489602  0.81399291  0.80707575  1
  Zn  Zn119  1  0.81137810  0.31140523  0.31098218  1
  Zn  Zn120  1  0.80837542  0.31131433  0.81172972  1
  Zn  Zn121  1  0.81238404  0.81071101  0.31278125  1
  Zn  Zn122  1  0.68179818  0.80351710  0.81202936  1
  Zn  Zn123  1  0.18496655  0.44013327  0.44202994  1
  Zn  Zn124  1  0.18971870  0.43820421  0.93943834  1
  Zn  Zn125  1  0.19953286  0.90736400  0.42655872  1
  Zn  Zn126  1  0.19359464  0.93788523  0.93583474  1
  Zn  Zn127  1  0.68078091  0.44289096  0.41809510  1
  Zn  Zn128  1  0.68302175  0.42502204  0.94475423  1
  Zn  Zn129  1  0.68927781  0.93849627  0.43574405  1
  Zn  Zn130  1  0.68934504  0.94308447  0.94110125  1
  Zn  Zn131  1  0.32003328  0.06777722  0.06358067  1
  Zn  Zn132  1  0.31582744  0.06112526  0.55998934  1
  Zn  Zn133  1  0.31883698  0.56682514  0.05995201  1
  Zn  Zn134  1  0.30790776  0.56520477  0.56669689  1
  Zn  Zn135  1  0.81225500  0.06063688  0.06156552  1
  Zn  Zn136  1  0.81503291  0.06037314  0.56509724  1
  Zn  Zn137  1  0.81381179  0.55864431  0.06388215  1
  Zn  Zn138  1  0.81058734  0.56841445  0.56030525  1
  Zn  Zn139  1  0.43392618  0.43910664  0.19212701  1
  Zn  Zn140  1  0.43822315  0.43993356  0.68837911  1
  Zn  Zn141  1  0.43920107  0.94172560  0.18666047  1
  Zn  Zn142  1  0.43730808  0.94278213  0.68398111  1
  Zn  Zn143  1  0.94312420  0.43990760  0.18461133  1
  Zn  Zn144  1  0.93364277  0.43993786  0.69046578  1
  Zn  Zn145  1  0.93618781  0.93991241  0.18415598  1
  Zn  Zn146  1  0.94175238  0.93843934  0.68994598  1
  Zn  Zn147  1  0.06202024  0.06030426  0.30849846  1
  Zn  Zn148  1  0.06457978  0.06054470  0.80914227  1
  Zn  Zn149  1  0.06267468  0.56166513  0.31516557  1
  Zn  Zn150  1  0.06105031  0.56035565  0.81599591  1
  Zn  Zn151  1  0.56231946  0.06425719  0.30726233  1
  Zn  Zn152  1  0.57054693  0.05831862  0.81070253  1
  Zn  Zn153  1  0.55520931  0.56359429  0.31098654  1
  Zn  Zn154  1  0.56950699  0.55911407  0.81449110  1
  Zn  Zn155  1  0.43614596  0.18823438  0.43816030  1
  Zn  Zn156  1  0.43631655  0.19162544  0.94172457  1
  Zn  Zn157  1  0.43732296  0.68773058  0.43499784  1
  Zn  Zn158  1  0.48588437  0.66799126  0.91933358  1
  Zn  Zn159  1  0.93907183  0.18722039  0.43742845  1
  Zn  Zn160  1  0.93155713  0.18963414  0.93718715  1
  Zn  Zn161  1  0.94279575  0.68872369  0.43707605  1
  Zn  Zn162  1  0.93175314  0.68523918  0.93209892  1
  Zn  Zn163  1  0.06520815  0.31740643  0.06165032  1
  Zn  Zn164  1  0.06016602  0.31582459  0.55900997  1
  Zn  Zn165  1  0.06740546  0.80687751  0.05995723  1
  Zn  Zn166  1  0.05847322  0.81207027  0.56986807  1
  Zn  Zn167  1  0.56125753  0.30628100  0.06580199  1
  Zn  Zn168  1  0.56194226  0.31495729  0.55316375  1
  Zn  Zn169  1  0.56309415  0.81267821  0.06200431  1
  Zn  Zn170  1  0.56072052  0.80870562  0.55688946  1
  O  O171  1  0.11754388  0.11768566  0.11711302  1
  O  O172  1  0.11880869  0.11484416  0.62772921  1
  O  O173  1  0.12635163  0.62253222  0.10784708  1
  O  O174  1  0.11680096  0.61955261  0.61872256  1
  O  O175  1  0.60269199  0.12423857  0.14358049  1
  O  O176  1  0.62126240  0.11947081  0.62001674  1
  O  O177  1  0.61048205  0.63021396  0.12385486  1
  O  O178  1  0.61437938  0.61368460  0.61380642  1
  O  O179  1  0.37711099  0.38766364  0.38302183  1
  O  O180  1  0.38265352  0.38007063  0.88173760  1
  O  O181  1  0.38407734  0.88436345  0.38139752  1
  O  O182  1  0.37762008  0.88808786  0.88066287  1
  O  O183  1  0.87984356  0.38239490  0.37831994  1
  O  O184  1  0.87840789  0.38022535  0.88005036  1
  O  O185  1  0.88466716  0.88206820  0.37738376  1
  O  O186  1  0.88240209  0.87900023  0.88869756  1
  O  O187  1  0.25699505  0.00146550  0.36890536  1
  O  O188  1  0.26077753  0.00835956  0.86873427  1
  O  O189  1  0.25553753  0.50273755  0.37466944  1
  O  O190  1  0.26148972  0.49346861  0.86578862  1
  O  O191  1  0.76371481  0.00155912  0.37316468  1
  O  O192  1  0.75393051  0.00633046  0.86113359  1
  O  O193  1  0.76411206  0.50837638  0.37403278  1
  O  O194  1  0.75241567  0.49322965  0.88143223  1
  O  O195  1  0.25483417  0.50496107  0.13805907  1
  O  O196  1  0.23896755  0.49431287  0.63155859  1
  O  O197  1  0.24917164  0.99702759  0.12924413  1
  O  O198  1  0.24607247  1.00012433  0.63195116  1
  O  O199  1  0.74661942  0.48752131  0.12284421  1
  O  O200  1  0.73087450  0.50101000  0.61331262  1
  O  O201  1  0.75178685  0.98563989  0.12712332  1
  O  O202  1  0.74614664  1.00166743  0.63867552  1
  O  O203  1  0.00070771  0.37325531  0.25874777  1
  O  O204  1  0.00472284  0.36961973  0.75630223  1
  O  O205  1  0.00194851  0.86747730  0.25316957  1
  O  O206  1  0.00967944  0.86638562  0.75042332  1
  O  O207  1  0.48973730  0.36414306  0.26098093  1
  O  O208  1  0.50109969  0.37699984  0.76293735  1
  O  O209  1  0.50736703  0.87946356  0.26121843  1
  O  O210  1  0.50187534  0.86808698  0.74311751  1
  O  O211  1  0.49316032  0.13845302  0.25315854  1
  O  O212  1  0.49805207  0.12034416  0.73720507  1
  O  O213  1  0.48489111  0.61854176  0.24216975  1
  O  O214  1  0.49906856  0.62436390  0.73515122  1
  O  O215  1  0.99487833  0.12379332  0.23789730  1
  O  O216  1  0.99964416  0.12934541  0.73900326  1
  O  O217  1  0.99434495  0.63383425  0.25101294  1
  O  O218  1  1.00618164  0.62928289  0.74097243  1
  O  O219  1  0.36515016  0.26327096  -0.00135274  1
  O  O220  1  0.36651768  0.25384864  0.50921960  1
  O  O221  1  0.36551251  0.75869970  0.00600003  1
  O  O222  1  0.38025242  0.76487105  0.49698783  1
  O  O223  1  0.85821912  0.26041495  -0.00668715  1
  O  O224  1  0.86794445  0.25661924  0.50302211  1
  O  O225  1  0.87003039  0.75474695  0.00446217  1
  O  O226  1  0.87874966  0.76778046  0.49341950  1
  O  O227  1  0.13844635  0.25471433  0.49916392  1
  O  O228  1  0.13193721  0.24422097  0.99270233  1
  O  O229  1  0.11750461  0.73796920  0.50347413  1
  O  O230  1  0.14337243  0.74241482  0.99946033  1
  O  O231  1  0.63145693  0.23497908  0.50116511  1
  O  O232  1  0.63879669  0.25290441  0.99084632  1
  O  O233  1  0.62356192  0.73740566  0.48863005  1
  O  O234  1  0.64132846  0.75125680  1.00418020  1
  O  O235  1  0.49971196  0.24422004  0.14424816  1
  O  O236  1  0.49275402  0.24249826  0.61661224  1
  O  O237  1  0.48725697  0.74227744  0.11833726  1
  O  O238  1  0.50505722  0.73644614  0.62799991  1
  O  O239  1  1.00231339  0.23680490  0.12078243  1
  O  O240  1  0.99904966  0.24281402  0.62719188  1
  O  O241  1  0.99572806  0.74948422  0.13517486  1
  O  O242  1  0.98958021  0.74309663  0.63618832  1
  O  O243  1  0.00209071  0.26072942  0.37710972  1
  O  O244  1  0.00347638  0.25854466  0.86975604  1
  O  O245  1  0.00356882  0.75854703  0.36379511  1
  O  O246  1  -0.00095077  0.75158510  0.86354437  1
  O  O247  1  0.50262492  0.25372115  0.36649642  1
  O  O248  1  0.50801525  0.25722898  0.88214515  1
  O  O249  1  0.50911006  0.76011696  0.37718864  1
  O  O250  1  0.49382194  0.76398728  0.85706647  1
  O  O251  1  0.25330154  0.13218030  0.49383513  1
  O  O252  1  0.24775032  0.13238206  0.99403632  1
  O  O253  1  0.23347440  0.62907347  0.50823250  1
  O  O254  1  0.24842333  0.63761867  0.99731565  1
  O  O255  1  0.74491758  0.13073819  0.49897522  1
  O  O256  1  0.75682045  0.13651759  0.99394277  1
  O  O257  1  0.74006319  0.62297020  0.48460878  1
  O  O258  1  0.75251757  0.64053883  1.00769214  1
  O  O259  1  0.26176721  0.36664835  -0.00408323  1
  O  O260  1  0.25461574  0.36857634  0.50674112  1
  O  O261  1  0.26034703  0.86944706  0.00303590  1
  O  O262  1  0.26118216  0.88364661  0.52023150  1
  O  O263  1  0.75429401  0.36401261  0.01265834  1
  O  O264  1  0.76088655  0.36930966  0.49821604  1
  O  O265  1  0.76006906  0.86475027  0.00666068  1
  O  O266  1  0.76783299  0.87608466  0.49303426  1
  O  O267  1  0.14064322  0.50832680  0.25000209  1
  O  O268  1  0.13189482  0.49544516  0.74627306  1
  O  O269  1  0.13209712  0.99433063  0.24003165  1
  O  O270  1  0.13148253  0.99252207  0.73920616  1
  O  O271  1  0.60337220  0.46200897  0.31990863  1
  O  O272  1  0.61824971  0.49764788  0.73229856  1
  O  O273  1  0.62926003  0.98731269  0.25061640  1
  O  O274  1  0.64204528  0.99937900  0.74078651  1
  O  O275  1  0.36692593  -0.00674171  0.26114952  1
  O  O276  1  0.37182608  0.00818881  0.75683294  1
  O  O277  1  0.36303155  0.50669099  0.26027599  1
  O  O278  1  0.36706113  0.49934707  0.75807669  1
  O  O279  1  0.87705624  0.00846466  0.25823516  1
  O  O280  1  0.86410875  -0.00114791  0.74953007  1
  O  O281  1  0.88089004  0.51431096  0.25561295  1
  O  O282  1  0.87482864  0.50954667  0.76048604  1
  O  O283  1  0.11102922  0.37914729  0.37799347  1
  O  O284  1  0.11652240  0.37048732  0.87177980  1
  O  O285  1  0.10435961  0.89190513  0.36238532  1
  O  O286  1  0.12918030  0.88158753  0.85890739  1
  O  O287  1  0.61273939  0.34973568  0.40924948  1
  O  O288  1  0.61331901  0.36515817  0.87571884  1
  O  O289  1  0.61955497  0.86913764  0.37108353  1
  O  O290  1  0.62893438  0.87972519  0.87263965  1
  O  O291  1  0.38991650  0.12360855  0.13376077  1
  O  O292  1  0.38521970  0.13183285  0.62796860  1
  O  O293  1  0.37916164  0.63379068  0.13404380  1
  O  O294  1  0.38915866  0.62012601  0.62591173  1
  O  O295  1  0.88460180  0.11728125  0.13294000  1
  O  O296  1  0.88579291  0.13208585  0.62488256  1
  O  O297  1  0.87747217  0.63125984  0.13252415  1
  O  O298  1  0.88108124  0.61376627  0.64025919  1
  O  O299  1  0.24571110  0.24209008  0.11510046  1
  O  O300  1  0.25661428  0.25441038  0.61930658  1
  O  O301  1  0.26199562  0.75745390  0.11804179  1
  O  O302  1  0.25104237  0.76133572  0.62944442  1
  O  O303  1  0.74538362  0.25006955  0.11259131  1
  O  O304  1  0.75430986  0.25146944  0.61213282  1
  O  O305  1  0.75780615  0.76072899  0.12410445  1
  O  O306  1  0.75700527  0.73879732  0.61314996  1
  O  O307  1  0.24982567  0.23825468  0.38397095  1
  O  O308  1  0.24451672  0.24508423  0.87818734  1
  O  O309  1  0.23199229  0.80162415  0.38275076  1
  O  O310  1  0.26038200  0.75494801  0.88504511  1
  O  O311  1  0.74221035  0.24838837  0.38601965  1
  O  O312  1  0.74243046  0.24209564  0.88297301  1
  O  O313  1  0.74219646  0.74330918  0.37914141  1
  O  O314  1  0.75227218  0.74837581  0.88764567  1
  O  O315  1  0.00273474  0.11849951  0.00333918  1
  O  O316  1  -0.00129450  0.11792750  0.51127217  1
  O  O317  1  0.01444502  0.63114335  -0.00419324  1
  O  O318  1  -0.00041459  0.62442328  0.51580460  1
  O  O319  1  0.49559962  0.13059348  0.01770808  1
  O  O320  1  0.50822988  0.12042921  0.50823546  1
  O  O321  1  0.48604581  0.60673925  0.01713167  1
  O  O322  1  0.50350452  0.62039308  0.50680708  1
  O  O323  1  0.49139148  0.38786418  0.49330849  1
  O  O324  1  0.48773269  0.37599698  0.99924828  1
  O  O325  1  0.49560139  0.88111984  0.49073058  1
  O  O326  1  0.48863609  0.87567649  0.99862637  1
  O  O327  1  0.98735772  0.37836678  0.49263601  1
  O  O328  1  0.98800899  0.37069539  0.99076119  1
  O  O329  1  0.99446985  0.88025005  0.49206171  1
  O  O330  1  0.99716818  0.88013366  1.00077759  1
  O  O331  1  0.48002750  0.50255214  0.38844321  1
  O  O332  1  0.49340038  0.48552011  0.88571906  1
  O  O333  1  0.49510698  0.99542225  0.37931634  1
  O  O334  1  0.49246189  1.00183728  0.87572988  1
  O  O335  1  0.98841329  0.49485335  0.37687256  1
  O  O336  1  0.99548275  0.48596444  0.87696800  1
  O  O337  1  0.99019883  0.99741939  0.37971004  1
  O  O338  1  1.00165899  0.99916051  0.88686529  1
  O  O339  1  0.00611278  0.00499693  0.11256242  1
  O  O340  1  0.01011906  0.00624174  0.62087225  1
  O  O341  1  0.00173131  0.50756397  0.11585201  1
  O  O342  1  0.01055615  0.50547427  0.62833466  1
  O  O343  1  0.50044526  0.01341229  0.12429138  1
  O  O344  1  0.51019091  0.00821932  0.61908475  1
  O  O345  1  0.49424584  0.50606280  0.12193578  1
  O  O346  1  0.50436149  0.50735854  0.61548173  1
  O  O347  1  0.24768549  0.39436142  0.25816670  1
  O  O348  1  0.24386576  0.38276801  0.74379667  1
  O  O349  1  0.24640895  0.88728076  0.23851388  1
  O  O350  1  0.24913731  0.87982388  0.74023331  1
  O  O351  1  0.75505263  0.36816936  0.23180498  1
  O  O352  1  0.74449968  0.37102234  0.74335622  1
  O  O353  1  0.74420412  0.87553292  0.24328409  1
  O  O354  1  0.75502824  0.87966020  0.75034839  1
  O  O355  1  0.24687098  0.11107858  0.25921929  1
  O  O356  1  0.25854759  0.12139616  0.75530482  1
  O  O357  1  0.26109085  0.61793141  0.24936613  1
  O  O358  1  0.25356045  0.61237104  0.74355165  1
  O  O359  1  0.75873687  0.12267791  0.25100510  1
  O  O360  1  0.75461697  0.12576997  0.75852218  1
  O  O361  1  0.75779071  0.63121325  0.25942461  1
  O  O362  1  0.75642202  0.62508099  0.74947933  1
  O  O363  1  0.36625353  0.11105184  0.38346690  1
  O  O364  1  0.37355445  0.12106618  0.87069501  1
  O  O365  1  0.37548210  0.62024412  0.36763599  1
  O  O366  1  0.38924913  0.60929693  0.87276717  1
  O  O367  1  0.87584111  0.11698521  0.36891021  1
  O  O368  1  0.86433311  0.12259058  0.87161348  1
  O  O369  1  0.86957157  0.62078534  0.37045477  1
  O  O370  1  0.87532835  0.61089970  0.86360305  1
  O  O371  1  0.12588498  0.38468108  0.12339014  1
  O  O372  1  0.12744413  0.38346119  0.62968024  1
  O  O373  1  0.13223428  0.87935628  0.12807530  1
  O  O374  1  0.13756216  0.87985343  0.63213893  1
  O  O375  1  0.63354915  0.37261100  0.12557475  1
  O  O376  1  0.62064025  0.39027715  0.61872312  1
  O  O377  1  0.63252863  0.87206482  0.13498893  1
  O  O378  1  0.62390098  0.88758096  0.61128530  1
  O  O379  1  0.12103790  0.25159739  0.25786679  1
  O  O380  1  0.12033243  0.25598928  0.75459681  1
  O  O381  1  0.12008081  0.75281216  0.24955675  1
  O  O382  1  0.11636363  0.75858210  0.74418548  1
  O  O383  1  0.62144345  0.25054006  0.26659476  1
  O  O384  1  0.62475449  0.24996811  0.76536438  1
  O  O385  1  0.62880995  0.76049620  0.26053421  1
  O  O386  1  0.60937083  0.74464037  0.74426714  1
  O  O387  1  0.37911550  0.24933032  0.25765374  1
  O  O388  1  0.37024820  0.24653428  0.73580500  1
  O  O389  1  0.37055382  0.74400585  0.24127057  1
  O  O390  1  0.39380268  0.74859462  0.74324857  1
  O  O391  1  0.88052569  0.23491308  0.25664872  1
  O  O392  1  0.88439526  0.24981040  0.74168324  1
  O  O393  1  0.88296542  0.74091317  0.24705022  1
  O  O394  1  0.88428397  0.72621097  0.75310684  1
  O  O395  1  0.37521548  0.49818856  0.49826285  1
  O  O396  1  0.37652365  0.48769548  0.99433338  1
  O  O397  1  0.38346151  0.99214346  0.49398617  1
  O  O398  1  0.37735686  0.99428423  0.99042826  1
  O  O399  1  0.87531364  0.49402741  0.49247031  1
  O  O400  1  0.87431691  0.49012809  0.98937609  1
  O  O401  1  0.88199948  0.99100054  0.49337075  1
  O  O402  1  0.88456375  0.99077937  1.00027667  1
  O  O403  1  0.12144743  0.00492557  0.00254328  1
  O  O404  1  0.12345813  -0.01205207  0.51148575  1
  O  O405  1  0.12690527  0.51640988  -0.00581435  1
  O  O406  1  0.12095315  0.50956007  0.51108104  1
  O  O407  1  0.62574495  0.00126194  0.00991988  1
  O  O408  1  0.62486977  0.00940408  0.50403436  1
  O  O409  1  0.61076706  0.49496986  0.00277500  1
  O  O410  1  0.61318593  0.50973273  0.49883763  1
  O  O411  1  0.37415134  0.37766403  0.11246349  1
  O  O412  1  0.37206539  0.36897300  0.61989655  1
  O  O413  1  0.37360671  0.87036209  0.11781684  1
  O  O414  1  0.36521619  0.87920734  0.61963235  1
  O  O415  1  0.87247381  0.37780245  0.11399286  1
  O  O416  1  0.87638267  0.37059517  0.61511616  1
  O  O417  1  0.86990547  0.86922650  0.11801304  1
  O  O418  1  0.88259444  0.87650520  0.60994509  1
  O  O419  1  0.13650528  0.11908665  0.37634529  1
  O  O420  1  0.13081323  0.13002392  0.87912433  1
  O  O421  1  0.11728721  0.62575838  0.39537809  1
  O  O422  1  0.12761266  0.62623870  0.88453523  1
  O  O423  1  0.62581844  0.12925738  0.38453641  1
  O  O424  1  0.63726079  0.12929136  0.87349821  1
  O  O425  1  0.62930103  0.63148449  0.37528257  1
  O  O426  1  0.59260925  0.62862511  0.89482693  1
