# generated using pymatgen
data_V85Zn86O256
_symmetry_space_group_name_H-M   'P 1'
_cell_length_a   16.93686393
_cell_length_b   16.93098495
_cell_length_c   16.92118500
_cell_angle_alpha   89.95894808
_cell_angle_beta   89.95371724
_cell_angle_gamma   90.00031440
_symmetry_Int_Tables_number   1
_chemical_formula_structural   V85Zn86O256
_chemical_formula_sum   'V85 Zn86 O256'
_cell_volume   4852.27875404
_cell_formula_units_Z   1
loop_
 _symmetry_equiv_pos_site_id
 _symmetry_equiv_pos_as_xyz
  1  'x, y, z'
loop_
 _atom_site_type_symbol
 _atom_site_label
 _atom_site_symmetry_multiplicity
 _atom_site_fract_x
 _atom_site_fract_y
 _atom_site_fract_z
 _atom_site_occupancy
  V  V0  1  0.81316041  0.05211076  0.29173858  1
  V  V1  1  0.50200250  -0.00383700  0.50412678  1
  V  V2  1  0.12189196  0.62888907  0.50558488  1
  V  V3  1  0.00769408  0.75338971  0.24730227  1
  V  V4  1  0.12132393  0.25160062  0.37196176  1
  V  V5  1  0.00287390  0.73343849  0.74615905  1
  V  V6  1  0.49839318  0.86379044  0.36877947  1
  V  V7  1  0.37699070  0.36484354  0.00633077  1
  V  V8  1  -0.00219903  0.50288400  0.50480170  1
  V  V9  1  -0.00225607  0.12491752  0.62057033  1
  V  V10  1  0.75972226  0.37222272  0.13018522  1
  V  V11  1  0.75082979  0.50838795  0.25612988  1
  V  V12  1  -0.00309223  0.87888336  0.36578797  1
  V  V13  1  0.12465445  0.37752320  0.75084979  1
  V  V14  1  0.37889213  -0.00074989  0.37256572  1
  V  V15  1  0.87205210  0.50121539  0.38133570  1
  V  V16  1  0.87432772  0.00400277  0.87310677  1
  V  V17  1  0.75171446  0.24700729  0.49236495  1
  V  V18  1  0.74577300  0.87381776  0.11878764  1
  V  V19  1  0.12143743  0.12421792  0.49931429  1
  V  V20  1  0.76047936  0.24960429  0.00869835  1
  V  V21  1  0.87192612  0.73611787  0.63336554  1
  V  V22  1  0.75254521  0.37547636  0.61899097  1
  V  V23  1  0.50193438  0.75292672  0.75531928  1
  V  V24  1  0.49154752  0.13117474  0.12487035  1
  V  V25  1  0.25231118  0.24955422  0.50045911  1
  V  V26  1  0.12159502  0.00602105  0.12871091  1
  V  V27  1  0.86652019  0.87408219  -0.00495736  1
  V  V28  1  0.86973627  0.12414593  0.74689094  1
  V  V29  1  -0.00074938  0.25128788  0.74817765  1
  V  V30  1  0.24982342  0.63113759  0.38074386  1
  V  V31  1  0.24944350  0.37760915  0.62456237  1
  V  V32  1  0.12619271  0.24943483  0.87926423  1
  V  V33  1  0.37419186  0.74793560  0.61670383  1
  V  V34  1  0.24810375  0.50202796  0.25100499  1
  V  V35  1  0.12277690  -0.00425202  0.63200130  1
  V  V36  1  -0.00513435  -0.00208666  0.49582154  1
  V  V37  1  0.37712528  0.75345278  0.13001506  1
  V  V38  1  0.50078816  0.37404853  0.37623568  1
  V  V39  1  0.25289080  0.36715706  0.12966945  1
  V  V40  1  0.63105171  0.75058565  0.87591469  1
  V  V41  1  0.75222453  0.13750655  0.87519757  1
  V  V42  1  0.74027353  0.88734868  0.63696935  1
  V  V43  1  -0.00649259  0.37358128  0.37851572  1
  V  V44  1  0.50157956  0.62369430  0.62638742  1
  V  V45  1  0.62288164  0.23870706  0.37375307  1
  V  V46  1  0.37470103  0.50239515  0.37683489  1
  V  V47  1  0.87621132  0.25303613  0.61442554  1
  V  V48  1  0.50147233  0.49997245  0.50344943  1
  V  V49  1  0.62614910  0.13294425  -0.00051113  1
  V  V50  1  0.24168733  0.86535730  0.62324628  1
  V  V51  1  0.00077123  0.00301793  0.00267130  1
  V  V52  1  0.37929078  0.00067224  0.86435010  1
  V  V53  1  0.87090789  0.75121831  0.12134992  1
  V  V54  1  0.25171856  0.74812513  -0.01105195  1
  V  V55  1  -0.00034376  0.37576352  0.87727002  1
  V  V56  1  0.12646550  0.75651848  0.37763123  1
  V  V57  1  0.24427944  -0.00592760  0.25234647  1
  V  V58  1  0.00693118  0.87703248  0.86347994  1
  V  V59  1  0.24895699  0.50569246  0.75275450  1
  V  V60  1  0.87348009  0.63476128  0.25853150  1
  V  V61  1  0.63752124  0.62340625  -0.00005446  1
  V  V62  1  0.62546071  0.37530218  0.25167828  1
  V  V63  1  0.62614093  0.50060997  0.62681308  1
  V  V64  1  0.25169962  0.12404116  0.86901040  1
  V  V65  1  0.00090406  0.50181554  0.00565454  1
  V  V66  1  0.37139487  0.50068199  0.87921228  1
  V  V67  1  0.50072471  0.63039833  0.12895706  1
  V  V68  1  0.87720877  0.50642139  0.87371378  1
  V  V69  1  0.25062042  0.12359484  0.37437406  1
  V  V70  1  0.75505060  0.50876370  0.74987916  1
  V  V71  1  0.12953780  0.62774042  -0.00400111  1
  V  V72  1  0.24179466  0.87332013  0.12457107  1
  V  V73  1  -0.01305740  0.24100362  0.23905336  1
  V  V74  1  0.50046159  0.49981287  0.00063090  1
  V  V75  1  0.64040097  0.74840017  0.36724660  1
  V  V76  1  0.37950450  0.87738936  -0.00551404  1
  V  V77  1  0.50503949  0.36660774  0.87602652  1
  V  V78  1  0.61774099  0.87447175  0.24322359  1
  V  V79  1  0.62606842  0.50041529  0.12652036  1
  V  V80  1  0.62887504  0.11564902  0.50786906  1
  V  V81  1  0.62427669  0.00227806  0.12180029  1
  V  V82  1  0.37425944  0.62546410  0.75698907  1
  V  V83  1  0.87363634  0.87349318  0.50476428  1
  V  V84  1  0.62908675  0.36826454  0.75487184  1
  Zn  Zn85  1  0.37140679  0.23770705  0.63938690  1
  Zn  Zn86  1  0.49805090  0.24230538  0.74868008  1
  Zn  Zn87  1  0.25309762  0.24443032  0.00625007  1
  Zn  Zn88  1  0.88043856  0.37190419  0.00667185  1
  Zn  Zn89  1  0.55196203  0.91236383  0.82342840  1
  Zn  Zn90  1  0.37038058  0.13084718  0.24471912  1
  Zn  Zn91  1  0.24853229  -0.00100226  0.74682060  1
  Zn  Zn92  1  0.13112091  0.75223744  0.86730554  1
  Zn  Zn93  1  0.49301507  0.25376222  0.24521575  1
  Zn  Zn94  1  0.37769690  0.63060007  0.25222142  1
  Zn  Zn95  1  0.49959100  0.00095299  -0.00422909  1
  Zn  Zn96  1  0.11837779  0.50641375  0.62826936  1
  Zn  Zn97  1  0.36980336  0.86893062  0.49538480  1
  Zn  Zn98  1  0.63195063  0.62489230  0.49050956  1
  Zn  Zn99  1  0.12206875  0.37712733  0.24937771  1
  Zn  Zn100  1  0.75815987  0.62946709  0.87536560  1
  Zn  Zn101  1  0.49270057  0.12230758  0.63045487  1
  Zn  Zn102  1  0.37600648  0.37402528  0.50182534  1
  Zn  Zn103  1  0.75172082  0.74917452  0.50009020  1
  Zn  Zn104  1  0.12223224  0.12621796  0.00255222  1
  Zn  Zn105  1  0.12783278  0.50335162  0.12612762  1
  Zn  Zn106  1  0.00230861  0.62805603  0.12594174  1
  Zn  Zn107  1  0.18423672  0.18558239  0.19149795  1
  Zn  Zn108  1  0.18652614  0.18675836  0.68798126  1
  Zn  Zn109  1  0.18849584  0.68674563  0.18574947  1
  Zn  Zn110  1  0.18638037  0.68792426  0.68902067  1
  Zn  Zn111  1  0.68755153  0.18695665  0.18941595  1
  Zn  Zn112  1  0.68731446  0.18770113  0.68465801  1
  Zn  Zn113  1  0.68917116  0.69207623  0.18777885  1
  Zn  Zn114  1  0.68678066  0.69167330  0.68678010  1
  Zn  Zn115  1  0.31538365  0.31167874  0.31210969  1
  Zn  Zn116  1  0.31197461  0.31488860  0.81685803  1
  Zn  Zn117  1  0.30995411  0.81339119  0.31076616  1
  Zn  Zn118  1  0.31347190  0.81764876  0.80565051  1
  Zn  Zn119  1  0.81329307  0.31320841  0.31353071  1
  Zn  Zn120  1  0.81603969  0.31620291  0.81155371  1
  Zn  Zn121  1  0.81835089  0.84943695  0.30476464  1
  Zn  Zn122  1  0.81292932  0.81323148  0.80936145  1
  Zn  Zn123  1  0.18331493  0.43906465  0.43728016  1
  Zn  Zn124  1  0.18963051  0.43676846  0.94171522  1
  Zn  Zn125  1  0.18501916  0.93520814  0.44334300  1
  Zn  Zn126  1  0.18931361  0.93852872  0.93839255  1
  Zn  Zn127  1  0.68709033  0.43629402  0.43857794  1
  Zn  Zn128  1  0.69173828  0.43608394  0.93905071  1
  Zn  Zn129  1  0.69451397  0.93682438  0.43154349  1
  Zn  Zn130  1  0.68487382  0.95144634  0.92114820  1
  Zn  Zn131  1  0.30787563  0.06076096  0.05658521  1
  Zn  Zn132  1  0.31170683  0.05739177  0.56097555  1
  Zn  Zn133  1  0.31234598  0.56338962  0.06455779  1
  Zn  Zn134  1  0.31090979  0.56322134  0.56379445  1
  Zn  Zn135  1  0.81419489  0.06428085  0.07641666  1
  Zn  Zn136  1  0.80973470  0.06072202  0.55654934  1
  Zn  Zn137  1  0.81806315  0.56077769  0.06848725  1
  Zn  Zn138  1  0.80812981  0.56797996  0.55869887  1
  Zn  Zn139  1  0.43553845  0.44065560  0.18935913  1
  Zn  Zn140  1  0.43418471  0.42450186  0.69186888  1
  Zn  Zn141  1  0.43624635  0.94086165  0.18474639  1
  Zn  Zn142  1  0.43070982  0.93552114  0.68120615  1
  Zn  Zn143  1  0.93988346  0.43893522  0.19526380  1
  Zn  Zn144  1  0.93457748  0.43766460  0.68699429  1
  Zn  Zn145  1  0.92135822  0.96374532  0.18117425  1
  Zn  Zn146  1  0.92996909  0.93826306  0.68524363  1
  Zn  Zn147  1  0.06003817  0.06325306  0.31032249  1
  Zn  Zn148  1  0.06012455  0.06622925  0.81175368  1
  Zn  Zn149  1  0.06125014  0.56677843  0.31633662  1
  Zn  Zn150  1  0.06531856  0.56442532  0.81930093  1
  Zn  Zn151  1  0.56629222  0.05772916  0.30837208  1
  Zn  Zn152  1  0.58563808  0.07483657  0.80160737  1
  Zn  Zn153  1  0.56229173  0.56526949  0.31204161  1
  Zn  Zn154  1  0.56385888  0.56046180  0.81387957  1
  Zn  Zn155  1  0.43781548  0.18375205  0.44269274  1
  Zn  Zn156  1  0.43784616  0.18380695  0.93333745  1
  Zn  Zn157  1  0.44298471  0.68459165  0.43654390  1
  Zn  Zn158  1  0.44082233  0.68707709  0.94086228  1
  Zn  Zn159  1  0.92854686  0.17749275  0.42168267  1
  Zn  Zn160  1  0.93880585  0.18890614  0.94165947  1
  Zn  Zn161  1  0.93748115  0.69134701  0.43959784  1
  Zn  Zn162  1  0.94132953  0.68986215  0.93728582  1
  Zn  Zn163  1  0.06658852  0.31658626  0.06645868  1
  Zn  Zn164  1  0.06383612  0.31687311  0.55872698  1
  Zn  Zn165  1  0.05954375  0.81752415  0.05737645  1
  Zn  Zn166  1  0.05873808  0.80990283  0.56384441  1
  Zn  Zn167  1  0.56893539  0.31184443  0.06257925  1
  Zn  Zn168  1  0.56351857  0.30898542  0.56552073  1
  Zn  Zn169  1  0.56186547  0.80909962  0.05245556  1
  Zn  Zn170  1  0.56489207  0.81247532  0.55816346  1
  O  O171  1  0.12957203  0.11062960  0.12201525  1
  O  O172  1  0.11752370  0.11940718  0.61797239  1
  O  O173  1  0.12276153  0.62368005  0.11376161  1
  O  O174  1  0.13021965  0.62486883  0.61024162  1
  O  O175  1  0.61843317  0.11794721  0.11898605  1
  O  O176  1  0.62652242  0.12354078  0.60971737  1
  O  O177  1  0.62057992  0.62172789  0.11912261  1
  O  O178  1  0.61664899  0.61812468  0.62729157  1
  O  O179  1  0.38705887  0.38251028  0.37874148  1
  O  O180  1  0.38369011  0.38444470  0.88700709  1
  O  O181  1  0.38112988  0.87924372  0.37416435  1
  O  O182  1  0.36679648  0.88887165  0.88086302  1
  O  O183  1  0.88158629  0.38821697  0.37241793  1
  O  O184  1  0.88462437  0.38439134  0.87896212  1
  O  O185  1  0.88967656  0.85388769  0.39694598  1
  O  O186  1  0.87987068  0.88520236  0.87730909  1
  O  O187  1  0.25446393  -0.00021076  0.36973340  1
  O  O188  1  0.25495712  0.00654332  0.87061507  1
  O  O189  1  0.25506784  0.50600770  0.37074579  1
  O  O190  1  0.26313795  0.49393777  0.86904393  1
  O  O191  1  0.75042763  -0.00275925  0.35618748  1
  O  O192  1  0.77196054  0.02240815  0.88791717  1
  O  O193  1  0.75654710  0.49451850  0.36525410  1
  O  O194  1  0.76061168  0.49913298  0.86751068  1
  O  O195  1  0.25140897  0.49410559  0.13605255  1
  O  O196  1  0.24566962  0.49445925  0.63373237  1
  O  O197  1  0.24366024  0.99341949  0.13157118  1
  O  O198  1  0.23870287  0.99102018  0.62423393  1
  O  O199  1  0.74583030  0.49513739  0.13738313  1
  O  O200  1  0.75046649  0.49190656  0.63047448  1
  O  O201  1  0.73025159  0.98748187  0.11160785  1
  O  O202  1  0.75083351  0.98711838  0.61991915  1
  O  O203  1  0.00246717  0.36914931  0.26299252  1
  O  O204  1  0.00568471  0.37101744  0.75522640  1
  O  O205  1  0.00208637  0.86696595  0.26242072  1
  O  O206  1  -0.00598284  0.87669107  0.76214716  1
  O  O207  1  0.50680131  0.37801676  0.25891240  1
  O  O208  1  0.51423309  0.38182950  0.76175133  1
  O  O209  1  0.50431138  0.87779439  0.25507934  1
  O  O210  1  0.49099281  0.85898807  0.74595846  1
  O  O211  1  0.50080981  0.12272196  0.23297597  1
  O  O212  1  0.51442991  0.12901621  0.74377198  1
  O  O213  1  0.49713204  0.61880024  0.23356570  1
  O  O214  1  0.49250350  0.62901791  0.74532220  1
  O  O215  1  1.00416741  0.14195988  0.25210268  1
  O  O216  1  0.99283914  0.13341097  0.74025926  1
  O  O217  1  0.99253581  0.63531021  0.24839652  1
  O  O218  1  0.99962424  0.63478830  0.75374010  1
  O  O219  1  0.37467380  0.26191110  -0.00386903  1
  O  O220  1  0.35848002  0.25319175  0.49455569  1
  O  O221  1  0.36839752  0.75577433  0.00493407  1
  O  O222  1  0.38001372  0.74438708  0.51343886  1
  O  O223  1  0.86727464  0.25165098  0.00620531  1
  O  O224  1  0.86502661  0.23896725  0.50227733  1
  O  O225  1  0.88319182  0.76111800  0.00812458  1
  O  O226  1  0.87985900  0.75450359  0.51855114  1
  O  O227  1  0.13119189  0.24609074  0.49108660  1
  O  O228  1  0.12463965  0.25088938  0.98872131  1
  O  O229  1  0.11661717  0.74122304  0.49062031  1
  O  O230  1  0.13377354  0.74658944  0.99819024  1
  O  O231  1  0.63153136  0.23935337  0.49426337  1
  O  O232  1  0.64106461  0.24013115  1.00728540  1
  O  O233  1  0.62608470  0.75248363  0.47841029  1
  O  O234  1  0.62031301  0.73245885  0.98922791  1
  O  O235  1  0.50646912  0.23499293  0.12443969  1
  O  O236  1  0.49305153  0.24814231  0.62542212  1
  O  O237  1  0.49027706  0.74171715  0.11631929  1
  O  O238  1  0.49441748  0.74271847  0.63085362  1
  O  O239  1  1.00351406  0.25737257  0.14039928  1
  O  O240  1  0.99310656  0.24676267  0.62365083  1
  O  O241  1  0.99189316  0.75608101  0.13250035  1
  O  O242  1  0.99001856  0.75426758  0.64024124  1
  O  O243  1  0.00377481  0.25629705  0.37402824  1
  O  O244  1  0.00622103  0.25600598  0.87088578  1
  O  O245  1  0.00819758  0.75467481  0.36670814  1
  O  O246  1  -0.00306071  0.76174658  0.86126721  1
  O  O247  1  0.50677363  0.25986614  0.38042007  1
  O  O248  1  0.50013130  0.26402054  0.87668855  1
  O  O249  1  0.50275556  0.76096835  0.37385823  1
  O  O250  1  0.50935243  0.74094734  0.86544267  1
  O  O251  1  0.24087844  0.13146076  0.49380945  1
  O  O252  1  0.24407699  0.12778461  0.98765988  1
  O  O253  1  0.24197894  0.61908451  0.48705654  1
  O  O254  1  0.24444286  0.63650432  1.00467717  1
  O  O255  1  0.73811653  0.13095263  0.49680137  1
  O  O256  1  0.75092696  0.13331901  1.00285279  1
  O  O257  1  0.74412253  0.63549267  0.49963189  1
  O  O258  1  0.74055182  0.61534630  1.00087560  1
  O  O259  1  0.26003881  0.37387002  0.01057993  1
  O  O260  1  0.24589921  0.36836772  0.50761518  1
  O  O261  1  0.25782864  0.86828514  0.00636408  1
  O  O262  1  0.25289149  0.87689956  0.51590130  1
  O  O263  1  0.75243891  0.36819515  0.01175804  1
  O  O264  1  0.74515673  0.36686037  0.51242528  1
  O  O265  1  0.76092265  0.88131331  -0.00203766  1
  O  O266  1  0.75969589  0.87021345  0.50383409  1
  O  O267  1  0.13694049  0.50225251  0.25338391  1
  O  O268  1  0.13195141  0.49856416  0.75099588  1
  O  O269  1  0.13235957  0.99996464  0.24308343  1
  O  O270  1  0.12095037  1.00449368  0.73497868  1
  O  O271  1  0.63388961  0.49697143  0.24856451  1
  O  O272  1  0.63489940  0.49273146  0.74485462  1
  O  O273  1  0.61810022  0.98472506  0.23608947  1
  O  O274  1  0.63875934  0.98080874  0.81610739  1
  O  O275  1  0.36750964  0.00366601  0.25933776  1
  O  O276  1  0.37199740  -0.00420023  0.76101131  1
  O  O277  1  0.36458927  0.50412396  0.25880259  1
  O  O278  1  0.36900645  0.50424014  0.75783863  1
  O  O279  1  0.86973427  -0.04711067  0.27963640  1
  O  O280  1  0.88086398  0.01619034  0.75674772  1
  O  O281  1  0.86997961  0.51165031  0.25967885  1
  O  O282  1  0.86781239  0.49462635  0.76013038  1
  O  O283  1  0.11691018  0.36667138  0.37372098  1
  O  O284  1  0.12074384  0.36946372  0.87068434  1
  O  O285  1  0.11646335  0.86287759  0.38263838  1
  O  O286  1  0.10975524  0.87423174  0.87864878  1
  O  O287  1  0.61471927  0.36947664  0.37262242  1
  O  O288  1  0.61805513  0.38241040  0.86820336  1
  O  O289  1  0.61810779  0.86877454  0.36198756  1
  O  O290  1  0.61901640  0.85012633  0.89922369  1
  O  O291  1  0.38889058  0.11816480  0.12045215  1
  O  O292  1  0.37728270  0.12673720  0.61481842  1
  O  O293  1  0.38300625  0.63486992  0.12389296  1
  O  O294  1  0.37963918  0.62838623  0.63545019  1
  O  O295  1  0.85810059  0.06176418  0.17997079  1
  O  O296  1  0.87622247  0.13307101  0.62873578  1
  O  O297  1  0.87862564  0.63537180  0.13507608  1
  O  O298  1  0.87321027  0.63764302  0.62794215  1
  O  O299  1  0.24400213  0.26241421  0.12692382  1
  O  O300  1  0.24720462  0.25793698  0.61729979  1
  O  O301  1  0.25615069  0.75773232  0.11757731  1
  O  O302  1  0.25679677  0.75729565  0.62849840  1
  O  O303  1  0.74746742  0.26058835  0.12295646  1
  O  O304  1  0.75656125  0.25501688  0.61382047  1
  O  O305  1  0.76247890  0.75518469  0.12117786  1
  O  O306  1  0.76347164  0.75643128  0.62904281  1
  O  O307  1  0.24007810  0.24741754  0.38134518  1
  O  O308  1  0.24160068  0.24552098  0.87731983  1
  O  O309  1  0.24073391  0.74350757  0.37055134  1
  O  O310  1  0.25098535  0.75741355  0.88478339  1
  O  O311  1  0.73883648  0.26087194  0.38602531  1
  O  O312  1  0.76309908  0.24390831  0.88723377  1
  O  O313  1  0.74016251  0.76365948  0.36590312  1
  O  O314  1  0.73726918  0.74570281  0.86785681  1
  O  O315  1  0.00097073  0.10843374  -0.00413489  1
  O  O316  1  0.00050073  0.11751018  0.50056966  1
  O  O317  1  0.00741603  0.61868108  0.00306012  1
  O  O318  1  0.00914224  0.61512010  0.49211130  1
  O  O319  1  0.50932319  0.12776588  0.00711127  1
  O  O320  1  0.51304916  0.11485066  0.49948216  1
  O  O321  1  0.50686574  0.61625748  0.00972242  1
  O  O322  1  0.50646326  0.61347043  0.50467510  1
  O  O323  1  0.50173653  0.38557043  0.49463354  1
  O  O324  1  0.49682670  0.38005883  0.99728497  1
  O  O325  1  0.49855754  0.88017358  0.48792286  1
  O  O326  1  0.48307392  0.87651545  1.00217506  1
  O  O327  1  1.00362504  0.38425513  0.48649318  1
  O  O328  1  1.00182571  0.38420846  0.99568114  1
  O  O329  1  0.99529461  0.88225825  0.49631378  1
  O  O330  1  0.98966751  0.88314731  0.98660538  1
  O  O331  1  0.49776119  0.49546140  0.38283496  1
  O  O332  1  0.49074684  0.49414698  0.88142591  1
  O  O333  1  0.49350541  0.99133053  0.37760205  1
  O  O334  1  0.48355897  0.99955724  0.87669028  1
  O  O335  1  0.99199912  0.49405001  0.38021463  1
  O  O336  1  0.99605819  0.49543820  0.88427970  1
  O  O337  1  1.01022879  0.98937315  0.38400955  1
  O  O338  1  0.99394239  0.99298240  0.87808946  1
  O  O339  1  0.01153151  -0.01442165  0.11505573  1
  O  O340  1  0.00334121  0.00465446  0.61754139  1
  O  O341  1  0.00166935  0.50066650  0.11624990  1
  O  O342  1  -0.00179914  0.49297461  0.60961083  1
  O  O343  1  0.50742818  0.00875285  0.11798732  1
  O  O344  1  0.49665816  -0.00601424  0.60740950  1
  O  O345  1  0.50694021  0.50496444  0.11961707  1
  O  O346  1  0.50265499  0.50115165  0.61958887  1
  O  O347  1  0.24960845  0.38391856  0.24637037  1
  O  O348  1  0.24361990  0.38674382  0.74512807  1
  O  O349  1  0.25324865  0.88634996  0.24063414  1
  O  O350  1  0.25131403  0.87875603  0.73013679  1
  O  O351  1  0.74415247  0.38264073  0.24653258  1
  O  O352  1  0.74667667  0.38072690  0.74072343  1
  O  O353  1  0.73519780  0.86880373  0.22558315  1
  O  O354  1  0.75664404  0.87874628  0.73633465  1
  O  O355  1  0.24955873  0.11286514  0.25669610  1
  O  O356  1  0.24412257  0.12305711  0.76359823  1
  O  O357  1  0.25173390  0.61948628  0.26080973  1
  O  O358  1  0.25704669  0.61362034  0.74733289  1
  O  O359  1  0.73790800  0.11628647  0.25819357  1
  O  O360  1  0.75850789  0.13536269  0.76018735  1
  O  O361  1  0.75857127  0.61788798  0.24576943  1
  O  O362  1  0.74680234  0.61118217  0.75047032  1
  O  O363  1  0.36748099  0.11474518  0.37705560  1
  O  O364  1  0.36661005  0.11075265  0.87972292  1
  O  O365  1  0.36816800  0.62197843  0.37400987  1
  O  O366  1  0.38026131  0.61727775  0.86498162  1
  O  O367  1  0.87105215  0.10725892  0.35497421  1
  O  O368  1  0.87694173  0.12403658  0.86477716  1
  O  O369  1  0.87893408  0.62220279  0.36410011  1
  O  O370  1  0.87589818  0.61177915  0.88182864  1
  O  O371  1  0.13733120  0.38340377  0.12934697  1
  O  O372  1  0.13326616  0.37821462  0.63181867  1
  O  O373  1  0.13773120  0.88124994  0.11872452  1
  O  O374  1  0.13296958  0.87979415  0.61968417  1
  O  O375  1  0.63296418  0.38267152  0.13232006  1
  O  O376  1  0.63388657  0.38176657  0.63142276  1
  O  O377  1  0.62525817  0.87715762  0.12204296  1
  O  O378  1  0.64158023  0.86585928  0.62304817  1
  O  O379  1  0.11972350  0.25194710  0.26319017  1
  O  O380  1  0.11880828  0.25563434  0.75940953  1
  O  O381  1  0.11433696  0.74433530  0.25674366  1
  O  O382  1  0.10925305  0.74766328  0.75044161  1
  O  O383  1  0.61926543  0.25757592  0.25901241  1
  O  O384  1  0.62829973  0.26589163  0.74640272  1
  O  O385  1  0.62339625  0.76006650  0.25574667  1
  O  O386  1  0.61633008  0.74356322  0.76489528  1
  O  O387  1  0.38086423  0.24309401  0.25574244  1
  O  O388  1  0.38634052  0.27592477  0.74661757  1
  O  O389  1  0.37016547  0.75019885  0.23411453  1
  O  O390  1  0.38025300  0.74016450  0.74477792  1
  O  O391  1  0.88731382  0.25262604  0.25322776  1
  O  O392  1  0.88084446  0.24350328  0.74000864  1
  O  O393  1  0.88289748  0.74928324  0.24309489  1
  O  O394  1  0.88552019  0.75171298  0.74110693  1
  O  O395  1  0.38391239  0.50027578  0.49487246  1
  O  O396  1  0.37974292  0.49559703  0.99434065  1
  O  O397  1  0.38251218  0.99507603  0.48558255  1
  O  O398  1  0.37309188  0.99166165  0.99002569  1
  O  O399  1  0.88004294  0.50813375  0.48774268  1
  O  O400  1  0.88546876  0.49744390  0.99588490  1
  O  O401  1  0.88691838  0.99130337  0.50305918  1
  O  O402  1  0.88294821  0.99486533  0.99572848  1
  O  O403  1  0.11775574  -0.00142372  0.00792421  1
  O  O404  1  0.11416522  0.00470044  0.50937645  1
  O  O405  1  0.11858799  0.50838305  -0.00066793  1
  O  O406  1  0.11470293  0.50921179  0.49946934  1
  O  O407  1  0.62125294  0.01495514  0.00225474  1
  O  O408  1  0.61978890  0.01046065  0.48794454  1
  O  O409  1  0.62062909  0.50444130  0.00600972  1
  O  O410  1  0.61856628  0.50124585  0.50722066  1
  O  O411  1  0.36801187  0.38127838  0.11703834  1
  O  O412  1  0.35793184  0.37861403  0.61928852  1
  O  O413  1  0.36601376  0.87121174  0.11704874  1
  O  O414  1  0.36488095  0.86345888  0.61944622  1
  O  O415  1  0.86250545  0.38431189  0.12834491  1
  O  O416  1  0.86829395  0.36070693  0.62671731  1
  O  O417  1  0.86328445  0.87242015  0.11468265  1
  O  O418  1  0.86893986  0.86870644  0.61714138  1
  O  O419  1  0.12969053  0.13159250  0.38085797  1
  O  O420  1  0.12848117  0.13414850  0.87652685  1
  O  O421  1  0.13166787  0.63478086  0.38220750  1
  O  O422  1  0.12308093  0.63296997  0.88985920  1
  O  O423  1  0.61535530  0.13608009  0.38060134  1
  O  O424  1  0.64218717  0.13503175  0.88749951  1
  O  O425  1  0.62241556  0.64439311  0.36795390  1
  O  O426  1  0.62925927  0.62791494  0.88414865  1
