# generated using pymatgen
data_V85Zn86O256
_symmetry_space_group_name_H-M   'P 1'
_cell_length_a   16.93756758
_cell_length_b   16.93570119
_cell_length_c   16.93751759
_cell_angle_alpha   89.96420311
_cell_angle_beta   89.98753600
_cell_angle_gamma   90.06859860
_symmetry_Int_Tables_number   1
_chemical_formula_structural   V85Zn86O256
_chemical_formula_sum   'V85 Zn86 O256'
_cell_volume   4858.51531969
_cell_formula_units_Z   1
loop_
 _symmetry_equiv_pos_site_id
 _symmetry_equiv_pos_as_xyz
  1  'x, y, z'
loop_
 _atom_site_type_symbol
 _atom_site_label
 _atom_site_symmetry_multiplicity
 _atom_site_fract_x
 _atom_site_fract_y
 _atom_site_fract_z
 _atom_site_occupancy
  V  V0  1  0.87391842  0.75051307  0.12348688  1
  V  V1  1  0.73730770  0.49985051  0.25187518  1
  V  V2  1  0.12558688  0.36421413  0.74899483  1
  V  V3  1  0.37490011  0.00680174  0.86709211  1
  V  V4  1  0.88293425  0.74848056  0.63044964  1
  V  V5  1  0.74998906  0.87680128  0.62926514  1
  V  V6  1  0.00012212  0.87066120  0.86948734  1
  V  V7  1  0.00028919  0.36514503  0.87699698  1
  V  V8  1  0.35889705  0.87530699  0.49915111  1
  V  V9  1  0.24412178  0.74353841  -0.00328194  1
  V  V10  1  0.12095152  0.00302784  0.61489143  1
  V  V11  1  0.62860635  0.00120500  0.12611643  1
  V  V12  1  0.49648818  0.87857314  0.37734864  1
  V  V13  1  0.13003998  0.13642298  0.00243537  1
  V  V14  1  0.50091619  0.00146047  -0.00153616  1
  V  V15  1  0.74254827  0.48749030  0.74972113  1
  V  V16  1  0.37438153  0.24740927  0.12150448  1
  V  V17  1  0.86557362  0.38145437  0.51113949  1
  V  V18  1  0.87799132  0.25094055  0.13726219  1
  V  V19  1  0.49169760  0.12157143  0.63274219  1
  V  V20  1  0.49094886  0.00080062  0.49863546  1
  V  V21  1  0.25438844  0.62787583  0.38026456  1
  V  V22  1  0.50256002  0.26184415  0.25707166  1
  V  V23  1  0.37312713  0.25366029  0.63157876  1
  V  V24  1  0.38169707  0.37512953  0.00059358  1
  V  V25  1  -0.00429302  0.87349608  0.37587632  1
  V  V26  1  -0.00034094  0.12893731  0.13344118  1
  V  V27  1  0.50079217  0.62395988  0.62344784  1
  V  V28  1  0.62528410  0.74828224  0.37652760  1
  V  V29  1  0.50043549  0.87689573  0.87146896  1
  V  V30  1  0.36243930  0.75185456  0.61995142  1
  V  V31  1  0.50656232  0.37717898  0.86941944  1
  V  V32  1  0.00001854  0.00121959  -0.00116766  1
  V  V33  1  0.75086960  0.87688066  0.12421969  1
  V  V34  1  0.75766315  0.00504564  0.26416201  1
  V  V35  1  0.37693109  0.50178620  0.87987504  1
  V  V36  1  0.37553784  0.11835421  0.26028348  1
  V  V37  1  0.12583821  0.87384627  0.24905660  1
  V  V38  1  0.25284518  0.13208470  0.87575532  1
  V  V39  1  0.37367815  0.87622754  -0.00147816  1
  V  V40  1  0.88029401  0.87474871  0.50026022  1
  V  V41  1  0.24994344  0.37006098  0.12023548  1
  V  V42  1  0.12713797  -0.00054164  0.12212576  1
  V  V43  1  0.12719662  0.50658435  0.11819623  1
  V  V44  1  0.63101595  0.11948266  0.49061666  1
  V  V45  1  0.37611304  0.74936055  0.12409569  1
  V  V46  1  0.12671504  0.74735393  0.37731429  1
  V  V47  1  0.87491291  0.62358515  0.24996543  1
  V  V48  1  0.00421255  0.49360756  0.49249186  1
  V  V49  1  0.11414541  0.37155827  0.25218326  1
  V  V50  1  0.11561608  0.25046016  0.37661464  1
  V  V51  1  0.62549737  0.62256072  0.50326793  1
  V  V52  1  0.62581910  0.87640635  0.25239780  1
  V  V53  1  0.87956770  0.48913016  0.36893713  1
  V  V54  1  0.74207312  0.74680180  0.00022573  1
  V  V55  1  0.12684181  0.87199745  0.74538012  1
  V  V56  1  0.62546339  0.48409450  0.62869636  1
  V  V57  1  0.25089579  0.50017374  0.74963017  1
  V  V58  1  0.62065029  0.50238819  0.11054317  1
  V  V59  1  0.50277757  0.62388354  0.11033468  1
  V  V60  1  0.12089184  0.49717480  0.62530164  1
  V  V61  1  0.87512912  0.49981806  0.87964957  1
  V  V62  1  0.26165401  0.25237160  0.48976468  1
  V  V63  1  0.12760560  0.62834276  0.50110150  1
  V  V64  1  0.50155431  0.75118863  0.74580601  1
  V  V65  1  0.24992666  0.87497651  0.12354882  1
  V  V66  1  0.62945787  0.26219371  0.37414975  1
  V  V67  1  0.73966738  0.62501818  0.87592124  1
  V  V68  1  0.25275439  0.49762141  0.25083772  1
  V  V69  1  0.75168941  0.74777032  0.50311933  1
  V  V70  1  0.75434376  0.12692282  0.86726066  1
  V  V71  1  0.49626014  0.48485699  0.49902281  1
  V  V72  1  0.00143942  0.13063272  0.64428078  1
  V  V73  1  0.87745145  0.62402320  0.75092556  1
  V  V74  1  0.38058424  0.62439915  0.25160535  1
  V  V75  1  0.74461189  0.37532697  0.13140299  1
  V  V76  1  0.75057218  0.25042631  0.00434870  1
  V  V77  1  0.37922203  0.48582614  0.37945652  1
  V  V78  1  -0.05879635  0.04973221  0.43844145  1
  V  V79  1  0.50161218  0.12638279  0.12685381  1
  V  V80  1  -0.00036799  0.74887379  0.24854390  1
  V  V81  1  0.87767924  0.00488437  0.86498730  1
  V  V82  1  0.11917967  0.74105119  0.87260227  1
  V  V83  1  0.24903793  0.00123059  0.74475951  1
  V  V84  1  0.62768261  0.12653897  -0.00022606  1
  Zn  Zn85  1  0.37300794  0.62626553  0.75070721  1
  Zn  Zn86  1  0.74999094  0.25201498  0.50086541  1
  Zn  Zn87  1  0.24468190  0.11677936  0.38392188  1
  Zn  Zn88  1  0.00905134  0.50721849  -0.00531570  1
  Zn  Zn89  1  0.87416952  0.87552017  -0.00266069  1
  Zn  Zn90  1  0.49991080  0.24781731  0.75163818  1
  Zn  Zn91  1  0.25749816  -0.00461307  0.25515003  1
  Zn  Zn92  1  0.00559773  0.62857847  0.11806267  1
  Zn  Zn93  1  0.62995666  0.25598998  0.86727465  1
  Zn  Zn94  1  0.75044861  0.00655815  0.74659428  1
  Zn  Zn95  1  0.87886029  0.37727418  0.00543234  1
  Zn  Zn96  1  0.50218430  0.74999176  0.24873592  1
  Zn  Zn97  1  0.62642000  0.87819178  0.74892385  1
  Zn  Zn98  1  0.00085358  0.62522744  0.62726682  1
  Zn  Zn99  1  0.61984054  0.74760122  0.87820508  1
  Zn  Zn100  1  0.25416596  0.37718418  0.61797528  1
  Zn  Zn101  1  0.12628641  0.24826283  0.87349207  1
  Zn  Zn102  1  0.24559972  0.62104675  0.87798235  1
  Zn  Zn103  1  0.87655526  0.12564783  0.26493240  1
  Zn  Zn104  1  0.75199922  0.62321143  0.37777834  1
  Zn  Zn105  1  0.62315216  0.00140630  0.62633599  1
  Zn  Zn106  1  0.86179059  0.23362131  0.64719976  1
  Zn  Zn107  1  0.18973562  0.18884163  0.19085933  1
  Zn  Zn108  1  0.19181185  0.18142845  0.68229964  1
  Zn  Zn109  1  0.19288104  0.68789059  0.19103277  1
  Zn  Zn110  1  0.18526935  0.68474807  0.69088311  1
  Zn  Zn111  1  0.68853630  0.18593978  0.19436526  1
  Zn  Zn112  1  0.67693597  0.19594799  0.68093665  1
  Zn  Zn113  1  0.68662975  0.68514964  0.18800280  1
  Zn  Zn114  1  0.68901021  0.68534164  0.68970707  1
  Zn  Zn115  1  0.31207825  0.30956589  0.30566553  1
  Zn  Zn116  1  0.31488368  0.31441352  0.80965214  1
  Zn  Zn117  1  0.31305515  0.81074590  0.31372664  1
  Zn  Zn118  1  0.31056674  0.81411983  0.80913832  1
  Zn  Zn119  1  0.80866917  0.31368117  0.31448256  1
  Zn  Zn120  1  0.81404780  0.30938004  0.81597718  1
  Zn  Zn121  1  0.81116920  0.81383308  0.31267485  1
  Zn  Zn122  1  0.81524546  0.81067987  0.81322870  1
  Zn  Zn123  1  0.19205382  0.43498053  0.43604098  1
  Zn  Zn124  1  0.19275628  0.43059476  0.93720695  1
  Zn  Zn125  1  0.18521473  0.93851033  0.43374056  1
  Zn  Zn126  1  0.18667849  0.93709215  0.93373510  1
  Zn  Zn127  1  0.68584780  0.44020241  0.43743001  1
  Zn  Zn128  1  0.69055679  0.43738113  0.94076137  1
  Zn  Zn129  1  0.68677291  0.93570428  0.44359397  1
  Zn  Zn130  1  0.68849485  0.93815991  0.93596925  1
  Zn  Zn131  1  0.31345624  0.06302753  0.06176150  1
  Zn  Zn132  1  0.30734058  0.06615166  0.56098551  1
  Zn  Zn133  1  0.31291316  0.56128373  0.06197323  1
  Zn  Zn134  1  0.31304333  0.56205311  0.56235652  1
  Zn  Zn135  1  0.81592240  0.06349784  0.06322603  1
  Zn  Zn136  1  0.81028446  0.07099873  0.57071407  1
  Zn  Zn137  1  0.81031800  0.56520180  0.06249828  1
  Zn  Zn138  1  0.81249348  0.55680801  0.56563584  1
  Zn  Zn139  1  0.43982062  0.43927002  0.18638687  1
  Zn  Zn140  1  0.43622468  0.43630137  0.68820901  1
  Zn  Zn141  1  0.44060267  0.93712179  0.18715440  1
  Zn  Zn142  1  0.43285721  0.93570099  0.68422304  1
  Zn  Zn143  1  0.93819388  0.43930567  0.18425917  1
  Zn  Zn144  1  0.91957800  0.40274706  0.70979355  1
  Zn  Zn145  1  0.93693030  0.93944090  0.18818449  1
  Zn  Zn146  1  0.94230673  0.93911891  0.68604066  1
  Zn  Zn147  1  0.07362542  0.06347468  0.30786711  1
  Zn  Zn148  1  0.06772146  0.06257431  0.81250531  1
  Zn  Zn149  1  0.06361196  0.56033731  0.30830002  1
  Zn  Zn150  1  0.05926040  0.55625613  0.80999932  1
  Zn  Zn151  1  0.56094285  0.06167040  0.31313624  1
  Zn  Zn152  1  0.56945399  0.06550059  0.80992492  1
  Zn  Zn153  1  0.55959477  0.56191620  0.31444337  1
  Zn  Zn154  1  0.55927952  0.56053006  0.81233764  1
  Zn  Zn155  1  0.43898853  0.19111175  0.43860586  1
  Zn  Zn156  1  0.43821206  0.18995265  0.93792808  1
  Zn  Zn157  1  0.43847251  0.68812582  0.44067703  1
  Zn  Zn158  1  0.43297618  0.68918055  0.93453840  1
  Zn  Zn159  1  0.94643257  0.21071000  0.44941722  1
  Zn  Zn160  1  0.93561573  0.18708373  0.94511282  1
  Zn  Zn161  1  0.93933360  0.68322344  0.43831544  1
  Zn  Zn162  1  0.93515483  0.68498110  0.94055501  1
  Zn  Zn163  1  0.06006344  0.31607206  0.06345576  1
  Zn  Zn164  1  0.06500289  0.31249603  0.55855282  1
  Zn  Zn165  1  0.06131702  0.81153766  0.05759279  1
  Zn  Zn166  1  0.06468127  0.81320223  0.56354365  1
  Zn  Zn167  1  0.56291707  0.31517248  0.06301205  1
  Zn  Zn168  1  0.56057623  0.30556986  0.56153389  1
  Zn  Zn169  1  0.56197576  0.81312353  0.06260628  1
  Zn  Zn170  1  0.56132856  0.81393430  0.56214359  1
  O  O171  1  0.12178920  0.12055190  0.12110526  1
  O  O172  1  0.11660116  0.11188299  0.62673229  1
  O  O173  1  0.12983130  0.60925099  0.13373836  1
  O  O174  1  0.12459929  0.61882820  0.61690165  1
  O  O175  1  0.62143701  0.12100251  0.12059987  1
  O  O176  1  0.60770652  0.12374110  0.60566624  1
  O  O177  1  0.61623239  0.61349367  0.13008584  1
  O  O178  1  0.61720238  0.61960742  0.62147229  1
  O  O179  1  0.37026279  0.38742266  0.36776953  1
  O  O180  1  0.38004989  0.38030449  0.88293802  1
  O  O181  1  0.38327243  0.86388656  0.38955456  1
  O  O182  1  0.38402667  0.88310134  0.87776762  1
  O  O183  1  0.87294767  0.38593344  0.38082428  1
  O  O184  1  0.88285717  0.38279228  0.88171828  1
  O  O185  1  0.88724813  0.86972663  0.38144735  1
  O  O186  1  0.88322987  0.88251622  0.87628770  1
  O  O187  1  0.24000707  0.00571073  0.36662765  1
  O  O188  1  0.25809600  0.00645806  0.86961845  1
  O  O189  1  0.25840068  0.50955502  0.37083754  1
  O  O190  1  0.25646834  0.50006644  0.86806193  1
  O  O191  1  0.74751623  -0.00987330  0.36189042  1
  O  O192  1  0.76074104  0.00826927  0.87664636  1
  O  O193  1  0.75679651  0.50143545  0.36586511  1
  O  O194  1  0.75158606  0.50688482  0.86925109  1
  O  O195  1  0.24387096  0.49346108  0.13008959  1
  O  O196  1  0.24220015  0.49815925  0.63033584  1
  O  O197  1  0.24600019  0.98996128  0.12506173  1
  O  O198  1  0.23635045  1.00724711  0.63318571  1
  O  O199  1  0.73969778  0.49641595  0.13021474  1
  O  O200  1  0.74010647  0.50353820  0.64128801  1
  O  O201  1  0.74598957  0.99399170  0.12958252  1
  O  O202  1  0.75015031  0.99117947  0.62677222  1
  O  O203  1  0.01574359  0.37781845  0.24565984  1
  O  O204  1  0.01767634  0.38772918  0.76551773  1
  O  O205  1  0.00411037  0.86993623  0.25695381  1
  O  O206  1  0.00838417  0.88016206  0.76253752  1
  O  O207  1  0.49821941  0.36001566  0.24634582  1
  O  O208  1  0.49531906  0.37442499  0.76660337  1
  O  O209  1  0.50549096  0.87272563  0.25936040  1
  O  O210  1  0.49963744  0.86869857  0.75511778  1
  O  O211  1  0.49157621  0.12971475  0.24494316  1
  O  O212  1  0.49781073  0.11897611  0.73556108  1
  O  O213  1  0.48990594  0.62693881  0.24553430  1
  O  O214  1  0.49699140  0.63175697  0.73951355  1
  O  O215  1  0.99756128  0.11712060  0.23625387  1
  O  O216  1  1.00657175  0.13201397  0.74400878  1
  O  O217  1  0.99277448  0.63075030  0.24432394  1
  O  O218  1  0.98202197  0.61493368  0.74708370  1
  O  O219  1  0.38023086  0.25613432  0.01475110  1
  O  O220  1  0.36687618  0.25267284  0.50479681  1
  O  O221  1  0.36747050  0.75809618  0.00428936  1
  O  O222  1  0.37867887  0.75883297  0.51207231  1
  O  O223  1  0.86273023  0.25067523  0.01435527  1
  O  O224  1  0.87535152  0.27342184  0.50834780  1
  O  O225  1  0.86336961  0.75341434  0.00813176  1
  O  O226  1  0.87024592  0.75534287  0.50524735  1
  O  O227  1  0.13439269  0.25807642  0.48089943  1
  O  O228  1  0.12494130  0.23906815  1.00241374  1
  O  O229  1  0.11883602  0.73606188  0.49522560  1
  O  O230  1  0.13387420  0.75622108  0.98725608  1
  O  O231  1  0.62108190  0.23860937  0.48749068  1
  O  O232  1  0.63652722  0.24566882  1.00114428  1
  O  O233  1  0.63047057  0.74451952  0.49527402  1
  O  O234  1  0.63724192  0.75429911  0.99895676  1
  O  O235  1  0.49818883  0.24504505  0.13541374  1
  O  O236  1  0.48716367  0.24076055  0.62254210  1
  O  O237  1  0.49443604  0.74313810  0.12662878  1
  O  O238  1  0.49452360  0.74355449  0.62953596  1
  O  O239  1  0.99007637  0.24248862  0.12106698  1
  O  O240  1  1.00800371  0.22889755  0.61303996  1
  O  O241  1  0.99282271  0.75153179  0.13045822  1
  O  O242  1  0.98656985  0.74633696  0.62059115  1
  O  O243  1  0.01626522  0.25773727  0.37382991  1
  O  O244  1  0.00051197  0.26155309  0.88414939  1
  O  O245  1  0.00482975  0.75491093  0.36887287  1
  O  O246  1  0.00592133  0.75984283  0.88055428  1
  O  O247  1  0.50625093  0.24889870  0.36305846  1
  O  O248  1  0.49755680  0.26482317  0.87546300  1
  O  O249  1  0.51076711  0.75818695  0.37719539  1
  O  O250  1  0.49725057  0.75849498  0.86557438  1
  O  O251  1  0.24935210  0.14492487  0.49846569  1
  O  O252  1  0.24005345  0.11671614  0.99107240  1
  O  O253  1  0.24106486  0.61995360  0.49099165  1
  O  O254  1  0.25423467  0.63946069  0.99939430  1
  O  O255  1  0.73225998  0.11538419  0.49489839  1
  O  O256  1  0.74582269  0.13239276  0.99800047  1
  O  O257  1  0.74446285  0.62835284  0.49949760  1
  O  O258  1  0.75354729  0.63509342  0.98977990  1
  O  O259  1  0.26202138  0.37511061  0.01271277  1
  O  O260  1  0.24737043  0.35930482  0.50190296  1
  O  O261  1  0.25472321  0.86833337  0.00362051  1
  O  O262  1  0.26071164  0.87095574  0.49393206  1
  O  O263  1  0.75158070  0.36781971  0.01259957  1
  O  O264  1  0.76213185  0.37870950  0.49746591  1
  O  O265  1  0.75150862  0.87031796  0.00817881  1
  O  O266  1  0.76173142  0.87053846  0.50875498  1
  O  O267  1  0.13298038  0.48949024  0.24357769  1
  O  O268  1  0.13272007  0.49499233  0.74149784  1
  O  O269  1  0.12641281  0.98987332  0.23728472  1
  O  O270  1  0.13147900  0.99097818  0.74556901  1
  O  O271  1  0.63495448  0.50481925  0.24704875  1
  O  O272  1  0.63429566  0.50432139  0.74356618  1
  O  O273  1  0.63315022  0.99542475  0.24586743  1
  O  O274  1  0.63177461  0.99632166  0.74503610  1
  O  O275  1  0.37795454  0.01455894  0.24430687  1
  O  O276  1  0.36544264  -0.00658824  0.75807674  1
  O  O277  1  0.37370996  0.50751115  0.25630665  1
  O  O278  1  0.36724742  0.49973582  0.75828183  1
  O  O279  1  0.86207827  0.00165521  0.24983188  1
  O  O280  1  0.87409074  -0.00259126  0.76223528  1
  O  O281  1  0.86873871  0.50572017  0.25239702  1
  O  O282  1  0.86092294  0.50058200  0.76154782  1
  O  O283  1  0.13391107  0.36899057  0.35846694  1
  O  O284  1  0.12155759  0.36935208  0.87003446  1
  O  O285  1  0.11350294  0.86676663  0.37208034  1
  O  O286  1  0.11801969  0.86804532  0.86695511  1
  O  O287  1  0.62344567  0.36124500  0.37923598  1
  O  O288  1  0.60904225  0.37657583  0.88605136  1
  O  O289  1  0.61788091  0.86756600  0.37406174  1
  O  O290  1  0.61095629  0.87464448  0.87446209  1
  O  O291  1  0.38246553  0.13185589  0.12843488  1
  O  O292  1  0.38188148  0.13702845  0.61636779  1
  O  O293  1  0.38194022  0.62725709  0.13213137  1
  O  O294  1  0.38218921  0.63562724  0.62464882  1
  O  O295  1  0.88432685  0.13310884  0.12637549  1
  O  O296  1  0.89525563  0.12137539  0.62785374  1
  O  O297  1  0.87259962  0.63122882  0.13689868  1
  O  O298  1  0.87354989  0.63106321  0.63205720  1
  O  O299  1  0.26249363  0.25791845  0.13131391  1
  O  O300  1  0.26126727  0.24954190  0.61653532  1
  O  O301  1  0.25418569  0.75626784  0.11728856  1
  O  O302  1  0.26434511  0.74461872  0.62883344  1
  O  O303  1  0.75146121  0.25805296  0.12448006  1
  O  O304  1  0.75562448  0.22789843  0.61141795  1
  O  O305  1  0.75305309  0.75542040  0.12025691  1
  O  O306  1  0.75887585  0.75553285  0.62027224  1
  O  O307  1  0.25060260  0.24828612  0.38150702  1
  O  O308  1  0.25452271  0.23546272  0.87073801  1
  O  O309  1  0.24363117  0.73539757  0.36959601  1
  O  O310  1  0.24244439  0.74883298  0.88070582  1
  O  O311  1  0.73486808  0.25095594  0.37909825  1
  O  O312  1  0.75176196  0.24490232  0.88699064  1
  O  O313  1  0.73962519  0.75071692  0.38209607  1
  O  O314  1  0.74763841  0.74374289  0.88235171  1
  O  O315  1  0.00899613  0.11849297  0.00933523  1
  O  O316  1  -0.00390625  0.11136050  0.49549452  1
  O  O317  1  -0.00360301  0.61953853  0.00591211  1
  O  O318  1  0.00839610  0.61263752  0.50105715  1
  O  O319  1  0.50745048  0.12107914  0.00569149  1
  O  O320  1  0.49755071  0.11044537  0.49977199  1
  O  O321  1  0.49532242  0.63025389  0.01105019  1
  O  O322  1  0.50497323  0.62136684  0.51181603  1
  O  O323  1  0.50108495  0.38603703  0.50320683  1
  O  O324  1  0.48766291  0.37371182  0.99442442  1
  O  O325  1  0.49431675  0.88438677  0.49505773  1
  O  O326  1  0.49461585  0.88060603  0.99199325  1
  O  O327  1  0.99214195  0.38873474  0.50230199  1
  O  O328  1  0.99998521  0.38488297  0.99294563  1
  O  O329  1  0.98838059  0.87090074  0.49384179  1
  O  O330  1  1.00044772  0.88481841  0.98881409  1
  O  O331  1  0.49125814  0.50522498  0.38658708  1
  O  O332  1  0.49075050  0.48970413  0.87276609  1
  O  O333  1  0.50055438  0.98596549  0.38005554  1
  O  O334  1  0.49353422  0.99617316  0.87651542  1
  O  O335  1  0.99198032  0.50374489  0.37911388  1
  O  O336  1  0.98967584  0.49354814  0.87710379  1
  O  O337  1  1.00425366  0.99353136  0.37486888  1
  O  O338  1  0.99595181  0.99691529  0.88111157  1
  O  O339  1  0.00545435  0.00479679  0.11666174  1
  O  O340  1  0.01276513  0.01134549  0.63097038  1
  O  O341  1  0.01783648  0.49994802  0.12502183  1
  O  O342  1  0.01579387  0.50227493  0.61614075  1
  O  O343  1  0.50825696  0.00542690  0.11913756  1
  O  O344  1  0.49702536  0.00428626  0.61569046  1
  O  O345  1  0.51310403  0.50682735  0.12783624  1
  O  O346  1  0.50423904  0.50642671  0.62149151  1
  O  O347  1  0.24919422  0.38117785  0.23719848  1
  O  O348  1  0.24387527  0.38552738  0.74821097  1
  O  O349  1  0.24484874  0.87219579  0.24184318  1
  O  O350  1  0.23956445  0.88780576  0.75531277  1
  O  O351  1  0.75248339  0.38445105  0.23916606  1
  O  O352  1  0.74305684  0.38969394  0.76276342  1
  O  O353  1  0.74560870  0.88267066  0.24314005  1
  O  O354  1  0.75112075  0.87238176  0.73782393  1
  O  O355  1  0.26897921  0.12531591  0.24642951  1
  O  O356  1  0.24320219  0.11103162  0.76116996  1
  O  O357  1  0.26268490  0.61846919  0.25582790  1
  O  O358  1  0.25170857  0.61162554  0.75198378  1
  O  O359  1  0.75314023  0.10952378  0.25138231  1
  O  O360  1  0.74963193  0.12814817  0.76525336  1
  O  O361  1  0.75746644  0.61733970  0.25252674  1
  O  O362  1  0.75734682  0.61814156  0.75851439  1
  O  O363  1  0.37616435  0.12824261  0.36149548  1
  O  O364  1  0.36983580  0.11372792  0.88236571  1
  O  O365  1  0.37067644  0.62386016  0.36920337  1
  O  O366  1  0.37206952  0.61572220  0.87142286  1
  O  O367  1  0.88991371  0.12088564  0.38385135  1
  O  O368  1  0.86777169  0.11660484  0.88375696  1
  O  O369  1  0.87443392  0.61868284  0.36275418  1
  O  O370  1  0.86489433  0.61878663  0.86831881  1
  O  O371  1  0.13315197  0.37978558  0.13282513  1
  O  O372  1  0.12721990  0.38076645  0.63149568  1
  O  O373  1  0.13101015  0.87786745  0.12732979  1
  O  O374  1  0.11633702  0.88437407  0.63678474  1
  O  O375  1  0.63041545  0.39020832  0.12273648  1
  O  O376  1  0.62013085  0.38469474  0.62183747  1
  O  O377  1  0.63000895  0.88053438  0.13232156  1
  O  O378  1  0.63671373  0.87629725  0.62249119  1
  O  O379  1  0.13216750  0.26508838  0.25632457  1
  O  O380  1  0.13445015  0.26145854  0.74854631  1
  O  O381  1  0.12000668  0.75414748  0.25530821  1
  O  O382  1  0.12994073  0.76080788  0.75714769  1
  O  O383  1  0.61486646  0.24393956  0.26353214  1
  O  O384  1  0.61357965  0.24226865  0.75647050  1
  O  O385  1  0.62535442  0.75605372  0.25974039  1
  O  O386  1  0.61182168  0.75294259  0.75020423  1
  O  O387  1  0.38703643  0.24194843  0.24258283  1
  O  O388  1  0.37703432  0.24818557  0.73593782  1
  O  O389  1  0.37665038  0.74153497  0.24237996  1
  O  O390  1  0.38346966  0.75199214  0.73818956  1
  O  O391  1  0.86673696  0.24457767  0.24170084  1
  O  O392  1  0.88770458  0.29386043  0.73557788  1
  O  O393  1  0.87739528  0.74291639  0.24489122  1
  O  O394  1  0.86988340  0.73817506  0.74153701  1
  O  O395  1  0.38388485  0.50403999  0.49184439  1
  O  O396  1  0.36951501  0.49214812  0.98857838  1
  O  O397  1  0.37575394  0.98420855  0.50556424  1
  O  O398  1  0.38205947  0.99449421  0.99236021  1
  O  O399  1  0.88172772  0.49901590  0.48697781  1
  O  O400  1  0.86820263  0.49928004  0.98769979  1
  O  O401  1  0.87520419  0.99412085  0.49807829  1
  O  O402  1  0.88853056  0.99897159  0.99539183  1
  O  O403  1  0.11590113  0.00555407  0.00303327  1
  O  O404  1  0.12459542  -0.01085225  0.51706853  1
  O  O405  1  0.13311986  0.49550911  0.01564630  1
  O  O406  1  0.12161140  0.50521972  0.50204567  1
  O  O407  1  0.62006342  0.00565488  0.00558841  1
  O  O408  1  0.61346928  0.00685929  0.49944850  1
  O  O409  1  0.62887943  0.50516074  0.01237455  1
  O  O410  1  0.61851968  0.50537783  0.50763489  1
  O  O411  1  0.37148058  0.37014102  0.12001354  1
  O  O412  1  0.37491571  0.35925182  0.62635665  1
  O  O413  1  0.37048745  0.86985629  0.11999694  1
  O  O414  1  0.37621072  0.86187055  0.61249394  1
  O  O415  1  0.86746782  0.36886262  0.12552559  1
  O  O416  1  0.86996673  0.40585664  0.60728833  1
  O  O417  1  0.86847959  0.86780070  0.12449204  1
  O  O418  1  0.87303691  0.86861101  0.61962338  1
  O  O419  1  0.12915527  0.14660173  0.36105225  1
  O  O420  1  0.13276091  0.12781625  0.88477308  1
  O  O421  1  0.13338180  0.62635010  0.38000286  1
  O  O422  1  0.12313544  0.63737105  0.86559868  1
  O  O423  1  0.61553905  0.13096894  0.38715903  1
  O  O424  1  0.63540677  0.12514229  0.88637514  1
  O  O425  1  0.62545956  0.63338978  0.38202495  1
  O  O426  1  0.63536616  0.62712266  0.87009165  1
