# generated using pymatgen
data_V85Zn86O256
_symmetry_space_group_name_H-M   'P 1'
_cell_length_a   16.93580066
_cell_length_b   16.93727483
_cell_length_c   16.93455659
_cell_angle_alpha   89.96032053
_cell_angle_beta   89.94692600
_cell_angle_gamma   90.01324220
_symmetry_Int_Tables_number   1
_chemical_formula_structural   V85Zn86O256
_chemical_formula_sum   'V85 Zn86 O256'
_cell_volume   4857.61169400
_cell_formula_units_Z   1
loop_
 _symmetry_equiv_pos_site_id
 _symmetry_equiv_pos_as_xyz
  1  'x, y, z'
loop_
 _atom_site_type_symbol
 _atom_site_label
 _atom_site_symmetry_multiplicity
 _atom_site_fract_x
 _atom_site_fract_y
 _atom_site_fract_z
 _atom_site_occupancy
  V  V0  1  0.25303136  0.64385600  0.37672174  1
  V  V1  1  0.87538199  0.25400721  0.13315896  1
  V  V2  1  0.87565512  0.37484067  0.49848036  1
  V  V3  1  0.25298531  0.24866036  0.49615581  1
  V  V4  1  0.12256305  0.36330295  0.25101206  1
  V  V5  1  0.86793840  0.50422621  0.37307024  1
  V  V6  1  0.61551525  0.25343400  0.37638985  1
  V  V7  1  0.12360612  0.01359139  0.63116456  1
  V  V8  1  0.49628601  0.50764040  0.49497220  1
  V  V9  1  0.38360868  0.37401539  0.48051940  1
  V  V10  1  0.61898113  0.36817343  0.74915049  1
  V  V11  1  0.12067067  0.25473894  0.87798406  1
  V  V12  1  0.50056761  0.62122971  0.12672715  1
  V  V13  1  0.25230013  0.62648253  0.86950344  1
  V  V14  1  0.62476051  0.12553813  0.50536420  1
  V  V15  1  0.74732363  0.75344927  -0.00386057  1
  V  V16  1  0.87790650  0.75280867  0.62030805  1
  V  V17  1  0.74400149  0.24732179  0.00377585  1
  V  V18  1  0.24951093  0.87548818  0.12527000  1
  V  V19  1  0.25345832  0.50366939  0.74621549  1
  V  V20  1  0.86655937  0.37983337  -0.00614279  1
  V  V21  1  0.61537852  0.37478354  0.25409937  1
  V  V22  1  0.26177463  0.37130435  0.62234306  1
  V  V23  1  0.51516803  0.86911918  0.36694300  1
  V  V24  1  0.88201753  0.24796713  0.62603048  1
  V  V25  1  0.24909476  0.87224471  0.62004882  1
  V  V26  1  0.61920983  0.74812016  0.86412416  1
  V  V27  1  0.50650578  0.00569088  0.00091800  1
  V  V28  1  0.62016331  0.24077086  0.87443119  1
  V  V29  1  0.39038237  0.62851897  0.74310208  1
  V  V30  1  0.74871519  0.37857680  0.62539781  1
  V  V31  1  0.74832057  0.74296420  0.49303244  1
  V  V32  1  0.74945915  -0.00111964  0.24634921  1
  V  V33  1  0.24853220  0.12434906  0.87343761  1
  V  V34  1  -0.00842542  0.50096807  -0.00527429  1
  V  V35  1  0.87340536  0.87498489  0.00379801  1
  V  V36  1  0.49798392  0.87380404  0.86114415  1
  V  V37  1  0.37491023  0.24160123  0.12798565  1
  V  V38  1  0.13141795  0.87916554  0.74909156  1
  V  V39  1  0.74877797  0.25111606  0.50187717  1
  V  V40  1  0.61965817  0.49811770  0.12703109  1
  V  V41  1  0.12829047  0.50074532  0.61972339  1
  V  V42  1  0.26124331  0.38164152  0.12041419  1
  V  V43  1  0.12273255  0.37826473  0.74744975  1
  V  V44  1  0.69400612  0.81671711  0.18322410  1
  V  V45  1  0.00422039  0.49843795  0.49474936  1
  V  V46  1  0.88211569  0.12523349  0.74938089  1
  V  V47  1  0.37028028  0.00310666  0.87455590  1
  V  V48  1  0.12799890  0.63835402  0.49301439  1
  V  V49  1  0.50176106  0.00137457  0.49694376  1
  V  V50  1  0.00766109  0.75001845  0.25698891  1
  V  V51  1  0.62709244  0.00024743  0.62439547  1
  V  V52  1  0.87762212  0.74882162  0.12656639  1
  V  V53  1  0.25651468  0.25858478  -0.00406239  1
  V  V54  1  0.63239249  0.00797932  0.12300480  1
  V  V55  1  0.87539138  -0.00106366  0.87609551  1
  V  V56  1  0.37893466  0.87300176  -0.00001000  1
  V  V57  1  0.87757637  -0.00590512  0.37863139  1
  V  V58  1  0.25038650  0.74942542  0.00019515  1
  V  V59  1  0.75105264  -0.00237881  0.74952251  1
  V  V60  1  0.75063518  0.49581210  0.76149320  1
  V  V61  1  0.48588722  0.23177899  0.73928602  1
  V  V62  1  0.75094818  0.12607177  0.37380334  1
  V  V63  1  0.61695147  0.62186262  -0.00042759  1
  V  V64  1  0.00195453  0.36034888  0.36933135  1
  V  V65  1  0.11918227  0.12995500  0.48921034  1
  V  V66  1  0.75088261  0.62133651  0.87465464  1
  V  V67  1  0.00086309  0.74868078  0.74908976  1
  V  V68  1  0.38909741  0.75232282  0.62623026  1
  V  V69  1  0.37955225  0.00822414  0.36584707  1
  V  V70  1  0.25551294  0.00845531  0.24661203  1
  V  V71  1  0.37823402  0.74850709  0.13275034  1
  V  V72  1  0.00048616  0.13190809  0.13141826  1
  V  V73  1  0.37205888  0.87022065  0.49236812  1
  V  V74  1  0.25369632  0.49912784  0.26243305  1
  V  V75  1  0.00039509  0.87506547  0.87594250  1
  V  V76  1  0.74957239  0.12213306  0.88136917  1
  V  V77  1  0.75725768  0.87488297  0.61694013  1
  V  V78  1  0.12194865  -0.00058419  0.12463832  1
  V  V79  1  -0.00177560  -0.00234654  0.50401587  1
  V  V80  1  0.12636251  0.75066303  0.87376976  1
  V  V81  1  0.12386222  0.49908093  0.12631109  1
  V  V82  1  0.87566050  0.61891196  0.75212279  1
  V  V83  1  0.12355904  0.62414937  -0.00076360  1
  V  V84  1  0.38156264  0.49774715  0.88392527  1
  Zn  Zn85  1  0.00241128  0.62434001  0.62339187  1
  Zn  Zn86  1  0.48610891  0.36632165  0.88200844  1
  Zn  Zn87  1  0.12111301  0.12890237  0.00107808  1
  Zn  Zn88  1  0.30464260  0.06206077  0.70976753  1
  Zn  Zn89  1  0.87250208  0.62739938  0.25565153  1
  Zn  Zn90  1  0.74206526  0.50541711  0.25470233  1
  Zn  Zn91  1  0.62196654  0.86988397  0.74303385  1
  Zn  Zn92  1  0.61096391  0.50969936  0.62825836  1
  Zn  Zn93  1  0.87971988  0.13002629  0.25331290  1
  Zn  Zn94  1  0.00689581  0.87002029  0.38405509  1
  Zn  Zn95  1  -0.00133854  0.00279648  0.00265166  1
  Zn  Zn96  1  0.48988933  0.24403520  0.25877055  1
  Zn  Zn97  1  0.50118818  0.12400619  0.12862311  1
  Zn  Zn98  1  -0.00175403  0.62318094  0.12769110  1
  Zn  Zn99  1  -0.00709089  0.38018510  0.87206149  1
  Zn  Zn100  1  0.12878555  0.87259853  0.25873513  1
  Zn  Zn101  1  0.74699034  0.37701272  0.12870891  1
  Zn  Zn102  1  0.38104979  0.61871461  0.25935224  1
  Zn  Zn103  1  0.25182116  0.13161520  0.36732407  1
  Zn  Zn104  1  0.00025977  0.24990315  0.74937840  1
  Zn  Zn105  1  0.61843680  0.62877208  0.49839727  1
  Zn  Zn106  1  0.51863530  0.74693394  0.25382827  1
  Zn  Zn107  1  0.19042966  0.18716359  0.18149978  1
  Zn  Zn108  1  0.18473263  0.19681175  0.68557416  1
  Zn  Zn109  1  0.18913990  0.68395729  0.18857577  1
  Zn  Zn110  1  0.19139858  0.68957395  0.68134531  1
  Zn  Zn111  1  0.68495951  0.18708922  0.19035539  1
  Zn  Zn112  1  0.69040294  0.18698513  0.69049341  1
  Zn  Zn113  1  0.69713897  0.67417741  0.32391432  1
  Zn  Zn114  1  0.68654437  0.68411676  0.68037655  1
  Zn  Zn115  1  0.30573733  0.31073036  0.30972804  1
  Zn  Zn116  1  0.31144455  0.31407800  0.80895909  1
  Zn  Zn117  1  0.31408073  0.81995474  0.31025216  1
  Zn  Zn118  1  0.31448288  0.81386575  0.80783491  1
  Zn  Zn119  1  0.80437919  0.31966347  0.31272303  1
  Zn  Zn120  1  0.80901563  0.31023614  0.81450667  1
  Zn  Zn121  1  0.82598569  0.81427041  0.31627643  1
  Zn  Zn122  1  0.81147543  0.81116431  0.80884732  1
  Zn  Zn123  1  0.18648598  0.43203164  0.43558193  1
  Zn  Zn124  1  0.18859910  0.44082542  0.93552394  1
  Zn  Zn125  1  0.18732744  0.94080059  0.43520107  1
  Zn  Zn126  1  0.18675611  0.93827311  0.94053574  1
  Zn  Zn127  1  0.67984191  0.43944924  0.43949238  1
  Zn  Zn128  1  0.65318100  0.41933623  0.95101106  1
  Zn  Zn129  1  0.69356481  0.93492221  0.43832835  1
  Zn  Zn130  1  0.68492362  0.93413169  0.93636307  1
  Zn  Zn131  1  0.30868163  0.06398981  0.05433008  1
  Zn  Zn132  1  0.31025147  0.05715614  0.54730753  1
  Zn  Zn133  1  0.31195924  0.56506099  0.06363466  1
  Zn  Zn134  1  0.31733496  0.56347030  0.55672294  1
  Zn  Zn135  1  0.81517492  0.06412602  0.06562533  1
  Zn  Zn136  1  0.81450496  0.06472861  0.56277958  1
  Zn  Zn137  1  0.80465780  0.56542844  0.06740014  1
  Zn  Zn138  1  0.81112328  0.56279768  0.56606057  1
  Zn  Zn139  1  0.43855138  0.43509173  0.19095832  1
  Zn  Zn140  1  0.44042694  0.43632872  0.69017386  1
  Zn  Zn141  1  0.44370051  0.93645576  0.18781652  1
  Zn  Zn142  1  0.42992549  0.95874856  0.67504430  1
  Zn  Zn143  1  0.93779770  0.43478383  0.18623172  1
  Zn  Zn144  1  0.93745617  0.43960936  0.68404778  1
  Zn  Zn145  1  0.93700693  0.93587315  0.19007183  1
  Zn  Zn146  1  0.94222540  0.93781724  0.68722815  1
  Zn  Zn147  1  0.06319680  0.05904380  0.30988296  1
  Zn  Zn148  1  0.06248157  0.06425959  0.81551186  1
  Zn  Zn149  1  0.06226583  0.56216572  0.31288583  1
  Zn  Zn150  1  0.06264691  0.56182488  0.81265521  1
  Zn  Zn151  1  0.56461228  0.06443333  0.30746838  1
  Zn  Zn152  1  0.56165349  0.06014351  0.81165653  1
  Zn  Zn153  1  0.55489714  0.55843241  0.32007634  1
  Zn  Zn154  1  0.56386112  0.55929500  0.80981243  1
  Zn  Zn155  1  0.43575890  0.18656906  0.44730790  1
  Zn  Zn156  1  0.43525871  0.18547101  0.93798363  1
  Zn  Zn157  1  0.43730431  0.69027888  0.43700192  1
  Zn  Zn158  1  0.43722309  0.68678825  0.93472426  1
  Zn  Zn159  1  0.93654768  0.18275047  0.44050537  1
  Zn  Zn160  1  0.93587640  0.19017912  0.94398178  1
  Zn  Zn161  1  0.93844665  0.68644778  0.44078244  1
  Zn  Zn162  1  0.93645296  0.68584969  0.93650663  1
  Zn  Zn163  1  0.06032254  0.31711423  0.06219194  1
  Zn  Zn164  1  0.06415195  0.31260126  0.56085973  1
  Zn  Zn165  1  0.06084358  0.81301444  0.06559424  1
  Zn  Zn166  1  0.06263228  0.81601509  0.56423977  1
  Zn  Zn167  1  0.55750432  0.31466088  0.05988926  1
  Zn  Zn168  1  0.55595193  0.31280420  0.56715449  1
  Zn  Zn169  1  0.55785680  0.80935431  0.05619659  1
  Zn  Zn170  1  0.56651318  0.81760141  0.55690277  1
  O  O171  1  0.11813922  0.11961058  0.12195344  1
  O  O172  1  0.12822063  0.11607586  0.62183406  1
  O  O173  1  0.12594223  0.61282445  0.11929497  1
  O  O174  1  0.12815177  0.61868655  0.61107705  1
  O  O175  1  0.62817533  0.11117792  0.12177822  1
  O  O176  1  0.63658765  0.11703373  0.61291534  1
  O  O177  1  0.60960174  0.62043487  0.11657064  1
  O  O178  1  0.62978708  0.62018574  0.61279709  1
  O  O179  1  0.37251892  0.37246813  0.38214732  1
  O  O180  1  0.37099944  0.39237892  0.87130694  1
  O  O181  1  0.38216929  0.88323847  0.37921397  1
  O  O182  1  0.37967757  0.87490743  0.88546176  1
  O  O183  1  0.88106264  0.38180227  0.38110320  1
  O  O184  1  0.87335758  0.37071978  0.88924222  1
  O  O185  1  0.88348251  0.89068633  0.37741878  1
  O  O186  1  0.87918964  0.87754578  0.88208758  1
  O  O187  1  0.26172240  0.00293510  0.36323473  1
  O  O188  1  0.25513274  0.01248998  0.88554653  1
  O  O189  1  0.24599351  0.50235179  0.36396383  1
  O  O190  1  0.25664422  0.50807407  0.86587244  1
  O  O191  1  0.75664834  0.00575025  0.37007174  1
  O  O192  1  0.75467371  0.00402131  0.87151476  1
  O  O193  1  0.76554239  0.49277249  0.38046550  1
  O  O194  1  0.74190989  0.50276313  0.86399318  1
  O  O195  1  0.24326447  0.49618185  0.12883289  1
  O  O196  1  0.24639992  0.49440521  0.62689677  1
  O  O197  1  0.24537016  0.99661324  0.12696609  1
  O  O198  1  0.23359484  0.99267835  0.62868127  1
  O  O199  1  0.73125257  0.50073783  0.12736437  1
  O  O200  1  0.74998080  0.48679676  0.63145477  1
  O  O201  1  0.74677524  0.99975754  0.13257259  1
  O  O202  1  0.74564010  0.99343876  0.62608179  1
  O  O203  1  0.01012340  0.37882230  0.25695575  1
  O  O204  1  0.01067449  0.37899387  0.75141715  1
  O  O205  1  0.00184079  0.86053633  0.24935952  1
  O  O206  1  0.01097772  0.86981365  0.75608507  1
  O  O207  1  0.50969351  0.36379008  0.24780378  1
  O  O208  1  0.50786978  0.36602560  0.75815989  1
  O  O209  1  0.50177193  0.87008582  0.26248191  1
  O  O210  1  0.49919684  0.88623299  0.75977718  1
  O  O211  1  0.50654680  0.13226834  0.24192579  1
  O  O212  1  0.49760383  0.13222458  0.75271933  1
  O  O213  1  0.49696839  0.62982578  0.24252097  1
  O  O214  1  0.48976550  0.62342249  0.74793893  1
  O  O215  1  0.99863588  0.12295458  0.23712145  1
  O  O216  1  0.98605293  0.12794198  0.75547119  1
  O  O217  1  0.99553518  0.63476014  0.24840196  1
  O  O218  1  0.99337966  0.62820819  0.74786557  1
  O  O219  1  0.36297939  0.25210985  0.00437575  1
  O  O220  1  0.36712918  0.26130785  0.50048331  1
  O  O221  1  0.37144764  0.75612585  0.00792227  1
  O  O222  1  0.37795872  0.76321475  0.50923609  1
  O  O223  1  0.86257947  0.25829917  0.00755981  1
  O  O224  1  0.86851830  0.25303171  0.50798500  1
  O  O225  1  0.86741675  0.75487458  0.00400598  1
  O  O226  1  0.87157594  0.74668598  0.51381775  1
  O  O227  1  0.12898563  0.23471097  0.50526796  1
  O  O228  1  0.13361908  0.25506746  0.99272935  1
  O  O229  1  0.12000829  0.73653481  0.50262462  1
  O  O230  1  0.12956819  0.74502141  0.99525702  1
  O  O231  1  0.62838090  0.24335994  0.49746275  1
  O  O232  1  0.63756256  0.24650503  0.99189752  1
  O  O233  1  0.64536209  0.75288569  0.50291501  1
  O  O234  1  0.63128509  0.74421371  0.98990432  1
  O  O235  1  0.48189351  0.24988260  0.11580366  1
  O  O236  1  0.50020995  0.24603315  0.64023831  1
  O  O237  1  0.49370169  0.74443272  0.12888190  1
  O  O238  1  0.48771298  0.76181383  0.62292821  1
  O  O239  1  0.98876010  0.24512138  0.11922530  1
  O  O240  1  0.98591678  0.25674466  0.62690431  1
  O  O241  1  0.99231879  0.74667188  0.13232456  1
  O  O242  1  0.99494325  0.74805889  0.63077364  1
  O  O243  1  -0.00765809  0.26124262  0.37849587  1
  O  O244  1  0.01035724  0.25496436  0.87677048  1
  O  O245  1  -0.00832771  0.75113355  0.36138726  1
  O  O246  1  0.00679506  0.75466326  0.86949947  1
  O  O247  1  0.51280542  0.24094963  0.37924424  1
  O  O248  1  0.50739191  0.24640563  0.87099905  1
  O  O249  1  0.49811374  0.76453523  0.37296305  1
  O  O250  1  0.50779016  0.75999228  0.87763428  1
  O  O251  1  0.24020349  0.13097198  0.49721973  1
  O  O252  1  0.24432655  0.13818239  0.98950828  1
  O  O253  1  0.24041936  0.62261900  0.48669633  1
  O  O254  1  0.24380179  0.63148229  0.99233582  1
  O  O255  1  0.74446107  0.13092033  0.49371380  1
  O  O256  1  0.75779933  0.13021616  0.98831340  1
  O  O257  1  0.75544170  0.64087366  0.50180786  1
  O  O258  1  0.74369703  0.63741120  0.99464423  1
  O  O259  1  0.24431455  0.37144757  0.00921830  1
  O  O260  1  0.25715722  0.36888866  0.50401541  1
  O  O261  1  0.25885150  0.86927043  0.00491281  1
  O  O262  1  0.26124596  0.88691324  0.50716743  1
  O  O263  1  0.75037250  0.36647281  0.00333180  1
  O  O264  1  0.75341802  0.37020506  0.50776917  1
  O  O265  1  0.75787916  0.86135771  -0.00907657  1
  O  O266  1  0.75467966  0.86707077  0.51058034  1
  O  O267  1  0.13343195  0.49652002  0.24217194  1
  O  O268  1  0.13142921  0.49661724  0.74226090  1
  O  O269  1  0.13354539  0.99965842  0.23688583  1
  O  O270  1  0.11770219  0.99492797  0.74007689  1
  O  O271  1  0.61823416  0.49191752  0.24489612  1
  O  O272  1  0.63110159  0.48729253  0.74740844  1
  O  O273  1  0.64097570  0.99887975  0.24180409  1
  O  O274  1  0.63252162  0.99953506  0.74006876  1
  O  O275  1  0.36938828  -0.00497198  0.25431499  1
  O  O276  1  0.36779168  -0.01712544  0.77327837  1
  O  O277  1  0.35829345  0.50236360  0.24200724  1
  O  O278  1  0.36919859  0.51043834  0.75114325  1
  O  O279  1  0.86535491  0.00147269  0.25700316  1
  O  O280  1  0.87144187  0.00616310  0.75490885  1
  O  O281  1  0.87773514  0.49649395  0.26585182  1
  O  O282  1  0.86625403  0.50750348  0.74609886  1
  O  O283  1  0.11505971  0.37693867  0.36386536  1
  O  O284  1  0.12465624  0.37123387  0.86504054  1
  O  O285  1  0.11880131  0.88403997  0.37122727  1
  O  O286  1  0.12230937  0.87146252  0.86873981  1
  O  O287  1  0.62934246  0.36298149  0.36943681  1
  O  O288  1  0.64129691  0.35293104  0.85570739  1
  O  O289  1  0.61357284  0.87869891  0.37762129  1
  O  O290  1  0.61553971  0.86622486  0.87028711  1
  O  O291  1  0.37029332  0.13964617  0.11855616  1
  O  O292  1  0.38266669  0.05949065  0.63190625  1
  O  O293  1  0.38435164  0.63256157  0.12358479  1
  O  O294  1  0.36787315  0.64403866  0.62767475  1
  O  O295  1  0.88172165  0.13554564  0.12807475  1
  O  O296  1  0.86629558  0.13602526  0.63675830  1
  O  O297  1  0.87531252  0.64036809  0.12116846  1
  O  O298  1  0.87731167  0.63163306  0.63623603  1
  O  O299  1  0.25864940  0.25863903  0.11602484  1
  O  O300  1  0.24410958  0.25979615  0.61117708  1
  O  O301  1  0.25705199  0.75319975  0.11977690  1
  O  O302  1  0.25469782  0.76797879  0.62529680  1
  O  O303  1  0.75411672  0.24857774  0.11744571  1
  O  O304  1  0.75806603  0.26049515  0.62352459  1
  O  O305  1  0.75500303  0.75993751  0.11810974  1
  O  O306  1  0.75987706  0.75777865  0.61929476  1
  O  O307  1  0.24981740  0.24825384  0.38809896  1
  O  O308  1  0.24063640  0.24995933  0.87974748  1
  O  O309  1  0.24788808  0.74212334  0.36818167  1
  O  O310  1  0.24624415  0.74660985  0.87921912  1
  O  O311  1  0.74473867  0.24232587  0.38212406  1
  O  O312  1  0.74548632  0.23806419  0.88101201  1
  O  O313  1  0.76042973  0.75429758  0.38906491  1
  O  O314  1  0.74296600  0.74352054  0.88002987  1
  O  O315  1  -0.00022489  0.12289751  0.01326221  1
  O  O316  1  0.01331986  0.11922993  0.50038807  1
  O  O317  1  0.00554842  0.61934089  0.00179768  1
  O  O318  1  0.01324794  0.61704923  0.49871565  1
  O  O319  1  0.49452021  0.10883952  0.00469503  1
  O  O320  1  0.50985754  0.11003215  0.49665817  1
  O  O321  1  0.50837131  0.63239761  0.00658022  1
  O  O322  1  0.48981397  0.61113913  0.50086855  1
  O  O323  1  0.48542463  0.36957037  0.49724971  1
  O  O324  1  0.54321638  0.38552962  0.97658737  1
  O  O325  1  0.49634212  0.88323812  0.48786342  1
  O  O326  1  0.49218475  0.88185442  0.99220064  1
  O  O327  1  0.99670277  0.38095432  0.49266796  1
  O  O328  1  0.98785434  0.38444485  0.99877211  1
  O  O329  1  1.00438686  0.89255257  0.50250143  1
  O  O330  1  0.99107165  0.87445921  0.99296415  1
  O  O331  1  0.49340271  0.49311624  0.39380583  1
  O  O332  1  0.48326694  0.50212250  0.86919035  1
  O  O333  1  0.49814021  0.99209786  0.37681715  1
  O  O334  1  0.49408769  0.99356045  0.88302773  1
  O  O335  1  0.99439323  0.49236713  0.38369477  1
  O  O336  1  1.00387387  0.49970478  0.89009478  1
  O  O337  1  0.99140046  1.00643422  0.38392098  1
  O  O338  1  0.99332451  0.99353113  0.87895807  1
  O  O339  1  0.00695179  0.00555317  0.12557610  1
  O  O340  1  0.01310477  -0.00009017  0.61991419  1
  O  O341  1  0.00749025  0.50134698  0.11636684  1
  O  O342  1  0.00637948  0.50087111  0.61053955  1
  O  O343  1  0.51250924  -0.00383207  0.11788837  1
  O  O344  1  0.52222891  -0.01384670  0.61039433  1
  O  O345  1  0.50762375  0.50700284  0.12744662  1
  O  O346  1  0.49891548  0.48372457  0.60684064  1
  O  O347  1  0.24328928  0.38497158  0.24217059  1
  O  O348  1  0.23981023  0.38045715  0.74179229  1
  O  O349  1  0.24955070  0.88628999  0.24003667  1
  O  O350  1  0.23627997  0.87377208  0.74522836  1
  O  O351  1  0.73452277  0.38328425  0.24753483  1
  O  O352  1  0.74743232  0.37945010  0.74297219  1
  O  O353  1  0.75305697  0.87644824  0.24550515  1
  O  O354  1  0.74940585  0.88205774  0.73983327  1
  O  O355  1  0.24815434  0.11345184  0.24839103  1
  O  O356  1  0.24012118  0.13217197  0.76527176  1
  O  O357  1  0.24836062  0.61744305  0.26351664  1
  O  O358  1  0.25529911  0.62210616  0.75306685  1
  O  O359  1  0.75203889  0.11667267  0.25888726  1
  O  O360  1  0.75984651  0.11880021  0.76124202  1
  O  O361  1  0.75999246  0.61815134  0.25187853  1
  O  O362  1  0.75625896  0.61537296  0.75339376  1
  O  O363  1  0.37500832  0.11152240  0.38146073  1
  O  O364  1  0.36337039  0.11516232  0.88067373  1
  O  O365  1  0.35804083  0.63016248  0.37594629  1
  O  O366  1  0.37006201  0.62197598  0.86368093  1
  O  O367  1  0.86406259  0.11994221  0.37376364  1
  O  O368  1  0.86961993  0.11977828  0.87116104  1
  O  O369  1  0.88182406  0.60675774  0.37884099  1
  O  O370  1  0.86741809  0.63083957  0.86098158  1
  O  O371  1  0.13130690  0.38585782  0.12924596  1
  O  O372  1  0.13109717  0.38168207  0.62992682  1
  O  O373  1  0.13241403  0.88248973  0.12565643  1
  O  O374  1  0.12976998  0.88373425  0.63135203  1
  O  O375  1  0.62267914  0.38280104  0.13298122  1
  O  O376  1  0.63308841  0.36980933  0.63600893  1
  O  O377  1  0.63046479  0.87352863  0.12629874  1
  O  O378  1  0.63804732  0.88117030  0.62512874  1
  O  O379  1  0.13253485  0.26438924  0.24200337  1
  O  O380  1  0.12021013  0.26141146  0.75680966  1
  O  O381  1  0.11065823  0.74948598  0.24246573  1
  O  O382  1  0.11995157  0.75688484  0.75252301  1
  O  O383  1  0.62707375  0.25615561  0.26165413  1
  O  O384  1  0.61638316  0.24913733  0.75525302  1
  O  O385  1  0.63957287  0.75540291  0.24289493  1
  O  O386  1  0.63248724  0.74966807  0.76105555  1
  O  O387  1  0.37075621  0.25335657  0.23239453  1
  O  O388  1  0.38673685  0.24923924  0.75541763  1
  O  O389  1  0.37232211  0.74860918  0.23737826  1
  O  O390  1  0.37332702  0.74553840  0.73550978  1
  O  O391  1  0.86565611  0.25356985  0.23669172  1
  O  O392  1  0.87572690  0.24378311  0.74466758  1
  O  O393  1  0.88489763  0.75084338  0.24077773  1
  O  O394  1  0.88108216  0.74314436  0.74161393  1
  O  O395  1  0.38004994  0.48228633  0.50340474  1
  O  O396  1  0.37020360  0.50916682  0.98211996  1
  O  O397  1  0.38695171  0.98883090  0.48609654  1
  O  O398  1  0.38081915  0.98985636  0.99490405  1
  O  O399  1  0.88291135  0.49502310  0.49436587  1
  O  O400  1  0.87950003  0.49379829  1.00823593  1
  O  O401  1  0.88660066  1.01104703  0.49323874  1
  O  O402  1  0.87380007  0.98951126  0.99562735  1
  O  O403  1  0.12301420  0.00154856  0.01318832  1
  O  O404  1  0.12139268  0.01369865  0.51105474  1
  O  O405  1  0.11842989  0.50517141  0.00631920  1
  O  O406  1  0.11943928  0.50328505  0.50171664  1
  O  O407  1  0.61792633  -0.00902174  0.00901399  1
  O  O408  1  0.62414968  0.00697188  0.50275746  1
  O  O409  1  0.63285949  0.51796504  0.00788588  1
  O  O410  1  0.60760719  0.49680352  0.50345922  1
  O  O411  1  0.36445462  0.36968474  0.12484463  1
  O  O412  1  0.36216281  0.37491679  0.62693939  1
  O  O413  1  0.37314765  0.86837395  0.11630227  1
  O  O414  1  0.36810578  0.87045916  0.61818549  1
  O  O415  1  0.87029167  0.36980966  0.11594735  1
  O  O416  1  0.86849438  0.36954633  0.61843912  1
  O  O417  1  0.88042013  0.86522981  0.11138252  1
  O  O418  1  0.87009331  0.86560996  0.63252442  1
  O  O419  1  0.12823773  0.11945412  0.38718235  1
  O  O420  1  0.12787733  0.13610009  0.87907302  1
  O  O421  1  0.13409994  0.62231031  0.38591244  1
  O  O422  1  0.13207062  0.63165556  0.87792361  1
  O  O423  1  0.63646852  0.12788114  0.38533396  1
  O  O424  1  0.63448976  0.13184086  0.87079980  1
  O  O425  1  0.61730008  0.62651491  0.38373637  1
  O  O426  1  0.62781767  0.63005211  0.88001223  1
