# generated using pymatgen
data_V85Zn86O256
_symmetry_space_group_name_H-M   'P 1'
_cell_length_a   16.97207218
_cell_length_b   16.98525465
_cell_length_c   16.97982533
_cell_angle_alpha   90.01380613
_cell_angle_beta   89.99707909
_cell_angle_gamma   89.97725151
_symmetry_Int_Tables_number   1
_chemical_formula_structural   V85Zn86O256
_chemical_formula_sum   'V85 Zn86 O256'
_cell_volume   4894.85807007
_cell_formula_units_Z   1
loop_
 _symmetry_equiv_pos_site_id
 _symmetry_equiv_pos_as_xyz
  1  'x, y, z'
loop_
 _atom_site_type_symbol
 _atom_site_label
 _atom_site_symmetry_multiplicity
 _atom_site_fract_x
 _atom_site_fract_y
 _atom_site_fract_z
 _atom_site_occupancy
  V  V0  1  0.86030142  0.12157847  0.26124802  1
  V  V1  1  0.62730069  0.62290493  0.49798901  1
  V  V2  1  0.50119813  0.24903901  0.75034579  1
  V  V3  1  0.00224567  0.12843757  0.13002455  1
  V  V4  1  0.12262974  0.12722302  -0.00733904  1
  V  V5  1  0.12141958  0.62297233  0.00155207  1
  V  V6  1  0.49867251  0.49793295  0.49918914  1
  V  V7  1  0.37309044  0.00154340  0.87603659  1
  V  V8  1  0.75545506  0.86220644  0.62569814  1
  V  V9  1  0.49953318  0.62320221  0.62669353  1
  V  V10  1  0.87082471  0.37336344  0.48794585  1
  V  V11  1  0.74833432  0.37418532  0.62214459  1
  V  V12  1  0.62353261  0.49807700  0.62642499  1
  V  V13  1  0.25439722  0.87578519  0.12625406  1
  V  V14  1  0.73303797  0.23098266  0.50078143  1
  V  V15  1  0.87435761  0.64597960  0.73553650  1
  V  V16  1  0.50572304  0.37701873  0.88064931  1
  V  V17  1  0.25622659  0.36406778  0.13611065  1
  V  V18  1  -0.00729615  0.50282583  0.49708167  1
  V  V19  1  0.24956037  0.62786678  0.37632762  1
  V  V20  1  0.50172474  0.87765617  0.87565348  1
  V  V21  1  0.24646440  0.50585821  0.24798777  1
  V  V22  1  0.24305556  0.38445376  0.63891108  1
  V  V23  1  0.24822728  0.25251361  -0.00440988  1
  V  V24  1  0.87920000  0.12518797  0.75323868  1
  V  V25  1  0.37752765  0.87697170  -0.00035171  1
  V  V26  1  0.87432613  0.86666823  0.01386880  1
  V  V27  1  0.37557395  0.37724048  0.00047835  1
  V  V28  1  0.37227119  0.37338853  0.50132811  1
  V  V29  1  0.75856398  0.74793136  0.01547945  1
  V  V30  1  0.25298054  0.74996826  0.00038749  1
  V  V31  1  0.27184246  0.12765302  0.37423316  1
  V  V32  1  -0.00986520  0.00238719  0.49331157  1
  V  V33  1  0.37385964  0.50272710  0.37448251  1
  V  V34  1  0.11671211  0.49811763  0.12158978  1
  V  V35  1  0.75570057  0.62555444  0.87343778  1
  V  V36  1  0.50442098  0.74486546  0.24685620  1
  V  V37  1  0.37225125  0.25120037  0.62682223  1
  V  V38  1  0.37561573  0.62279084  0.75184399  1
  V  V39  1  0.75579552  0.61358853  0.37199665  1
  V  V40  1  0.63800871  0.00259866  0.12566111  1
  V  V41  1  0.74691756  0.12202804  0.88102647  1
  V  V42  1  0.87263232  0.85942431  0.49815809  1
  V  V43  1  0.87511332  0.25090252  0.62475060  1
  V  V44  1  0.38104025  0.49913441  0.87335960  1
  V  V45  1  0.62909087  0.75032235  0.37991617  1
  V  V46  1  0.37621080  0.74907505  0.62721944  1
  V  V47  1  0.12984663  0.00379904  0.12471186  1
  V  V48  1  0.11826584  0.27447626  0.86986413  1
  V  V49  1  0.62404471  0.24401692  0.87949807  1
  V  V50  1  0.61351042  0.49606380  0.13079031  1
  V  V51  1  0.25148682  0.61841335  0.87556906  1
  V  V52  1  0.12221469  0.24966188  0.37502495  1
  V  V53  1  0.11879180  0.86466911  0.74672736  1
  V  V54  1  0.24730234  0.25240878  0.50339966  1
  V  V55  1  0.87111242  0.25164006  0.12575375  1
  V  V56  1  0.12625146  0.76127764  0.37067847  1
  V  V57  1  0.00281664  0.12537448  0.62787253  1
  V  V58  1  0.26375921  0.00489768  0.24961041  1
  V  V59  1  0.12752802  0.75031624  0.87383344  1
  V  V60  1  -0.00562688  0.63422752  0.13482964  1
  V  V61  1  -0.00705560  0.64860925  0.61292345  1
  V  V62  1  0.25210245  0.87353284  0.62729082  1
  V  V63  1  0.12094877  0.37695071  0.25361971  1
  V  V64  1  0.76218492  0.50033030  0.74903273  1
  V  V65  1  -0.00345813  0.86075667  0.87326982  1
  V  V66  1  0.87640038  -0.00338231  0.87731989  1
  V  V67  1  0.50257161  0.12625248  0.60945656  1
  V  V68  1  0.75099845  -0.00096214  0.75180861  1
  V  V69  1  0.62603167  0.37559480  0.75232809  1
  V  V70  1  0.48972191  0.12156665  0.13330674  1
  V  V71  1  0.37512111  0.12398230  0.74982253  1
  V  V72  1  0.50454480  0.36660275  0.35886247  1
  V  V73  1  0.12721649  0.12386749  0.49859654  1
  V  V74  1  0.77041210  0.49753808  0.24447746  1
  V  V75  1  0.62726253  0.87575337  0.75145691  1
  V  V76  1  0.25158398  0.74809745  0.50511390  1
  V  V77  1  0.62727018  0.74951935  0.87917084  1
  V  V78  1  0.75146822  0.25390790  -0.00119333  1
  V  V79  1  0.12461656  -0.00142100  0.62448670  1
  V  V80  1  0.61861174  0.61825610  0.00760520  1
  V  V81  1  0.62581951  0.00271213  0.61899099  1
  V  V82  1  0.00103652  0.27170557  0.75189052  1
  V  V83  1  -0.00041343  -0.00254162  -0.00121663  1
  V  V84  1  0.38285609  0.74078652  0.12328598  1
  Zn  Zn85  1  0.39978869  0.25491366  0.15533505  1
  Zn  Zn86  1  0.24752407  0.00001064  0.75001720  1
  Zn  Zn87  1  0.49826167  0.87151244  0.37661450  1
  Zn  Zn88  1  0.38610274  -0.00268922  0.37424320  1
  Zn  Zn89  1  0.11663143  0.49676779  0.63059271  1
  Zn  Zn90  1  0.11979385  0.62294359  0.49553259  1
  Zn  Zn91  1  0.38120820  0.62163708  0.24231923  1
  Zn  Zn92  1  0.69836014  0.33408417  0.17020793  1
  Zn  Zn93  1  -0.02756791  0.76138305  0.23768100  1
  Zn  Zn94  1  0.51490457  0.01469737  -0.00322750  1
  Zn  Zn95  1  0.37742050  0.87669152  0.49700707  1
  Zn  Zn96  1  0.49963723  -0.00746468  0.49831030  1
  Zn  Zn97  1  0.76295716  -0.01578318  0.26577423  1
  Zn  Zn98  1  -0.00542643  0.25125740  0.25211932  1
  Zn  Zn99  1  0.95431637  0.45609060  0.91443248  1
  Zn  Zn100  1  -0.01514942  0.88381969  0.36700976  1
  Zn  Zn101  1  0.50233810  0.74965231  0.75088633  1
  Zn  Zn102  1  0.12161345  0.87712632  0.24759084  1
  Zn  Zn103  1  0.63859249  0.86464365  0.23056812  1
  Zn  Zn104  1  -0.00641085  0.38331837  0.37292976  1
  Zn  Zn105  1  0.24582299  0.12562927  0.87059935  1
  Zn  Zn106  1  0.88213616  0.37359657  0.00392257  1
  Zn  Zn107  1  0.21007850  0.19888125  0.19604553  1
  Zn  Zn108  1  0.18557654  0.19182075  0.69051264  1
  Zn  Zn109  1  0.18725086  0.68927671  0.18749619  1
  Zn  Zn110  1  0.17164825  0.65877223  0.70043991  1
  Zn  Zn111  1  0.64061257  0.16535226  0.24179677  1
  Zn  Zn112  1  0.68876734  0.18543110  0.68867749  1
  Zn  Zn113  1  0.68865801  0.67839090  0.19213147  1
  Zn  Zn114  1  0.68364824  0.68669190  0.68806136  1
  Zn  Zn115  1  0.30964880  0.31789329  0.31834483  1
  Zn  Zn116  1  0.31232119  0.31175385  0.81521116  1
  Zn  Zn117  1  0.31647234  0.81353564  0.30825256  1
  Zn  Zn118  1  0.31285669  0.80989356  0.80971349  1
  Zn  Zn119  1  0.78300304  0.29061452  0.30629593  1
  Zn  Zn120  1  0.81621354  0.31862291  0.81737495  1
  Zn  Zn121  1  0.80926949  0.80705869  0.31537605  1
  Zn  Zn122  1  0.81108436  0.81256572  0.81783585  1
  Zn  Zn123  1  0.18202735  0.44095466  0.44262982  1
  Zn  Zn124  1  0.18999075  0.44060643  0.93978851  1
  Zn  Zn125  1  0.19585615  0.94171263  0.43941850  1
  Zn  Zn126  1  0.18837975  0.93777445  0.93621394  1
  Zn  Zn127  1  0.68544047  0.43226542  0.43244683  1
  Zn  Zn128  1  0.73817068  0.46393079  0.96097055  1
  Zn  Zn129  1  0.69851577  0.93235719  0.44044656  1
  Zn  Zn130  1  0.68927055  0.93535608  0.94937660  1
  Zn  Zn131  1  0.31643770  0.06928676  0.05930482  1
  Zn  Zn132  1  0.31507588  0.06145423  0.56090816  1
  Zn  Zn133  1  0.31003714  0.55692437  0.06042895  1
  Zn  Zn134  1  0.31064557  0.56236022  0.56292109  1
  Zn  Zn135  1  0.81468334  0.06564223  0.06450297  1
  Zn  Zn136  1  0.81280703  0.05910642  0.56882877  1
  Zn  Zn137  1  0.81811459  0.56480295  0.06990122  1
  Zn  Zn138  1  0.81291868  0.56141159  0.55794710  1
  Zn  Zn139  1  0.44058592  0.44158442  0.18561544  1
  Zn  Zn140  1  0.43503690  0.43677921  0.69071912  1
  Zn  Zn141  1  0.45158968  0.93421209  0.18812860  1
  Zn  Zn142  1  0.43954411  0.93899986  0.68670741  1
  Zn  Zn143  1  0.93878141  0.43735601  0.18190762  1
  Zn  Zn144  1  0.93431231  0.44414921  0.67650649  1
  Zn  Zn145  1  0.93985865  0.94305131  0.18872031  1
  Zn  Zn146  1  0.93818244  0.93296845  0.68547901  1
  Zn  Zn147  1  0.06967565  0.06337474  0.31176617  1
  Zn  Zn148  1  0.06045689  0.05668127  0.81065633  1
  Zn  Zn149  1  0.06015732  0.56688788  0.31512567  1
  Zn  Zn150  1  0.05996422  0.56094397  0.79993288  1
  Zn  Zn151  1  0.60338849  0.03054533  0.33699726  1
  Zn  Zn152  1  0.56116009  0.06232932  0.80860484  1
  Zn  Zn153  1  0.56109667  0.56012266  0.30983022  1
  Zn  Zn154  1  0.56624842  0.56065067  0.81639949  1
  Zn  Zn155  1  0.49070654  0.16203707  0.38605745  1
  Zn  Zn156  1  0.43698295  0.18648508  0.94430667  1
  Zn  Zn157  1  0.44043157  0.68915258  0.43686465  1
  Zn  Zn158  1  0.44156684  0.68831648  0.93893683  1
  Zn  Zn159  1  0.93675561  0.18875907  0.43801974  1
  Zn  Zn160  1  0.93912596  0.19237966  0.93567077  1
  Zn  Zn161  1  0.92976315  0.69429891  0.41188123  1
  Zn  Zn162  1  0.95102650  0.65499149  0.92238327  1
  Zn  Zn163  1  0.05713206  0.31743804  0.05750208  1
  Zn  Zn164  1  0.06052082  0.31699921  0.56258104  1
  Zn  Zn165  1  0.06441752  0.81240294  0.06128292  1
  Zn  Zn166  1  0.06281504  0.81512402  0.55317071  1
  Zn  Zn167  1  0.56053274  0.30331194  0.06003365  1
  Zn  Zn168  1  0.55874266  0.31234697  0.55946393  1
  Zn  Zn169  1  0.56422289  0.81375942  0.06011490  1
  Zn  Zn170  1  0.56513258  0.81131622  0.56305715  1
  O  O171  1  0.12167572  0.11944345  0.11131875  1
  O  O172  1  0.12244444  0.11931582  0.62073677  1
  O  O173  1  0.12739274  0.61740908  0.11895715  1
  O  O174  1  0.10031975  0.64350191  0.60984946  1
  O  O175  1  0.60865487  0.10832613  0.14103144  1
  O  O176  1  0.61263913  0.11510997  0.63781324  1
  O  O177  1  0.62634179  0.61842135  0.11293121  1
  O  O178  1  0.61823801  0.61888051  0.61891555  1
  O  O179  1  0.36992485  0.38966403  0.38410373  1
  O  O180  1  0.38153824  0.38303255  0.87683999  1
  O  O181  1  0.37613098  0.87612787  0.37796215  1
  O  O182  1  0.38272427  0.88143561  0.87540359  1
  O  O183  1  0.87403171  0.36080633  0.38769998  1
  O  O184  1  0.88349005  0.37286944  0.88358684  1
  O  O185  1  0.87001307  0.88250611  0.39580047  1
  O  O186  1  0.88319586  0.87699324  0.88126348  1
  O  O187  1  0.25365787  0.01200257  0.36631248  1
  O  O188  1  0.25851862  0.00056357  0.86911839  1
  O  O189  1  0.25262213  0.51076826  0.37165329  1
  O  O190  1  0.25967820  0.51323955  0.87888399  1
  O  O191  1  0.71307904  0.00894952  0.36571355  1
  O  O192  1  0.75510245  0.00419305  0.87204399  1
  O  O193  1  0.73755521  0.50658388  0.36008261  1
  O  O194  1  0.73854755  0.51610166  0.85810052  1
  O  O195  1  0.24542179  0.49071763  0.13535052  1
  O  O196  1  0.25075737  0.48591959  0.62230169  1
  O  O197  1  0.24837031  0.99770556  0.12732140  1
  O  O198  1  0.24322390  0.99045975  0.62761970  1
  O  O199  1  0.74260505  0.51162015  0.14197490  1
  O  O200  1  0.74278158  0.49372133  0.63118919  1
  O  O201  1  0.74001377  1.00917846  0.12945842  1
  O  O202  1  0.74293166  0.99445137  0.63688328  1
  O  O203  1  0.00979177  0.37509861  0.25325548  1
  O  O204  1  -0.00314812  0.37074150  0.74154419  1
  O  O205  1  0.00400071  0.87388765  0.25324353  1
  O  O206  1  0.00770965  0.87552052  0.75913258  1
  O  O207  1  0.49081434  0.37051304  0.25855596  1
  O  O208  1  0.50299591  0.36759095  0.75869499  1
  O  O209  1  0.50543925  0.85592973  0.25302669  1
  O  O210  1  0.50678053  0.87539675  0.76187347  1
  O  O211  1  0.47519696  0.11727913  0.23013363  1
  O  O212  1  0.48789815  0.13043729  0.74539509  1
  O  O213  1  0.49645170  0.63726789  0.25330577  1
  O  O214  1  0.49136104  0.62437778  0.74837453  1
  O  O215  1  1.00682961  0.12629058  0.23614753  1
  O  O216  1  0.99428624  0.12655037  0.74400651  1
  O  O217  1  1.00911162  0.63181787  0.23692585  1
  O  O218  1  0.98051886  0.63160527  0.72692075  1
  O  O219  1  0.35979698  0.26448872  -0.01459799  1
  O  O220  1  0.36328670  0.26197410  0.51184734  1
  O  O221  1  0.37308518  0.75663418  0.00406393  1
  O  O222  1  0.36506435  0.74693697  0.50783301  1
  O  O223  1  0.86847865  0.24611743  0.00760316  1
  O  O224  1  0.87751750  0.25360197  0.51583219  1
  O  O225  1  0.86245715  0.75211195  -0.00531652  1
  O  O226  1  0.87680060  0.76194461  0.49561852  1
  O  O227  1  0.12898199  0.24669075  0.49442251  1
  O  O228  1  0.12213182  0.24444161  0.98371889  1
  O  O229  1  0.14190922  0.75456570  0.49100544  1
  O  O230  1  0.13549201  0.74537602  0.99421786  1
  O  O231  1  0.63381617  0.24912616  0.50649919  1
  O  O232  1  0.63240846  0.24797408  0.98464665  1
  O  O233  1  0.61866917  0.73525109  0.48982867  1
  O  O234  1  0.63542554  0.74145065  0.99608584  1
  O  O235  1  0.50695443  0.23585425  0.13104674  1
  O  O236  1  0.49270460  0.24406561  0.63083599  1
  O  O237  1  0.49252181  0.75176472  0.12928915  1
  O  O238  1  0.49480056  0.73988778  0.62814825  1
  O  O239  1  0.99660833  0.24123894  0.12550615  1
  O  O240  1  0.99508412  0.24622347  0.63331079  1
  O  O241  1  1.01016005  0.74047113  0.13087389  1
  O  O242  1  0.98959724  0.74697462  0.61269646  1
  O  O243  1  0.01370798  0.25167756  0.37373178  1
  O  O244  1  0.00879593  0.24778558  0.86257035  1
  O  O245  1  0.02567613  0.76346061  0.39096751  1
  O  O246  1  0.00615261  0.75636819  0.88014509  1
  O  O247  1  0.47226297  0.27476969  0.38477760  1
  O  O248  1  0.50698640  0.25279107  0.86875849  1
  O  O249  1  0.51241436  0.74661857  0.36796551  1
  O  O250  1  0.51192666  0.75822285  0.87603112  1
  O  O251  1  0.24629380  0.13233847  0.49359009  1
  O  O252  1  0.24037904  0.13470345  0.99289793  1
  O  O253  1  0.24753313  0.63217724  0.49441522  1
  O  O254  1  0.24541963  0.63062206  0.99425395  1
  O  O255  1  0.74408116  0.13296445  0.52032228  1
  O  O256  1  0.75744797  0.13117012  0.98442537  1
  O  O257  1  0.73116302  0.61065116  0.49414363  1
  O  O258  1  0.74735342  0.63560910  0.98992518  1
  O  O259  1  0.25690340  0.37062782  0.00682147  1
  O  O260  1  0.25732159  0.37280786  0.50552587  1
  O  O261  1  0.25682355  0.87162471  0.00781940  1
  O  O262  1  0.25207548  0.86860014  0.51487426  1
  O  O263  1  0.74903932  0.35497583  -0.00842384  1
  O  O264  1  0.75415155  0.37096348  0.50740863  1
  O  O265  1  0.75989056  0.85716222  -0.00349781  1
  O  O266  1  0.76316923  0.87745873  0.51329534  1
  O  O267  1  0.12884880  0.49792375  0.24510075  1
  O  O268  1  0.13949424  0.54885908  0.72940512  1
  O  O269  1  0.13588010  1.00082551  0.23530859  1
  O  O270  1  0.12543729  0.98657457  0.74157845  1
  O  O271  1  0.62477808  0.50208094  0.23311316  1
  O  O272  1  0.63064696  0.49430438  0.74304094  1
  O  O273  1  0.61646647  0.98308542  0.23009151  1
  O  O274  1  0.63151967  0.99197501  0.74736742  1
  O  O275  1  0.36442296  -0.00899469  0.24797218  1
  O  O276  1  0.37481914  0.00706556  0.75889199  1
  O  O277  1  0.36528199  0.50156929  0.25662096  1
  O  O278  1  0.37778952  0.50737156  0.76409836  1
  O  O279  1  0.87618111  0.01667364  0.24471042  1
  O  O280  1  0.87133105  0.00320577  0.75781416  1
  O  O281  1  0.86979141  0.50654760  0.24300608  1
  O  O282  1  0.86399340  0.51100761  0.74178461  1
  O  O283  1  0.12359098  0.36800118  0.37055678  1
  O  O284  1  0.12513248  0.37367523  0.87358235  1
  O  O285  1  0.13990461  0.86638412  0.37146987  1
  O  O286  1  0.11885463  0.86948170  0.86740625  1
  O  O287  1  0.60236140  0.37367020  0.38115408  1
  O  O288  1  0.61605673  0.36459839  0.86785295  1
  O  O289  1  0.62866709  0.85249590  0.38417463  1
  O  O290  1  0.62050462  0.86953211  0.87414203  1
  O  O291  1  0.38142668  0.14225028  0.11271263  1
  O  O292  1  0.38126953  0.13061354  0.63222113  1
  O  O293  1  0.36759587  0.63732648  0.12048228  1
  O  O294  1  0.37833804  0.62696163  0.63482047  1
  O  O295  1  0.88561216  0.13300947  0.13000264  1
  O  O296  1  0.88180433  0.13280498  0.63370053  1
  O  O297  1  0.89618998  0.62851207  0.12175517  1
  O  O298  1  0.87414311  0.62944068  0.62836568  1
  O  O299  1  0.22312696  0.25617245  0.09755369  1
  O  O300  1  0.25222720  0.25928248  0.62135803  1
  O  O301  1  0.25626960  0.75941108  0.12008313  1
  O  O302  1  0.25517780  0.75416555  0.61927888  1
  O  O303  1  0.75921391  0.24572365  0.10966550  1
  O  O304  1  0.75789695  0.25525501  0.62230159  1
  O  O305  1  0.75015260  0.74007964  0.11362840  1
  O  O306  1  0.74144378  0.76394967  0.62802346  1
  O  O307  1  0.24359858  0.24454551  0.38390395  1
  O  O308  1  0.23499074  0.25102988  0.87876302  1
  O  O309  1  0.24905246  0.74285451  0.38139785  1
  O  O310  1  0.25023992  0.74262326  0.88229658  1
  O  O311  1  0.76111028  0.24053706  0.40597044  1
  O  O312  1  0.74314766  0.23972375  0.87405931  1
  O  O313  1  0.73337777  0.72799701  0.37610020  1
  O  O314  1  0.73813489  0.74501799  0.87846233  1
  O  O315  1  0.00578844  0.11936976  0.00684460  1
  O  O316  1  0.00784973  0.12043323  0.50713366  1
  O  O317  1  0.01865901  0.63613839  0.01581274  1
  O  O318  1  -0.01154818  0.62337200  0.50323770  1
  O  O319  1  0.49973629  0.12652797  0.01091066  1
  O  O320  1  0.49808958  0.12528670  0.50902243  1
  O  O321  1  0.52087458  0.62489107  -0.00815895  1
  O  O322  1  0.50530922  0.61591674  0.50551938  1
  O  O323  1  0.48296775  0.38228577  0.50497326  1
  O  O324  1  0.49129063  0.36434294  0.98648758  1
  O  O325  1  0.49542322  0.87190862  0.50056833  1
  O  O326  1  0.49496680  0.87729323  0.98591748  1
  O  O327  1  0.98927497  0.38303020  0.49961944  1
  O  O328  1  0.99817354  0.39300178  1.00367461  1
  O  O329  1  0.98682092  0.88586686  0.50197980  1
  O  O330  1  0.99540881  0.87702206  0.99155249  1
  O  O331  1  0.48879190  0.48978812  0.37752119  1
  O  O332  1  0.49480603  0.48833457  0.87307529  1
  O  O333  1  0.50473557  0.99042003  0.38028141  1
  O  O334  1  0.49353574  0.99438817  0.87693575  1
  O  O335  1  1.00380819  0.50169887  0.39011021  1
  O  O336  1  0.99233371  0.55249450  0.88237082  1
  O  O337  1  1.01450362  0.99804384  0.38884896  1
  O  O338  1  0.99571514  0.98751158  0.88149573  1
  O  O339  1  0.01173196  0.00664078  0.11734461  1
  O  O340  1  0.00818741  0.00558728  0.61901949  1
  O  O341  1  0.01362139  0.51305913  0.13061527  1
  O  O342  1  -0.00158929  0.51301916  0.61180122  1
  O  O343  1  0.49287292  0.00893797  0.11394701  1
  O  O344  1  0.50758497  0.00995252  0.62624277  1
  O  O345  1  0.51384310  0.50344637  0.12356126  1
  O  O346  1  0.50265522  0.50461376  0.62157807  1
  O  O347  1  0.23497678  0.39481573  0.25761949  1
  O  O348  1  0.25470083  0.37285557  0.73678650  1
  O  O349  1  0.24872536  0.88159908  0.23539749  1
  O  O350  1  0.24214682  0.87310436  0.73935870  1
  O  O351  1  0.76375727  0.39506898  0.25059727  1
  O  O352  1  0.74696677  0.38292430  0.74437477  1
  O  O353  1  0.75080821  0.87220871  0.25140937  1
  O  O354  1  0.74694758  0.88091016  0.74707161  1
  O  O355  1  0.24937683  0.11637966  0.26256578  1
  O  O356  1  0.26231713  0.12487257  0.74934811  1
  O  O357  1  0.25179956  0.61744682  0.25644668  1
  O  O358  1  0.26923842  0.63619248  0.76331447  1
  O  O359  1  0.76127671  0.11919324  0.25387394  1
  O  O360  1  0.75979807  0.11890049  0.75855398  1
  O  O361  1  0.75075417  0.61491737  0.26469552  1
  O  O362  1  0.75659617  0.62074404  0.74957001  1
  O  O363  1  0.37340428  0.12566542  0.37721362  1
  O  O364  1  0.37279459  0.11782028  0.86723583  1
  O  O365  1  0.36938512  0.61432529  0.37603930  1
  O  O366  1  0.37467293  0.61855405  0.87281418  1
  O  O367  1  0.88413368  0.12854693  0.35849099  1
  O  O368  1  0.87133347  0.11801108  0.87000077  1
  O  O369  1  0.85043493  0.60951447  0.39755201  1
  O  O370  1  0.85919761  0.63798163  0.85481934  1
  O  O371  1  0.13015990  0.38260546  0.13609559  1
  O  O372  1  0.13838806  0.37686090  0.62441996  1
  O  O373  1  0.13629537  0.88611397  0.12092536  1
  O  O374  1  0.12926497  0.87671073  0.63067261  1
  O  O375  1  0.62369840  0.39150161  0.10930148  1
  O  O376  1  0.62853068  0.37834258  0.63197456  1
  O  O377  1  0.62113968  0.89135266  0.11665247  1
  O  O378  1  0.63130601  0.88118491  0.63490617  1
  O  O379  1  0.12769486  0.26153459  0.25911493  1
  O  O380  1  0.11333148  0.24828562  0.76033596  1
  O  O381  1  0.13280770  0.75500175  0.26493368  1
  O  O382  1  0.12991552  0.75806128  0.75587927  1
  O  O383  1  0.68221985  0.26684172  0.25493762  1
  O  O384  1  0.62152942  0.25567994  0.75715259  1
  O  O385  1  0.62132201  0.74614807  0.25932369  1
  O  O386  1  0.62334101  0.75673709  0.76117791  1
  O  O387  1  0.30738712  0.27465993  0.21480332  1
  O  O388  1  0.37922339  0.24288363  0.74677650  1
  O  O389  1  0.38153661  0.74559956  0.23839613  1
  O  O390  1  0.38190381  0.74230819  0.74462188  1
  O  O391  1  0.87478899  0.23751812  0.24230000  1
  O  O392  1  0.88254135  0.24686542  0.74158938  1
  O  O393  1  0.89272051  0.73580465  0.30891502  1
  O  O394  1  0.86664380  0.74396885  0.74273652  1
  O  O395  1  0.37789102  0.49563337  0.49303722  1
  O  O396  1  0.37110994  0.48692171  0.98906957  1
  O  O397  1  0.37805515  0.99592613  0.49709976  1
  O  O398  1  0.37082924  0.99469271  0.98534436  1
  O  O399  1  0.87937410  0.48413834  0.50592640  1
  O  O400  1  0.84704735  0.49003213  0.99301069  1
  O  O401  1  0.88867711  1.00576463  0.50405455  1
  O  O402  1  0.87981406  0.99079781  0.99582996  1
  O  O403  1  0.12265342  0.00645794  0.00649260  1
  O  O404  1  0.12312059  0.00465573  0.50910403  1
  O  O405  1  0.13642836  0.51158795  0.01175493  1
  O  O406  1  0.11318682  0.50462381  0.50762869  1
  O  O407  1  0.62926852  0.00362180  0.01448727  1
  O  O408  1  0.62523008  -0.00708392  0.51834244  1
  O  O409  1  0.64048280  0.51481377  0.00788692  1
  O  O410  1  0.61555178  0.50057844  0.50665318  1
  O  O411  1  0.37583282  0.37390050  0.11389109  1
  O  O412  1  0.36584652  0.37209955  0.62042250  1
  O  O413  1  0.37042590  0.86686603  0.11816693  1
  O  O414  1  0.36677472  0.86682235  0.63084662  1
  O  O415  1  0.88091927  0.35600714  0.12657669  1
  O  O416  1  0.86648182  0.36616086  0.62025881  1
  O  O417  1  0.88662966  0.87415100  0.11220169  1
  O  O418  1  0.86568369  0.88073790  0.61499437  1
  O  O419  1  0.13385739  0.13482328  0.38117357  1
  O  O420  1  0.12345241  0.11999462  0.88531731  1
  O  O421  1  0.13300061  0.63869077  0.37754793  1
  O  O422  1  0.13785575  0.63302793  0.88391473  1
  O  O423  1  0.58970288  0.14174037  0.34186991  1
  O  O424  1  0.63557299  0.13206448  0.86401923  1
  O  O425  1  0.62521850  0.62517993  0.38354252  1
  O  O426  1  0.63367549  0.63322495  0.88063575  1
