# generated using pymatgen
data_V85Zn86O256
_symmetry_space_group_name_H-M   'P 1'
_cell_length_a   16.93431427
_cell_length_b   16.93054117
_cell_length_c   16.92472405
_cell_angle_alpha   90.01058096
_cell_angle_beta   90.02206179
_cell_angle_gamma   90.12137821
_symmetry_Int_Tables_number   1
_chemical_formula_structural   V85Zn86O256
_chemical_formula_sum   'V85 Zn86 O256'
_cell_volume   4852.42730246
_cell_formula_units_Z   1
loop_
 _symmetry_equiv_pos_site_id
 _symmetry_equiv_pos_as_xyz
  1  'x, y, z'
loop_
 _atom_site_type_symbol
 _atom_site_label
 _atom_site_symmetry_multiplicity
 _atom_site_fract_x
 _atom_site_fract_y
 _atom_site_fract_z
 _atom_site_occupancy
  V  V0  1  0.37403323  0.74467247  0.12531777  1
  V  V1  1  0.25229731  0.88386971  0.13051995  1
  V  V2  1  0.62895940  0.24859743  0.37463556  1
  V  V3  1  0.88631355  0.37234181  0.00025334  1
  V  V4  1  0.74442975  0.62203066  0.89224426  1
  V  V5  1  0.49392668  0.50147137  0.50174912  1
  V  V6  1  0.62486135  0.24378793  0.87348376  1
  V  V7  1  0.11313870  0.25372787  0.87021742  1
  V  V8  1  -0.00093155  0.87150988  0.36553098  1
  V  V9  1  -0.00162709  0.12832998  0.14204204  1
  V  V10  1  0.49848118  0.62620101  0.62736420  1
  V  V11  1  0.62413353  0.87787560  0.25054378  1
  V  V12  1  0.00539970  0.63560738  0.13420699  1
  V  V13  1  0.50108181  0.49692175  -0.00110508  1
  V  V14  1  0.87894169  0.24694411  0.13482680  1
  V  V15  1  0.37943000  -0.00008486  0.87956372  1
  V  V16  1  -0.01291996  0.87374680  0.88346326  1
  V  V17  1  0.38045759  0.25279639  0.62707048  1
  V  V18  1  0.87368607  0.87369310  0.49858402  1
  V  V19  1  0.37219077  0.12430481  0.24928732  1
  V  V20  1  0.75167329  0.00704243  0.25134118  1
  V  V21  1  0.12627245  0.50492281  0.11897596  1
  V  V22  1  0.24836559  0.00180204  0.74569465  1
  V  V23  1  0.36891023  0.37593595  0.50186956  1
  V  V24  1  0.62939929  0.50438430  0.11840100  1
  V  V25  1  0.12677970  0.12011195  0.50632626  1
  V  V26  1  0.62749980  0.12472924  0.50496746  1
  V  V27  1  0.24847169  0.12131328  0.37127684  1
  V  V28  1  0.49914729  0.37527379  0.37020181  1
  V  V29  1  0.24497634  0.62408066  0.87595012  1
  V  V30  1  0.68361567  0.43402054  0.29133421  1
  V  V31  1  0.24908388  0.25108736  0.50263978  1
  V  V32  1  -0.00035218  0.13201877  0.63566517  1
  V  V33  1  0.37279117  0.75163874  0.62571753  1
  V  V34  1  0.50469665  0.87754671  0.88524774  1
  V  V35  1  0.49566384  0.74797345  0.25028921  1
  V  V36  1  0.25167429  0.25421319  -0.00337414  1
  V  V37  1  0.87108050  0.62329018  0.75233694  1
  V  V38  1  0.49998882  0.12133742  0.11708895  1
  V  V39  1  0.75086181  0.24243160  -0.00544245  1
  V  V40  1  0.00434380  -0.00180750  0.51028342  1
  V  V41  1  0.50297536  0.75332003  0.75279987  1
  V  V42  1  0.37261115  0.62398499  0.75188029  1
  V  V43  1  0.86959688  0.01786016  0.87593727  1
  V  V44  1  0.37137685  0.49528036  0.88193179  1
  V  V45  1  0.74329524  0.87745738  0.62769209  1
  V  V46  1  0.37504145  0.50761816  0.36955613  1
  V  V47  1  0.75578150  0.12823580  0.38108954  1
  V  V48  1  0.62242761  -0.00008205  0.11630264  1
  V  V49  1  -0.00679365  0.36753934  0.37289514  1
  V  V50  1  0.12607666  0.49593837  0.62090696  1
  V  V51  1  0.76160965  0.87833269  0.12308165  1
  V  V52  1  0.37355137  0.87699964  0.50086688  1
  V  V53  1  0.50396470  0.00057540  0.50787585  1
  V  V54  1  -0.01083498  0.50178335  0.49222085  1
  V  V55  1  0.37439964  0.25268937  0.12241077  1
  V  V56  1  0.63137303  0.74607109  0.37340316  1
  V  V57  1  0.24753760  0.12496998  0.87275257  1
  V  V58  1  0.38349549  0.12826618  0.74848372  1
  V  V59  1  0.75142949  0.75430857  0.00483177  1
  V  V60  1  0.62304713  0.50222409  0.63065795  1
  V  V61  1  0.37519436  -0.00019484  0.37029698  1
  V  V62  1  0.50349663  0.25345289  0.24706831  1
  V  V63  1  0.11864264  0.12279364  -0.00071355  1
  V  V64  1  0.24191809  0.87542067  0.62422949  1
  V  V65  1  0.50312548  0.62603820  0.12109893  1
  V  V66  1  0.12219495  0.87861496  0.75083731  1
  V  V67  1  0.12157340  0.74554218  0.36859899  1
  V  V68  1  0.75119359  0.01337104  0.74785158  1
  V  V69  1  0.11079828  0.37068662  0.74835826  1
  V  V70  1  0.12425284  0.36973709  0.25060022  1
  V  V71  1  0.25459304  0.37648624  0.12099955  1
  V  V72  1  -0.00125482  0.75005302  0.75109829  1
  V  V73  1  0.75119915  0.36785334  0.62517236  1
  V  V74  1  0.87472566  0.74872581  0.62369067  1
  V  V75  1  0.00602833  0.51152113  -0.00454901  1
  V  V76  1  0.25049615  0.74811729  -0.00101803  1
  V  V77  1  0.87789426  0.49480187  0.87818140  1
  V  V78  1  0.61780267  0.36975726  0.75067541  1
  V  V79  1  0.87850433  0.00535725  0.37321969  1
  V  V80  1  0.74395695  0.37015562  0.12234807  1
  V  V81  1  0.49474981  0.36852527  0.87661922  1
  V  V82  1  0.25262432  0.50814363  0.24813123  1
  V  V83  1  0.24959114  0.48905612  0.74576831  1
  V  V84  1  0.12263757  0.74696065  0.87857905  1
  Zn  Zn85  1  0.75924417  0.60400544  0.37511599  1
  Zn  Zn86  1  0.24725781  0.74753786  0.49894588  1
  Zn  Zn87  1  0.37862169  0.87872767  0.00154106  1
  Zn  Zn88  1  0.75067407  0.74298502  0.49756908  1
  Zn  Zn89  1  0.62580365  0.12080219  -0.00541982  1
  Zn  Zn90  1  -0.00131367  0.62078744  0.62410649  1
  Zn  Zn91  1  -0.00691519  -0.00263668  0.00429065  1
  Zn  Zn92  1  0.12131494  0.24669037  0.37217936  1
  Zn  Zn93  1  0.62391239  0.74676424  0.88109301  1
  Zn  Zn94  1  0.87562536  0.24463825  0.63126395  1
  Zn  Zn95  1  0.12854006  0.87953161  0.25132316  1
  Zn  Zn96  1  0.88503632  0.75649649  0.12616865  1
  Zn  Zn97  1  0.25295914  0.62812165  0.37484006  1
  Zn  Zn98  1  0.62542375  0.62670600  0.49992432  1
  Zn  Zn99  1  0.12705933  0.00349974  0.13118836  1
  Zn  Zn100  1  0.49992462  0.87561663  0.37603063  1
  Zn  Zn101  1  0.86678657  0.36871975  0.49496879  1
  Zn  Zn102  1  0.62520861  0.88101229  0.74985934  1
  Zn  Zn103  1  0.12620708  0.62403443  0.49988223  1
  Zn  Zn104  1  0.74797500  0.50035814  0.75322935  1
  Zn  Zn105  1  0.86399704  0.62312904  0.25759862  1
  Zn  Zn106  1  0.50568968  0.12595658  0.62841574  1
  Zn  Zn107  1  0.18644335  0.18677882  0.18712058  1
  Zn  Zn108  1  0.18778326  0.18968454  0.68323961  1
  Zn  Zn109  1  0.18494791  0.68984255  0.18842991  1
  Zn  Zn110  1  0.18559777  0.68430546  0.68842331  1
  Zn  Zn111  1  0.68787336  0.18655983  0.18870249  1
  Zn  Zn112  1  0.68520361  0.18886847  0.69181242  1
  Zn  Zn113  1  0.69208079  0.68632941  0.19023543  1
  Zn  Zn114  1  0.68904262  0.68833129  0.68989086  1
  Zn  Zn115  1  0.31119238  0.31358361  0.31228319  1
  Zn  Zn116  1  0.31009386  0.31126147  0.81128117  1
  Zn  Zn117  1  0.31223942  0.81042481  0.31320197  1
  Zn  Zn118  1  0.31413784  0.81462443  0.81314765  1
  Zn  Zn119  1  0.81910520  0.30487356  0.31464088  1
  Zn  Zn120  1  0.81206979  0.30930932  0.80849471  1
  Zn  Zn121  1  0.81615374  0.80633211  0.30408897  1
  Zn  Zn122  1  0.80775061  0.80962557  0.81160810  1
  Zn  Zn123  1  0.18595647  0.43784234  0.43517454  1
  Zn  Zn124  1  0.18488099  0.43373554  0.93465178  1
  Zn  Zn125  1  0.18644878  0.93716136  0.43494350  1
  Zn  Zn126  1  0.18701015  0.93618071  0.93914070  1
  Zn  Zn127  1  0.67778975  0.43339076  0.45622230  1
  Zn  Zn128  1  0.68835486  0.43296972  0.93958642  1
  Zn  Zn129  1  0.68788160  0.93781162  0.43772739  1
  Zn  Zn130  1  0.69255818  0.93597687  0.93459837  1
  Zn  Zn131  1  0.31224212  0.06750249  0.05844214  1
  Zn  Zn132  1  0.31366397  0.06226676  0.56300716  1
  Zn  Zn133  1  0.31331452  0.56627216  0.06039311  1
  Zn  Zn134  1  0.30790581  0.56422221  0.56244530  1
  Zn  Zn135  1  0.81587115  0.06245965  0.06038689  1
  Zn  Zn136  1  0.81600503  0.06271600  0.56345616  1
  Zn  Zn137  1  0.83416829  0.54382579  0.09715856  1
  Zn  Zn138  1  0.80890417  0.56141440  0.56048549  1
  Zn  Zn139  1  0.43761949  0.43786899  0.18620115  1
  Zn  Zn140  1  0.43497672  0.43478645  0.69009103  1
  Zn  Zn141  1  0.43675937  0.93631039  0.18675672  1
  Zn  Zn142  1  0.43582132  0.93784829  0.69037358  1
  Zn  Zn143  1  0.93869804  0.43924156  0.19229883  1
  Zn  Zn144  1  0.93667743  0.43867207  0.68764839  1
  Zn  Zn145  1  0.93944658  0.94659136  0.19016557  1
  Zn  Zn146  1  0.93258837  0.93955053  0.69078614  1
  Zn  Zn147  1  0.06793491  0.05609889  0.31478804  1
  Zn  Zn148  1  0.06150934  0.05714480  0.81716456  1
  Zn  Zn149  1  0.06218964  0.55765533  0.31075981  1
  Zn  Zn150  1  0.06005543  0.56078014  0.81061182  1
  Zn  Zn151  1  0.56102122  0.06457652  0.31292419  1
  Zn  Zn152  1  0.56529836  0.05844973  0.81087192  1
  Zn  Zn153  1  0.55777318  0.56980336  0.30911659  1
  Zn  Zn154  1  0.56108166  0.56270171  0.81511351  1
  Zn  Zn155  1  0.43963726  0.18731329  0.43803313  1
  Zn  Zn156  1  0.43546831  0.18734363  0.93728424  1
  Zn  Zn157  1  0.43932202  0.69009569  0.43858993  1
  Zn  Zn158  1  0.43653701  0.68588869  0.93917927  1
  Zn  Zn159  1  0.93545440  0.19065489  0.45002282  1
  Zn  Zn160  1  0.93737610  0.18986978  0.93804505  1
  Zn  Zn161  1  0.93584275  0.68437823  0.43084154  1
  Zn  Zn162  1  0.93137139  0.68685126  0.94440646  1
  Zn  Zn163  1  0.06507493  0.31167665  0.06263004  1
  Zn  Zn164  1  0.06224361  0.31344996  0.55955418  1
  Zn  Zn165  1  0.07024481  0.81585221  0.05885303  1
  Zn  Zn166  1  0.06102789  0.80891079  0.55778098  1
  Zn  Zn167  1  0.56315862  0.31410464  0.05870903  1
  Zn  Zn168  1  0.56045111  0.31158010  0.55956778  1
  Zn  Zn169  1  0.57080712  0.80970730  0.06174502  1
  Zn  Zn170  1  0.56176528  0.81272252  0.56076745  1
  O  O171  1  0.11464671  0.12798634  0.11779053  1
  O  O172  1  0.12160506  0.12364755  0.61268610  1
  O  O173  1  0.12081496  0.61473535  0.12499631  1
  O  O174  1  0.11976808  0.61015003  0.62827977  1
  O  O175  1  0.61676338  0.11713654  0.12526321  1
  O  O176  1  0.62439176  0.13388600  0.60953542  1
  O  O177  1  0.61645615  0.61474273  0.12534459  1
  O  O178  1  0.61787037  0.61838276  0.62777164  1
  O  O179  1  0.37955851  0.38330904  0.38152104  1
  O  O180  1  0.38258960  0.38258192  0.86846130  1
  O  O181  1  0.37418596  0.88351589  0.38117274  1
  O  O182  1  0.38305041  0.88391761  0.87565180  1
  O  O183  1  0.88821249  0.37492558  0.37403483  1
  O  O184  1  0.86416474  0.38864729  0.88575788  1
  O  O185  1  0.87969963  0.87947323  0.38191931  1
  O  O186  1  0.88642315  0.87087565  0.87136213  1
  O  O187  1  0.25944389  0.01319071  0.38161480  1
  O  O188  1  0.25527564  0.00381707  0.86501994  1
  O  O189  1  0.25735716  0.49998349  0.36484036  1
  O  O190  1  0.25524789  0.50264099  0.87032132  1
  O  O191  1  0.75737502  0.00644658  0.37005828  1
  O  O192  1  0.76192902  -0.00189397  0.86520624  1
  O  O193  1  0.73295000  0.48445320  0.36836532  1
  O  O194  1  0.75515362  0.50911763  0.87777895  1
  O  O195  1  0.24712122  0.49528566  0.12688944  1
  O  O196  1  0.24093608  0.50258567  0.63477706  1
  O  O197  1  0.25648141  0.98585412  0.11838760  1
  O  O198  1  0.25490919  0.99174468  0.63774789  1
  O  O199  1  0.73401306  0.48831233  0.11182352  1
  O  O200  1  0.73633229  0.49473293  0.62887378  1
  O  O201  1  0.74529149  0.99833852  0.13293996  1
  O  O202  1  0.76211166  0.99106012  0.63891135  1
  O  O203  1  0.00810555  0.38295925  0.26299070  1
  O  O204  1  0.01247864  0.37828692  0.74991931  1
  O  O205  1  -0.00171235  0.87897338  0.26319925  1
  O  O206  1  0.00621356  0.87041097  0.75704578  1
  O  O207  1  0.49461615  0.36124723  0.25287597  1
  O  O208  1  0.50879855  0.37994904  0.76083459  1
  O  O209  1  0.50824909  0.86820305  0.24947678  1
  O  O210  1  0.50185986  0.86837061  0.75687258  1
  O  O211  1  0.49301677  0.13568760  0.24294905  1
  O  O212  1  0.48721186  0.11890863  0.74794648  1
  O  O213  1  0.50012064  0.63504295  0.23375719  1
  O  O214  1  0.49252106  0.63240093  0.74832797  1
  O  O215  1  1.00556130  0.12665305  0.24030124  1
  O  O216  1  1.01271163  0.11473012  0.73254950  1
  O  O217  1  1.00312021  0.62101177  0.23455807  1
  O  O218  1  0.98663855  0.63081524  0.75022716  1
  O  O219  1  0.35984520  0.24344619  0.00585523  1
  O  O220  1  0.37050021  0.25728931  0.50301851  1
  O  O221  1  0.36871771  0.75332843  0.00698756  1
  O  O222  1  0.37373929  0.76031317  0.50614353  1
  O  O223  1  0.86931146  0.25635597  0.00419723  1
  O  O224  1  0.88016477  0.25864624  0.51779145  1
  O  O225  1  0.85993101  0.75143089  0.00582165  1
  O  O226  1  0.87490399  0.75674062  0.50700447  1
  O  O227  1  0.13461220  0.24302438  0.49725783  1
  O  O228  1  0.13334296  0.24583181  0.99174548  1
  O  O229  1  0.12667093  0.74668068  0.48808841  1
  O  O230  1  0.13407169  0.75266586  0.98546619  1
  O  O231  1  0.61717036  0.24401099  0.48305838  1
  O  O232  1  0.63353232  0.25002184  0.99231975  1
  O  O233  1  0.62484159  0.75036385  0.48820108  1
  O  O234  1  0.64151472  0.74782259  0.99789270  1
  O  O235  1  0.49631228  0.24596049  0.12956188  1
  O  O236  1  0.48526773  0.24665623  0.61904803  1
  O  O237  1  0.49568477  0.74425730  0.12704441  1
  O  O238  1  0.49334385  0.74751245  0.63301087  1
  O  O239  1  0.99393335  0.23756012  0.11925514  1
  O  O240  1  1.01003975  0.23407739  0.62493706  1
  O  O241  1  1.01350314  0.73863874  0.12059492  1
  O  O242  1  0.98877357  0.74828967  0.63030589  1
  O  O243  1  0.00234263  0.26413108  0.37927878  1
  O  O244  1  0.01438793  0.25019115  0.87910777  1
  O  O245  1  0.01137287  0.75889854  0.38152108  1
  O  O246  1  0.00438967  0.75587027  0.87319659  1
  O  O247  1  0.50540302  0.25545022  0.36646349  1
  O  O248  1  0.50437941  0.26295377  0.88380378  1
  O  O249  1  0.50609325  0.75272336  0.36522513  1
  O  O250  1  0.49957864  0.75617121  0.86909248  1
  O  O251  1  0.24536157  0.12942112  0.49465732  1
  O  O252  1  0.23795722  0.13271434  0.99550006  1
  O  O253  1  0.24529627  0.62781134  0.49409847  1
  O  O254  1  0.25353638  0.63909047  0.99275527  1
  O  O255  1  0.74241263  0.11692585  0.49019431  1
  O  O256  1  0.74774688  0.13853743  1.00483782  1
  O  O257  1  0.74389258  0.62445492  0.49210176  1
  O  O258  1  0.75470047  0.62780564  0.99193946  1
  O  O259  1  0.24513887  0.36638529  0.00808124  1
  O  O260  1  0.26067265  0.36662686  0.49186808  1
  O  O261  1  0.25353663  0.86394105  0.00662241  1
  O  O262  1  0.25446075  0.87615392  0.50986692  1
  O  O263  1  0.75818249  0.36523322  0.00781495  1
  O  O264  1  0.74859376  0.37565063  0.51946375  1
  O  O265  1  0.74607429  0.86947605  0.01223543  1
  O  O266  1  0.76190897  0.87688571  0.50649274  1
  O  O267  1  0.13309283  0.49105305  0.23997948  1
  O  O268  1  0.12962415  0.48919151  0.74564082  1
  O  O269  1  0.12729269  0.99379313  0.24550819  1
  O  O270  1  0.13297896  0.98598290  0.75645672  1
  O  O271  1  0.61548645  0.49463897  0.23868562  1
  O  O272  1  0.62113014  0.49454335  0.74213180  1
  O  O273  1  0.63060891  0.99521209  0.24515744  1
  O  O274  1  0.64444360  0.99868341  0.75395424  1
  O  O275  1  0.38114770  0.00564591  0.26295469  1
  O  O276  1  0.36692640  0.00702430  0.75836442  1
  O  O277  1  0.36671605  0.49434386  0.25806699  1
  O  O278  1  0.36682861  0.50287707  0.75850899  1
  O  O279  1  0.86716992  -0.00079633  0.26493851  1
  O  O280  1  0.86422978  -0.00512351  0.76417894  1
  O  O281  1  0.86437423  0.51755007  0.20634246  1
  O  O282  1  0.87321982  0.50633702  0.76043295  1
  O  O283  1  0.11766484  0.37289841  0.36615912  1
  O  O284  1  0.12920340  0.36704680  0.85908944  1
  O  O285  1  0.11661141  0.86600111  0.37594730  1
  O  O286  1  0.11763629  0.86792604  0.86781026  1
  O  O287  1  0.62318316  0.37083888  0.36603988  1
  O  O288  1  0.61604536  0.36903444  0.86898127  1
  O  O289  1  0.62232920  0.87303831  0.36301063  1
  O  O290  1  0.61768244  0.87144457  0.87214430  1
  O  O291  1  0.38078866  0.12967063  0.12976673  1
  O  O292  1  0.37605777  0.13224243  0.63250571  1
  O  O293  1  0.38139350  0.63802980  0.12229634  1
  O  O294  1  0.37818966  0.63090252  0.63248579  1
  O  O295  1  0.89011103  0.13144379  0.12027785  1
  O  O296  1  0.89535877  0.12214209  0.62121639  1
  O  O297  1  0.90300238  0.63551325  0.10746254  1
  O  O298  1  0.87360384  0.63048323  0.63350379  1
  O  O299  1  0.25222626  0.25770313  0.11706603  1
  O  O300  1  0.26124358  0.24498102  0.60936106  1
  O  O301  1  0.25665400  0.75411501  0.11852443  1
  O  O302  1  0.25524637  0.75760515  0.62703919  1
  O  O303  1  0.75533537  0.25390914  0.11928609  1
  O  O304  1  0.74279306  0.26621959  0.62991845  1
  O  O305  1  0.74643356  0.76326687  0.12059828  1
  O  O306  1  0.76063221  0.75622532  0.62389207  1
  O  O307  1  0.25266490  0.23844010  0.38484606  1
  O  O308  1  0.24410207  0.24378692  0.88096961  1
  O  O309  1  0.23828297  0.74928185  0.37591106  1
  O  O310  1  0.24383902  0.74769784  0.87962865  1
  O  O311  1  0.74321684  0.23969212  0.37073531  1
  O  O312  1  0.73764874  0.25851467  0.88361030  1
  O  O313  1  0.73536330  0.76124123  0.37575255  1
  O  O314  1  0.75044836  0.73755330  0.88258003  1
  O  O315  1  0.01154322  0.12384690  0.00026286  1
  O  O316  1  0.01023556  0.11561092  0.50491374  1
  O  O317  1  0.00693101  0.61444229  -0.00153626  1
  O  O318  1  0.00278136  0.61060506  0.50169585  1
  O  O319  1  0.50115335  0.12948823  0.01372520  1
  O  O320  1  0.50833451  0.11733350  0.49953377  1
  O  O321  1  0.49456201  0.61354953  0.01027229  1
  O  O322  1  0.49826337  0.61922865  0.51054068  1
  O  O323  1  0.49058349  0.38132584  0.49130400  1
  O  O324  1  0.49832074  0.38678308  0.99263665  1
  O  O325  1  0.49252518  0.88287317  0.49867140  1
  O  O326  1  0.50004356  0.87018393  0.98914222  1
  O  O327  1  1.00213668  0.38344436  0.48756542  1
  O  O328  1  0.99001181  0.38172968  1.00625762  1
  O  O329  1  0.99007184  0.88069374  0.49543821  1
  O  O330  1  1.00568632  0.87877910  0.98752776  1
  O  O331  1  0.49371868  0.49479173  0.37718083  1
  O  O332  1  0.49232610  0.49418801  0.88160490  1
  O  O333  1  0.49122047  1.00019217  0.38400164  1
  O  O334  1  0.49222203  0.99008654  0.86942366  1
  O  O335  1  1.00673629  0.49023582  0.38749464  1
  O  O336  1  0.99060608  0.50183235  0.88205562  1
  O  O337  1  0.99311932  0.99376438  0.38437849  1
  O  O338  1  0.98615327  0.99031147  0.87466001  1
  O  O339  1  0.00001975  0.01566186  0.12205944  1
  O  O340  1  -0.00318841  0.00051706  0.61372663  1
  O  O341  1  0.01211752  0.50814321  0.11543651  1
  O  O342  1  0.00640091  0.49717498  0.61252352  1
  O  O343  1  0.50917965  0.00926916  0.13144932  1
  O  O344  1  0.49304450  0.00249747  0.61226985  1
  O  O345  1  0.50492932  0.50397104  0.11747981  1
  O  O346  1  0.50221492  0.50603262  0.62432789  1
  O  O347  1  0.24416751  0.38349886  0.24207362  1
  O  O348  1  0.24507961  0.38642108  0.75123760  1
  O  O349  1  0.25497545  0.87110727  0.23293423  1
  O  O350  1  0.24301895  0.88059157  0.74511052  1
  O  O351  1  0.75122685  0.37017487  0.24126265  1
  O  O352  1  0.73252041  0.38146619  0.74393813  1
  O  O353  1  0.74263824  0.88761571  0.24511062  1
  O  O354  1  0.74817023  0.87804654  0.74165174  1
  O  O355  1  0.25848740  0.13146567  0.25896876  1
  O  O356  1  0.25410068  0.11718472  0.75210723  1
  O  O357  1  0.24735592  0.61183537  0.24990218  1
  O  O358  1  0.25470710  0.61550375  0.75622090  1
  O  O359  1  0.74458547  0.11323658  0.26096080  1
  O  O360  1  0.75188040  0.11234104  0.74357418  1
  O  O361  1  0.74346650  0.62259326  0.26260701  1
  O  O362  1  0.76074390  0.62454539  0.75865144  1
  O  O363  1  0.36973721  0.11934506  0.37040225  1
  O  O364  1  0.36901839  0.12074848  0.86728727  1
  O  O365  1  0.37709919  0.61140482  0.37839524  1
  O  O366  1  0.36842341  0.61648001  0.86977484  1
  O  O367  1  0.86800115  0.11812063  0.38391134  1
  O  O368  1  0.87798236  0.11610437  0.87305437  1
  O  O369  1  0.87457851  0.61485851  0.37319479  1
  O  O370  1  0.86600495  0.61585354  0.87213166  1
  O  O371  1  0.13361613  0.38240658  0.13000066  1
  O  O372  1  0.12301647  0.38349570  0.63565696  1
  O  O373  1  0.14221142  0.87621016  0.12478289  1
  O  O374  1  0.13482526  0.86788649  0.63259186  1
  O  O375  1  0.63656201  0.37807485  0.12337814  1
  O  O376  1  0.62512235  0.38059785  0.63134483  1
  O  O377  1  0.62997612  0.88346329  0.13520531  1
  O  O378  1  0.64008807  0.87076169  0.62386704  1
  O  O379  1  0.13115563  0.26542297  0.25080375  1
  O  O380  1  0.13248350  0.26348139  0.75378806  1
  O  O381  1  0.12771957  0.75765099  0.26392479  1
  O  O382  1  0.11996880  0.75892822  0.75773925  1
  O  O383  1  0.61549184  0.24296668  0.26123035  1
  O  O384  1  0.62261868  0.25782706  0.75923698  1
  O  O385  1  0.61530336  0.75913120  0.25376432  1
  O  O386  1  0.61152881  0.75038171  0.75187458  1
  O  O387  1  0.38063218  0.24510897  0.24268719  1
  O  O388  1  0.36679883  0.24068196  0.73989127  1
  O  O389  1  0.38780613  0.75566168  0.24245521  1
  O  O390  1  0.38400792  0.74641408  0.74659917  1
  O  O391  1  0.87519510  0.24847925  0.23424325  1
  O  O392  1  0.87648292  0.25643176  0.74132921  1
  O  O393  1  0.87324697  0.74005895  0.23857214  1
  O  O394  1  0.87887721  0.74289799  0.74407329  1
  O  O395  1  0.37564363  0.49240582  0.49476786  1
  O  O396  1  0.37850849  0.50196393  0.98768767  1
  O  O397  1  0.38072288  0.99588957  0.49150808  1
  O  O398  1  0.37059753  1.00163541  0.98374288  1
  O  O399  1  0.88753901  0.49165346  0.50585262  1
  O  O400  1  0.88589900  0.49309196  0.99792208  1
  O  O401  1  0.88160653  0.99248428  0.49115856  1
  O  O402  1  0.87378810  1.00131735  0.98222736  1
  O  O403  1  0.12425634  0.00974379  0.00422433  1
  O  O404  1  0.11598982  0.00670030  0.49541515  1
  O  O405  1  0.11892557  0.49236358  0.00787127  1
  O  O406  1  0.11873021  0.49855307  0.50770753  1
  O  O407  1  0.63168596  0.00141343  0.01261635  1
  O  O408  1  0.61527041  0.00962292  0.49347759  1
  O  O409  1  0.61315316  0.49557620  0.00540491  1
  O  O410  1  0.61062997  0.50221250  0.51562153  1
  O  O411  1  0.36185989  0.37025210  0.12715853  1
  O  O412  1  0.37789683  0.36858515  0.61372121  1
  O  O413  1  0.36862018  0.86595787  0.12145229  1
  O  O414  1  0.36363280  0.87141652  0.62282975  1
  O  O415  1  0.86734147  0.36582400  0.11697958  1
  O  O416  1  0.85462469  0.38371218  0.63096550  1
  O  O417  1  0.86481152  0.88029434  0.12988151  1
  O  O418  1  0.87015424  0.86694661  0.61844324  1
  O  O419  1  0.13304765  0.12688169  0.38418938  1
  O  O420  1  0.12948224  0.13053946  0.87937071  1
  O  O421  1  0.12319018  0.63637035  0.37227419  1
  O  O422  1  0.13110739  0.63597785  0.86427438  1
  O  O423  1  0.63224016  0.13128449  0.38217041  1
  O  O424  1  0.61497839  0.13902583  0.87673107  1
  O  O425  1  0.61913864  0.63667355  0.37817927  1
  O  O426  1  0.64109973  0.62407933  0.87163581  1
