# generated using pymatgen
data_V85Zn86O256
_symmetry_space_group_name_H-M   'P 1'
_cell_length_a   16.95310291
_cell_length_b   16.96341564
_cell_length_c   16.95749958
_cell_angle_alpha   89.98489011
_cell_angle_beta   90.02568149
_cell_angle_gamma   89.88136817
_symmetry_Int_Tables_number   1
_chemical_formula_structural   V85Zn86O256
_chemical_formula_sum   'V85 Zn86 O256'
_cell_volume   4876.66953812
_cell_formula_units_Z   1
loop_
 _symmetry_equiv_pos_site_id
 _symmetry_equiv_pos_as_xyz
  1  'x, y, z'
loop_
 _atom_site_type_symbol
 _atom_site_label
 _atom_site_symmetry_multiplicity
 _atom_site_fract_x
 _atom_site_fract_y
 _atom_site_fract_z
 _atom_site_occupancy
  V  V0  1  0.87372273  0.37448640  -0.00185441  1
  V  V1  1  0.12012252  0.87560191  0.75142724  1
  V  V2  1  0.74906262  0.13024224  0.37115011  1
  V  V3  1  0.87347774  -0.00022274  0.37145926  1
  V  V4  1  0.11094864  0.08013828  -0.01838369  1
  V  V5  1  0.49454172  0.75442413  0.74327266  1
  V  V6  1  0.37432755  0.24953372  0.62748358  1
  V  V7  1  0.12000810  0.00649919  0.62358794  1
  V  V8  1  0.24989359  0.62718235  0.87715246  1
  V  V9  1  0.87379718  0.87863517  0.50359820  1
  V  V10  1  0.88808620  0.88106669  -0.01150562  1
  V  V11  1  0.62168650  0.37413732  0.24861438  1
  V  V12  1  0.75196520  0.00026725  0.24737830  1
  V  V13  1  0.37394601  0.87634736  0.50185054  1
  V  V14  1  0.25492857  0.37842965  0.62672981  1
  V  V15  1  0.49222139  0.62718895  0.62210513  1
  V  V16  1  0.49438227  0.00204850  0.00595564  1
  V  V17  1  0.75282778  0.50835493  0.24631292  1
  V  V18  1  0.37307629  0.62820523  0.75264857  1
  V  V19  1  0.25860921  -0.01929100  0.24784603  1
  V  V20  1  0.00666669  0.11373654  0.12100722  1
  V  V21  1  0.37707685  0.22944877  0.11969219  1
  V  V22  1  0.38572470  0.64136876  0.25298730  1
  V  V23  1  0.50657188  0.12002259  0.62620010  1
  V  V24  1  0.87813434  0.24756234  0.12469259  1
  V  V25  1  0.74488674  0.76263751  0.50118290  1
  V  V26  1  0.87948566  0.12568056  0.24615537  1
  V  V27  1  0.24968670  0.24939491  0.49616064  1
  V  V28  1  0.87074843  0.75477298  0.62542318  1
  V  V29  1  0.00494401  0.37102327  0.37269502  1
  V  V30  1  0.50052309  0.49701804  0.49209426  1
  V  V31  1  0.01466043  0.24979021  0.24968638  1
  V  V32  1  0.87540906  0.62747946  0.74758851  1
  V  V33  1  0.74877886  0.37381801  0.12431463  1
  V  V34  1  0.37047284  0.12489927  0.75022297  1
  V  V35  1  0.12620478  0.75366524  0.37310675  1
  V  V36  1  0.61665416  0.75218313  0.37179188  1
  V  V37  1  0.87466675  0.50043853  0.87393866  1
  V  V38  1  0.88194379  0.12239489  0.73045330  1
  V  V39  1  0.12495102  0.50591364  0.62605239  1
  V  V40  1  0.25174226  0.75059613  0.01771764  1
  V  V41  1  0.74956210  0.24791660  -0.00267430  1
  V  V42  1  0.49489288  0.88192990  0.37210673  1
  V  V43  1  0.13034141  0.25764370  0.88649638  1
  V  V44  1  0.37148940  0.86810032  0.01605545  1
  V  V45  1  0.37559135  0.39432540  0.00343089  1
  V  V46  1  0.13780760  0.49699405  0.13194806  1
  V  V47  1  0.50026350  0.22951129  0.24310516  1
  V  V48  1  0.74828440  0.75252741  -0.00368727  1
  V  V49  1  0.49877380  0.87296413  0.87416223  1
  V  V50  1  -0.00078244  0.50228911  0.00430279  1
  V  V51  1  0.50014514  0.24696978  0.75530948  1
  V  V52  1  0.25012605  0.50103688  0.75400626  1
  V  V53  1  0.12780958  0.62819856  0.49700961  1
  V  V54  1  0.61669189  0.87457879  0.24968874  1
  V  V55  1  0.00273505  0.87636698  0.37187274  1
  V  V56  1  0.75452263  0.25066763  0.50657229  1
  V  V57  1  0.62091683  0.12390994  -0.00315103  1
  V  V58  1  0.25219156  0.86978407  0.62508419  1
  V  V59  1  -0.00734194  0.74241049  0.25349881  1
  V  V60  1  0.00269026  0.37768132  0.87277960  1
  V  V61  1  0.61479186  0.62027658  -0.00507553  1
  V  V62  1  -0.00368550  0.75573250  0.75816549  1
  V  V63  1  0.25447871  0.62255398  0.36323070  1
  V  V64  1  0.12163706  0.62580243  0.00551448  1
  V  V65  1  0.26185671  0.11495659  0.37547410  1
  V  V66  1  0.37768319  0.37984657  0.50558759  1
  V  V67  1  -0.00483936  0.50127919  0.49809722  1
  V  V68  1  0.12098599  0.36520347  0.74096647  1
  V  V69  1  0.11837943  0.13122114  0.49351674  1
  V  V70  1  0.76522212  0.11270903  0.87654097  1
  V  V71  1  0.50246455  0.00258273  0.49964893  1
  V  V72  1  0.61550918  0.49802716  0.11494938  1
  V  V73  1  0.36942534  -0.00420758  0.87651343  1
  V  V74  1  0.62232129  0.00403217  0.12369497  1
  V  V75  1  0.75069448  0.87559020  0.12186655  1
  V  V76  1  0.86770561  0.74112710  0.13147093  1
  V  V77  1  0.62621144  0.62410059  0.49809774  1
  V  V78  1  0.75540577  0.62777624  0.36980685  1
  V  V79  1  0.62787227  0.49773481  0.62261527  1
  V  V80  1  0.74911521  0.62628777  0.87147144  1
  V  V81  1  0.75092957  0.49941094  0.74691202  1
  V  V82  1  0.31638470  0.43982482  0.31848306  1
  V  V83  1  0.25074760  0.13008260  0.87937678  1
  V  V84  1  0.62523567  0.36906679  0.74890327  1
  Zn  Zn85  1  0.48754755  0.63545626  0.11911887  1
  Zn  Zn86  1  0.74838861  -0.00591371  0.73639129  1
  Zn  Zn87  1  -0.00821832  0.61958997  0.13477245  1
  Zn  Zn88  1  0.62331741  0.75197390  0.86961635  1
  Zn  Zn89  1  0.49818833  0.40080855  0.88781119  1
  Zn  Zn90  1  0.49745443  0.37259817  0.36829821  1
  Zn  Zn91  1  0.12083554  0.75293540  0.87935297  1
  Zn  Zn92  1  0.26117620  0.74517843  0.50258627  1
  Zn  Zn93  1  0.87900717  0.36942707  0.50323900  1
  Zn  Zn94  1  0.62441713  0.24963900  0.87514809  1
  Zn  Zn95  1  0.25027560  0.26342221  0.01409012  1
  Zn  Zn96  1  0.87688283  0.50168228  0.36823484  1
  Zn  Zn97  1  0.62306783  0.25098823  0.37569660  1
  Zn  Zn98  1  0.12628302  -0.01915557  0.14063394  1
  Zn  Zn99  1  -0.00038627  0.62923491  0.62413850  1
  Zn  Zn100  1  0.62990866  0.12214122  0.50384819  1
  Zn  Zn101  1  0.13640558  0.37776112  0.25043784  1
  Zn  Zn102  1  -0.00186468  0.00562755  0.50079509  1
  Zn  Zn103  1  0.62729536  0.88190620  0.73434600  1
  Zn  Zn104  1  0.24783135  0.00067251  0.74808877  1
  Zn  Zn105  1  0.76111521  0.36553742  0.62942376  1
  Zn  Zn106  1  -0.01135411  0.24830530  0.74634358  1
  Zn  Zn107  1  0.18657606  0.17439209  0.17971080  1
  Zn  Zn108  1  0.17254247  0.19698819  0.68513897  1
  Zn  Zn109  1  0.18330088  0.80628744  0.19409446  1
  Zn  Zn110  1  0.18617449  0.69196636  0.68724285  1
  Zn  Zn111  1  0.68565629  0.18674960  0.18435452  1
  Zn  Zn112  1  0.69236994  0.17582198  0.68973691  1
  Zn  Zn113  1  0.65367109  0.69833137  0.17195483  1
  Zn  Zn114  1  0.68177185  0.69689408  0.68363802  1
  Zn  Zn115  1  0.29216790  0.26040683  0.28556402  1
  Zn  Zn116  1  0.31407467  0.31625457  0.82200603  1
  Zn  Zn117  1  0.31805915  0.80722388  0.32202916  1
  Zn  Zn118  1  0.30986770  0.81111965  0.81338148  1
  Zn  Zn119  1  0.81793836  0.31518343  0.31356582  1
  Zn  Zn120  1  0.81306352  0.30667443  0.81102939  1
  Zn  Zn121  1  0.80741374  0.81449735  0.31276353  1
  Zn  Zn122  1  0.80853048  0.82019342  0.81162728  1
  Zn  Zn123  1  0.18067829  0.43504216  0.44172166  1
  Zn  Zn124  1  0.19188175  0.43985652  0.94088726  1
  Zn  Zn125  1  0.18782663  0.94035565  0.43849942  1
  Zn  Zn126  1  0.18330437  0.93030250  0.93644866  1
  Zn  Zn127  1  0.68928341  0.43442623  0.43294152  1
  Zn  Zn128  1  0.68527257  0.43525383  0.93245481  1
  Zn  Zn129  1  0.68008211  0.94426559  0.57660157  1
  Zn  Zn130  1  0.68514289  0.93618895  0.93249478  1
  Zn  Zn131  1  0.30207356  0.05893945  0.06204226  1
  Zn  Zn132  1  0.31233295  0.05806256  0.56191069  1
  Zn  Zn133  1  0.31200522  0.56788579  0.07057818  1
  Zn  Zn134  1  0.31288077  0.56377439  0.56162641  1
  Zn  Zn135  1  0.81599120  0.05931376  0.05895366  1
  Zn  Zn136  1  0.81898679  0.06971980  0.55740455  1
  Zn  Zn137  1  0.80489530  0.56247208  0.06038691  1
  Zn  Zn138  1  0.81153771  0.56714855  0.56003396  1
  Zn  Zn139  1  0.43932657  0.43241711  0.17425404  1
  Zn  Zn140  1  0.44980828  0.45116498  0.71318663  1
  Zn  Zn141  1  0.43235875  0.94817012  0.19117168  1
  Zn  Zn142  1  0.43444623  0.93923419  0.68629910  1
  Zn  Zn143  1  0.93603859  0.43416541  0.18856075  1
  Zn  Zn144  1  0.93581715  0.43794493  0.68277036  1
  Zn  Zn145  1  0.93977087  0.92776002  0.18346690  1
  Zn  Zn146  1  0.93485438  0.94156786  0.68901575  1
  Zn  Zn147  1  0.06869039  0.06159226  0.31268726  1
  Zn  Zn148  1  0.06291448  0.06576972  0.80953933  1
  Zn  Zn149  1  0.06409358  0.56344207  0.31379921  1
  Zn  Zn150  1  0.06309253  0.56596117  0.81370243  1
  Zn  Zn151  1  0.56562563  0.05688007  0.31744902  1
  Zn  Zn152  1  0.56421910  0.05849821  0.81477561  1
  Zn  Zn153  1  0.56746123  0.56057983  0.30971677  1
  Zn  Zn154  1  0.56384181  0.56468544  0.80895062  1
  Zn  Zn155  1  0.43987819  0.19225370  0.43697701  1
  Zn  Zn156  1  0.43661095  0.18742351  0.93800661  1
  Zn  Zn157  1  0.43571070  0.68915693  0.43607057  1
  Zn  Zn158  1  0.43201152  0.68860433  0.93359637  1
  Zn  Zn159  1  0.93739032  0.19019597  0.43278918  1
  Zn  Zn160  1  0.94423634  0.18947668  0.93646659  1
  Zn  Zn161  1  0.93587061  0.68805674  0.43892094  1
  Zn  Zn162  1  0.93347776  0.69109413  0.93955809  1
  Zn  Zn163  1  0.06193591  0.31610201  0.06769716  1
  Zn  Zn164  1  0.06317656  0.31486702  0.56465023  1
  Zn  Zn165  1  0.05727152  0.80794573  0.06622250  1
  Zn  Zn166  1  0.05938196  0.81526310  0.56362562  1
  Zn  Zn167  1  0.55482773  0.31124668  0.06158218  1
  Zn  Zn168  1  0.56657575  0.30745928  0.56390332  1
  Zn  Zn169  1  0.55950751  0.81114979  0.06123319  1
  Zn  Zn170  1  0.55283992  0.80841411  0.55653369  1
  O  O171  1  0.11779563  0.11812130  0.10935877  1
  O  O172  1  0.13288081  0.11224597  0.61538262  1
  O  O173  1  0.11452823  0.61022331  0.11151022  1
  O  O174  1  0.12525021  0.61937869  0.61737302  1
  O  O175  1  0.63298191  0.11166426  0.11179389  1
  O  O176  1  0.60907545  0.13094871  0.62465317  1
  O  O177  1  0.64455587  0.60721267  0.10356431  1
  O  O178  1  0.61705247  0.61860779  0.61770285  1
  O  O179  1  0.37622100  0.38302068  0.38300922  1
  O  O180  1  0.38156614  0.36985339  0.89549702  1
  O  O181  1  0.38876411  0.87332082  0.38145507  1
  O  O182  1  0.38048433  0.88027848  0.88147753  1
  O  O183  1  0.88839339  0.38060446  0.37978890  1
  O  O184  1  0.88163231  0.37929874  0.87885563  1
  O  O185  1  0.87658918  0.88267979  0.38415531  1
  O  O186  1  0.87368327  0.86948565  0.88965626  1
  O  O187  1  0.25004325  0.01088117  0.36924948  1
  O  O188  1  0.25921049  0.00291181  0.87502103  1
  O  O189  1  0.25377340  0.50115406  0.37575611  1
  O  O190  1  0.24140051  0.51517484  0.86588694  1
  O  O191  1  0.76528123  0.01074535  0.36548935  1
  O  O192  1  0.75195489  0.01301622  0.88066350  1
  O  O193  1  0.74910653  0.50939940  0.36583396  1
  O  O194  1  0.75496063  0.50619542  0.86719817  1
  O  O195  1  0.23571235  0.50206655  0.12565645  1
  O  O196  1  0.24167854  0.50046831  0.63068781  1
  O  O197  1  0.25455535  0.99716861  0.14534189  1
  O  O198  1  0.23777729  0.99022246  0.62508999  1
  O  O199  1  0.74483225  0.49013480  0.12892435  1
  O  O200  1  0.73938230  0.50298836  0.62695521  1
  O  O201  1  0.74317363  0.99492370  0.12725104  1
  O  O202  1  0.74466093  1.02062660  0.62215346  1
  O  O203  1  0.00003098  0.36548166  0.25531975  1
  O  O204  1  0.00210086  0.38320561  0.76385435  1
  O  O205  1  -0.01123685  0.86232487  0.26690694  1
  O  O206  1  0.00604981  0.86768479  0.74389844  1
  O  O207  1  0.51354844  0.37457056  0.24586282  1
  O  O208  1  0.51278978  0.35584439  0.73449158  1
  O  O209  1  0.50905130  0.88612486  0.25494000  1
  O  O210  1  0.49520323  0.86870361  0.75603678  1
  O  O211  1  0.50779260  0.13159530  0.24998814  1
  O  O212  1  0.49284316  0.12874338  0.74430264  1
  O  O213  1  0.48663574  0.62017923  0.25693976  1
  O  O214  1  0.48977678  0.63317356  0.74088638  1
  O  O215  1  1.00022435  0.13227780  0.24373675  1
  O  O216  1  0.98621769  0.12672766  0.75579431  1
  O  O217  1  0.99653086  0.63761011  0.25563093  1
  O  O218  1  0.99294748  0.63280850  0.74690015  1
  O  O219  1  0.37623712  0.24676233  0.01317035  1
  O  O220  1  0.37123797  0.26238073  0.50637763  1
  O  O221  1  0.36139161  0.75197816  0.00127828  1
  O  O222  1  0.37745058  0.76716378  0.49740213  1
  O  O223  1  0.86954642  0.25497271  0.00370701  1
  O  O224  1  0.85968103  0.24889266  0.49337176  1
  O  O225  1  0.86126360  0.75384808  0.00612255  1
  O  O226  1  0.86741691  0.75841927  0.50513741  1
  O  O227  1  0.13296978  0.23705485  0.50809040  1
  O  O228  1  0.13184130  0.26607102  0.99243783  1
  O  O229  1  0.12070437  0.73833270  0.49355459  1
  O  O230  1  0.13299147  0.74190815  1.00074940  1
  O  O231  1  0.63595828  0.24475129  0.49432959  1
  O  O232  1  0.63151953  0.24089304  1.00109882  1
  O  O233  1  0.63067999  0.74457650  0.49082004  1
  O  O234  1  0.63667972  0.74112576  0.99174284  1
  O  O235  1  0.49537230  0.24337854  0.13457511  1
  O  O236  1  0.49195510  0.23892364  0.63075648  1
  O  O237  1  0.54543601  0.73037928  0.13445190  1
  O  O238  1  0.49861703  0.73649341  0.62940943  1
  O  O239  1  0.99589614  0.24190051  0.12990305  1
  O  O240  1  1.06753576  0.27169280  0.66878834  1
  O  O241  1  0.98564359  0.74275438  0.13683955  1
  O  O242  1  0.98578873  0.74991853  0.62916644  1
  O  O243  1  -0.00125463  0.25759420  0.36223581  1
  O  O244  1  0.01249630  0.26144519  0.87194993  1
  O  O245  1  0.00338262  0.75591759  0.37321287  1
  O  O246  1  -0.00012524  0.74462656  0.86140909  1
  O  O247  1  0.50084893  0.25143097  0.35803422  1
  O  O248  1  0.50308789  0.24389743  0.86100035  1
  O  O249  1  0.51213725  0.75740026  0.37960922  1
  O  O250  1  0.49656327  0.75815051  0.86565546  1
  O  O251  1  0.24378780  0.12921222  0.49395633  1
  O  O252  1  0.23126389  0.11670531  0.98756716  1
  O  O253  1  0.24362489  0.62510479  0.49213438  1
  O  O254  1  0.24431656  0.63303645  0.99654768  1
  O  O255  1  0.75131868  0.13553157  0.48679851  1
  O  O256  1  0.74640904  0.12963427  0.99332841  1
  O  O257  1  0.74251037  0.63351253  0.49115289  1
  O  O258  1  0.74569123  0.62944194  0.98382308  1
  O  O259  1  0.26690487  0.37845051  -0.00109317  1
  O  O260  1  0.25656604  0.37058871  0.50589154  1
  O  O261  1  0.25632749  0.85661140  -0.00487096  1
  O  O262  1  0.25751978  0.87543614  0.50490822  1
  O  O263  1  0.75298349  0.36603870  0.00151555  1
  O  O264  1  0.75038247  0.36045176  0.49804465  1
  O  O265  1  0.74953454  0.86623958  0.00267610  1
  O  O266  1  0.75572308  0.86575132  0.49843225  1
  O  O267  1  0.11978807  0.50146995  0.23515169  1
  O  O268  1  0.12994663  0.49650031  0.74141733  1
  O  O269  1  0.15098821  1.01235519  0.25230659  1
  O  O270  1  0.12491809  0.99539414  0.73836196  1
  O  O271  1  0.63357021  0.49170468  0.23972871  1
  O  O272  1  0.63458397  0.49210772  0.73972188  1
  O  O273  1  0.63041507  0.99511737  0.24085136  1
  O  O274  1  0.63093396  0.99571678  0.75498001  1
  O  O275  1  0.35755785  0.00132782  0.25819775  1
  O  O276  1  0.37153171  0.00654261  0.76042735  1
  O  O277  1  0.37460875  0.49100662  0.25448147  1
  O  O278  1  0.35417396  0.51235521  0.73906221  1
  O  O279  1  0.87302224  0.00395552  0.25271841  1
  O  O280  1  0.87093762  0.01627155  0.74589459  1
  O  O281  1  0.85786166  0.49515041  0.24807249  1
  O  O282  1  0.86957273  0.50753081  0.75433439  1
  O  O283  1  0.11146563  0.38147201  0.36860317  1
  O  O284  1  0.11715167  0.37769487  0.87007301  1
  O  O285  1  0.11491355  0.86664565  0.38476549  1
  O  O286  1  0.13107902  0.86956953  0.85554640  1
  O  O287  1  0.62268890  0.37179648  0.36191447  1
  O  O288  1  0.61879782  0.37218911  0.86138272  1
  O  O289  1  0.61236960  0.86868511  0.36458657  1
  O  O290  1  0.60584636  0.87328393  0.87853714  1
  O  O291  1  0.37850635  0.13003419  0.11647074  1
  O  O292  1  0.37583762  0.13079868  0.63235414  1
  O  O293  1  0.37579233  0.62169884  0.14736864  1
  O  O294  1  0.38437090  0.62104609  0.63240021  1
  O  O295  1  0.88385313  0.12875638  0.12660660  1
  O  O296  1  0.88483172  0.12956527  0.63174977  1
  O  O297  1  0.86971839  0.63724072  0.11893622  1
  O  O298  1  0.87590292  0.63470911  0.63076319  1
  O  O299  1  0.26894983  0.24123609  0.12951478  1
  O  O300  1  0.25545583  0.25642253  0.61699435  1
  O  O301  1  0.24591396  0.74511657  0.11588646  1
  O  O302  1  0.24151153  0.76460634  0.61854200  1
  O  O303  1  0.75516749  0.25225562  0.11360909  1
  O  O304  1  0.74545617  0.24459383  0.60934692  1
  O  O305  1  0.74909852  0.75562011  0.11591660  1
  O  O306  1  0.76195003  0.74352916  0.61462394  1
  O  O307  1  0.25232334  0.24619722  0.39410038  1
  O  O308  1  0.25352748  0.24203340  0.89206830  1
  O  O309  1  0.24126718  0.74099637  0.38052825  1
  O  O310  1  0.24537583  0.73737319  0.87866651  1
  O  O311  1  0.74981254  0.24312570  0.37659055  1
  O  O312  1  0.74840820  0.24267926  0.88732347  1
  O  O313  1  0.74187041  0.74640064  0.38323105  1
  O  O314  1  0.74841967  0.74135245  0.87923557  1
  O  O315  1  0.01319750  0.12707422  0.00621592  1
  O  O316  1  0.01405209  0.12747791  0.49488035  1
  O  O317  1  0.00466855  0.61814577  -0.00138195  1
  O  O318  1  0.00826081  0.61828237  0.49955458  1
  O  O319  1  0.50962297  0.11391144  -0.00737587  1
  O  O320  1  0.49750290  0.12043374  0.50832812  1
  O  O321  1  0.51127460  0.62998466  -0.00399073  1
  O  O322  1  0.50292572  0.61669032  0.50533411  1
  O  O323  1  0.49389251  0.37893042  0.50002808  1
  O  O324  1  0.48944317  0.37745499  0.99812125  1
  O  O325  1  0.49377527  0.88341148  0.49207799  1
  O  O326  1  0.49113271  0.87805938  0.99392774  1
  O  O327  1  1.00411612  0.38231708  0.49325348  1
  O  O328  1  0.99459072  0.38278733  0.99078384  1
  O  O329  1  0.99008674  0.87654656  0.48869693  1
  O  O330  1  0.98651528  0.86220364  0.99673613  1
  O  O331  1  0.50908748  0.49676812  0.39006859  1
  O  O332  1  0.48764823  0.48742131  0.81871064  1
  O  O333  1  0.50064256  0.99278879  0.38388650  1
  O  O334  1  0.48705492  0.99453568  0.88518170  1
  O  O335  1  0.99785559  0.49594260  0.38216001  1
  O  O336  1  0.99561349  0.49690134  0.88500087  1
  O  O337  1  0.99165592  0.99402050  0.37265084  1
  O  O338  1  1.07030283  1.01598492  0.91107114  1
  O  O339  1  0.00195630  0.01177468  0.13537306  1
  O  O340  1  0.01637679  -0.00559756  0.61968492  1
  O  O341  1  -0.00588900  0.50117655  0.11291726  1
  O  O342  1  0.00966718  0.50431937  0.61740295  1
  O  O343  1  0.50639032  -0.00323622  0.11315280  1
  O  O344  1  0.49088271  0.01249609  0.61842251  1
  O  O345  1  0.51469335  0.51090324  0.12851898  1
  O  O346  1  0.51245884  0.50663731  0.62051554  1
  O  O347  1  0.25710781  0.37134648  0.26822688  1
  O  O348  1  0.24781018  0.38552831  0.74629527  1
  O  O349  1  0.25236528  0.87594648  0.25732960  1
  O  O350  1  0.24310478  0.87590762  0.74107855  1
  O  O351  1  0.74017796  0.37702680  0.24306855  1
  O  O352  1  0.74262726  0.37769893  0.74957044  1
  O  O353  1  0.74193999  0.88424815  0.24361967  1
  O  O354  1  0.74310445  0.87897848  0.74865549  1
  O  O355  1  0.25073932  0.14780085  0.27485359  1
  O  O356  1  0.25137108  0.12434609  0.76406258  1
  O  O357  1  0.26253123  0.62342102  0.26399446  1
  O  O358  1  0.25278928  0.62409941  0.75570516  1
  O  O359  1  0.75758673  0.12132887  0.25171174  1
  O  O360  1  0.76310621  0.12559650  0.76482282  1
  O  O361  1  0.73652168  0.61573824  0.25745487  1
  O  O362  1  0.75192100  0.62344450  0.75693976  1
  O  O363  1  0.35971196  0.12619851  0.38645527  1
  O  O364  1  0.36753854  0.11639099  0.87354057  1
  O  O365  1  0.36920731  0.62613873  0.36733945  1
  O  O366  1  0.36621573  0.62599173  0.86140110  1
  O  O367  1  0.87088639  0.11889672  0.36587906  1
  O  O368  1  0.86553021  0.12435281  0.88413393  1
  O  O369  1  0.85898065  0.62514597  0.37852460  1
  O  O370  1  0.86711049  0.62080225  0.86856600  1
  O  O371  1  0.12106268  0.39201564  0.12932154  1
  O  O372  1  0.13709043  0.39476788  0.62109950  1
  O  O373  1  0.10859476  0.86909523  0.14168077  1
  O  O374  1  0.12990264  0.88389083  0.62983935  1
  O  O375  1  0.62974138  0.38048072  0.12618754  1
  O  O376  1  0.63162979  0.38125624  0.63220245  1
  O  O377  1  0.63003431  0.88714542  0.12862479  1
  O  O378  1  0.62477995  0.86065589  0.62118799  1
  O  O379  1  0.11687840  0.25354729  0.23883523  1
  O  O380  1  0.15755429  0.26278583  0.78069796  1
  O  O381  1  0.11440632  0.74688556  0.26823860  1
  O  O382  1  0.11198675  0.75789445  0.74618012  1
  O  O383  1  0.61474188  0.25511433  0.24566004  1
  O  O384  1  0.62140640  0.25323141  0.74990958  1
  O  O385  1  0.63885150  0.76657645  0.26224575  1
  O  O386  1  0.60669441  0.74990678  0.75222946  1
  O  O387  1  0.39347585  0.25037832  0.23407132  1
  O  O388  1  0.38098665  0.24534579  0.74821785  1
  O  O389  1  0.38132094  0.74044788  0.25327207  1
  O  O390  1  0.38297683  0.74263698  0.75054968  1
  O  O391  1  0.88246277  0.24358265  0.24198976  1
  O  O392  1  0.87579101  0.23160941  0.75451505  1
  O  O393  1  0.87671455  0.75288475  0.24312188  1
  O  O394  1  0.87830794  0.74872911  0.74236706  1
  O  O395  1  0.38532015  0.48802233  0.50938095  1
  O  O396  1  0.37594582  0.49472268  1.00864800  1
  O  O397  1  0.38470416  0.98753186  0.50342268  1
  O  O398  1  0.37739441  0.99165114  0.99624625  1
  O  O399  1  0.88850012  0.50381917  0.49950849  1
  O  O400  1  0.87860557  0.49536452  0.99295100  1
  O  O401  1  0.87847462  0.99534361  0.48972892  1
  O  O402  1  0.87670717  0.98038387  1.00636750  1
  O  O403  1  0.14806498  -0.00754389  0.02631847  1
  O  O404  1  0.12311655  0.01146159  0.50736104  1
  O  O405  1  0.11597777  0.50394876  0.00670457  1
  O  O406  1  0.11709329  0.51136502  0.50526830  1
  O  O407  1  0.61584289  0.00391938  0.00439057  1
  O  O408  1  0.60756585  0.00467307  0.50195522  1
  O  O409  1  0.62666542  0.50554371  0.00175620  1
  O  O410  1  0.62113947  0.50152147  0.50588294  1
  O  O411  1  0.38108874  0.36245754  0.10820187  1
  O  O412  1  0.37150356  0.37083257  0.62126451  1
  O  O413  1  0.38205887  0.87598409  0.11433179  1
  O  O414  1  0.36277474  0.87912238  0.61825650  1
  O  O415  1  0.86904127  0.36766794  0.11675530  1
  O  O416  1  0.87363392  0.37490360  0.61799594  1
  O  O417  1  0.86702432  0.86177161  0.11810218  1
  O  O418  1  0.87860055  0.87151985  0.61097669  1
  O  O419  1  0.13460658  0.12231327  0.39166482  1
  O  O420  1  0.13186985  0.14195668  0.88080988  1
  O  O421  1  0.13350834  0.62922117  0.38149279  1
  O  O422  1  0.12993327  0.62666696  0.88808342  1
  O  O423  1  0.64111265  0.12495935  0.37246717  1
  O  O424  1  0.63574575  0.12598368  0.88655929  1
  O  O425  1  0.63088711  0.63336578  0.37905676  1
  O  O426  1  0.63153570  0.62436980  0.87752567  1
