# generated using pymatgen
data_V85Zn86O256
_symmetry_space_group_name_H-M   'P 1'
_cell_length_a   16.95739554
_cell_length_b   16.97169858
_cell_length_c   16.94507486
_cell_angle_alpha   89.97562709
_cell_angle_beta   89.90759729
_cell_angle_gamma   90.03835051
_symmetry_Int_Tables_number   1
_chemical_formula_structural   V85Zn86O256
_chemical_formula_sum   'V85 Zn86 O256'
_cell_volume   4876.71359789
_cell_formula_units_Z   1
loop_
 _symmetry_equiv_pos_site_id
 _symmetry_equiv_pos_as_xyz
  1  'x, y, z'
loop_
 _atom_site_type_symbol
 _atom_site_label
 _atom_site_symmetry_multiplicity
 _atom_site_fract_x
 _atom_site_fract_y
 _atom_site_fract_z
 _atom_site_occupancy
  V  V0  1  0.37487627  0.87840040  -0.00683305  1
  V  V1  1  0.37665480  0.25319332  0.61939018  1
  V  V2  1  0.37313935  0.37855302  0.49277575  1
  V  V3  1  0.00335503  0.75152356  0.24743038  1
  V  V4  1  0.75137369  0.50100183  0.74331540  1
  V  V5  1  0.62781681  0.62597926  0.49883575  1
  V  V6  1  0.74901719  -0.00156580  0.74986521  1
  V  V7  1  0.00912041  0.25724596  0.25530063  1
  V  V8  1  0.76178973  0.00311271  0.25075040  1
  V  V9  1  0.62521796  0.49822866  0.62442838  1
  V  V10  1  0.38585427  0.87830417  0.48885373  1
  V  V11  1  0.25764355  0.50261690  0.75082632  1
  V  V12  1  0.25916285  0.62446958  0.36803056  1
  V  V13  1  0.61960061  -0.00093387  0.62425427  1
  V  V14  1  0.74620778  0.74979357  -0.00331645  1
  V  V15  1  0.62306714  0.74925227  0.36488320  1
  V  V16  1  0.62384985  0.48986650  0.13162750  1
  V  V17  1  0.12558198  -0.00519987  0.13103241  1
  V  V18  1  -0.00099436  0.25044895  0.74482210  1
  V  V19  1  0.00038511  0.00014724  0.49824514  1
  V  V20  1  0.49903606  0.12331142  0.12456457  1
  V  V21  1  0.61298186  0.86199389  0.76251025  1
  V  V22  1  0.75413697  0.48288748  0.24842410  1
  V  V23  1  0.12628164  0.24738750  0.87005601  1
  V  V24  1  0.12648566  0.37627524  0.75008117  1
  V  V25  1  0.37337491  0.74777076  0.61926992  1
  V  V26  1  0.37746964  0.12006879  0.26489419  1
  V  V27  1  0.12476692  0.87547842  0.74715799  1
  V  V28  1  0.37973042  0.74770881  0.12640205  1
  V  V29  1  0.24455855  0.62622865  0.87147359  1
  V  V30  1  0.25189615  0.87266720  0.61421369  1
  V  V31  1  -0.00082622  0.50864555  0.50880390  1
  V  V32  1  0.75422488  0.25396342  0.51683237  1
  V  V33  1  0.43093579  0.68299175  0.80322411  1
  V  V34  1  0.37297315  0.37396954  0.00326895  1
  V  V35  1  0.23895089  0.12511445  0.38719715  1
  V  V36  1  0.63688165  0.37257067  0.74629561  1
  V  V37  1  0.50267077  0.49842437  0.00291993  1
  V  V38  1  0.50724038  0.25228903  0.24965883  1
  V  V39  1  0.76014692  0.13049959  0.37380853  1
  V  V40  1  -0.00547674  0.12729691  0.61887309  1
  V  V41  1  0.25191689  -0.00621007  0.25679320  1
  V  V42  1  0.49848129  0.37304747  0.87053381  1
  V  V43  1  0.62561081  0.62453816  -0.00173677  1
  V  V44  1  0.37601415  0.12792585  0.74681902  1
  V  V45  1  0.49753320  0.50163060  0.49618244  1
  V  V46  1  0.75084205  0.12804595  0.88362404  1
  V  V47  1  -0.00078311  0.74701636  0.74677487  1
  V  V48  1  0.63033305  0.25102940  0.88191642  1
  V  V49  1  0.12138181  0.62213452  0.00161129  1
  V  V50  1  0.25184969  0.00223958  0.74788460  1
  V  V51  1  0.74856057  0.87224780  0.62665635  1
  V  V52  1  0.87319070  0.13579034  0.74909417  1
  V  V53  1  -0.00887251  0.12266592  0.13546812  1
  V  V54  1  0.12886483  0.49280755  0.13652234  1
  V  V55  1  0.87951900  0.49876644  0.37044753  1
  V  V56  1  0.87519648  -0.00057338  0.87460628  1
  V  V57  1  0.56824618  0.92167885  0.30842338  1
  V  V58  1  0.12086147  0.75020393  0.87455799  1
  V  V59  1  0.88031051  0.62382887  0.75065589  1
  V  V60  1  0.00216382  0.87597203  0.36922880  1
  V  V61  1  0.75480624  0.62438408  0.36058308  1
  V  V62  1  -0.00205855  0.87456183  0.87475465  1
  V  V63  1  -0.00541321  0.62029235  0.13126750  1
  V  V64  1  0.75181578  0.74729895  0.49756332  1
  V  V65  1  0.24477436  0.75183412  0.00305881  1
  V  V66  1  0.50099574  -0.00197526  -0.00887446  1
  V  V67  1  0.12434379  0.12207681  0.00272050  1
  V  V68  1  0.25149211  0.24862449  0.00213251  1
  V  V69  1  0.25215492  0.12275784  0.87386341  1
  V  V70  1  0.49586784  0.62914441  0.62470154  1
  V  V71  1  -0.00384030  0.48944959  0.00091911  1
  V  V72  1  0.86926424  0.74361051  0.13018145  1
  V  V73  1  0.12937411  0.75116836  0.37295191  1
  V  V74  1  0.62334147  -0.00719003  0.12395615  1
  V  V75  1  0.25102432  0.37868944  0.61955540  1
  V  V76  1  0.50179217  0.38020147  0.37125943  1
  V  V77  1  0.12844260  0.63294593  0.50591626  1
  V  V78  1  0.12410220  0.00485158  0.62059270  1
  V  V79  1  0.87126228  0.49135769  0.87989212  1
  V  V80  1  0.74776810  0.86980601  0.13225216  1
  V  V81  1  0.87969845  0.74451082  0.62240374  1
  V  V82  1  0.87242700  0.37491210  0.51234345  1
  V  V83  1  0.87189522  0.25694752  0.12185024  1
  V  V84  1  0.63447469  0.26009125  0.37470640  1
  Zn  Zn85  1  0.16197806  0.27156938  0.43242211  1
  Zn  Zn86  1  0.62634605  0.12786136  0.50338154  1
  Zn  Zn87  1  0.28765550  0.48235655  0.27444393  1
  Zn  Zn88  1  0.87621275  0.87499023  0.49822562  1
  Zn  Zn89  1  -0.00323048  0.37077662  0.87620486  1
  Zn  Zn90  1  0.38332876  -0.00258378  0.86757917  1
  Zn  Zn91  1  0.23856133  0.36524571  0.13919059  1
  Zn  Zn92  1  0.74753579  0.63003456  0.87222475  1
  Zn  Zn93  1  0.88010157  0.00447876  0.37279241  1
  Zn  Zn94  1  0.62749199  0.12700353  0.00298164  1
  Zn  Zn95  1  0.50022915  0.12509653  0.61964236  1
  Zn  Zn96  1  0.37396873  0.24609799  0.12855481  1
  Zn  Zn97  1  0.37370380  0.50091384  0.87890734  1
  Zn  Zn98  1  0.24328535  0.87209074  0.12965450  1
  Zn  Zn99  1  0.75158743  0.37036385  0.10580290  1
  Zn  Zn100  1  0.12095250  0.50983202  0.63073346  1
  Zn  Zn101  1  0.50244070  0.00165374  0.48626279  1
  Zn  Zn102  1  0.48680240  0.74037409  0.25634174  1
  Zn  Zn103  1  0.50261291  0.24852128  0.74839657  1
  Zn  Zn104  1  0.87354653  0.87278684  0.00098431  1
  Zn  Zn105  1  0.01264979  0.37733414  0.37564996  1
  Zn  Zn106  1  -0.00062931  -0.00153940  0.00200818  1
  Zn  Zn107  1  0.18805640  0.18022286  0.19032526  1
  Zn  Zn108  1  0.16842552  0.20912514  0.63605609  1
  Zn  Zn109  1  0.18547148  0.68239899  0.18844719  1
  Zn  Zn110  1  0.19098575  0.69027153  0.68720448  1
  Zn  Zn111  1  0.68942546  0.18616356  0.18713363  1
  Zn  Zn112  1  0.68752402  0.18542269  0.69295993  1
  Zn  Zn113  1  0.64961468  0.66932114  0.19849008  1
  Zn  Zn114  1  0.68736120  0.68676267  0.68769350  1
  Zn  Zn115  1  0.31572678  0.30376450  0.31325093  1
  Zn  Zn116  1  0.31261615  0.31147346  0.81153399  1
  Zn  Zn117  1  0.31123452  0.80969252  0.31154720  1
  Zn  Zn118  1  0.30759186  0.81884407  0.81264790  1
  Zn  Zn119  1  0.82727625  0.30996971  0.31069841  1
  Zn  Zn120  1  0.81755126  0.30868673  0.93600021  1
  Zn  Zn121  1  0.81567555  0.81294940  0.31047463  1
  Zn  Zn122  1  0.80999849  0.81209312  0.81084760  1
  Zn  Zn123  1  0.18483515  0.44855116  0.43745821  1
  Zn  Zn124  1  0.18610346  0.43733389  0.94057059  1
  Zn  Zn125  1  0.18514798  0.93793494  0.43598467  1
  Zn  Zn126  1  0.18688434  0.93808349  0.93641510  1
  Zn  Zn127  1  0.69078912  0.43820360  0.43798945  1
  Zn  Zn128  1  0.68641796  0.44072157  0.93159704  1
  Zn  Zn129  1  0.69572861  0.94196553  0.44384825  1
  Zn  Zn130  1  0.68797918  0.93550160  0.93920630  1
  Zn  Zn131  1  0.31421027  0.06140173  0.06722186  1
  Zn  Zn132  1  0.31931400  0.05766975  0.56182994  1
  Zn  Zn133  1  0.33648033  0.54368513  0.10826258  1
  Zn  Zn134  1  0.31020874  0.56377717  0.55668122  1
  Zn  Zn135  1  0.81346090  0.05909797  0.06215261  1
  Zn  Zn136  1  0.81266329  0.06338604  0.56120443  1
  Zn  Zn137  1  0.80864870  0.56136845  0.06422574  1
  Zn  Zn138  1  0.81364775  0.56352787  0.56118819  1
  Zn  Zn139  1  0.43958275  0.43054112  0.18857535  1
  Zn  Zn140  1  0.43868711  0.44070735  0.68686474  1
  Zn  Zn141  1  0.42894543  0.93547013  0.17966323  1
  Zn  Zn142  1  0.43932330  0.93260893  0.68693208  1
  Zn  Zn143  1  0.93786533  0.43357204  0.18982144  1
  Zn  Zn144  1  0.93751599  0.43759534  0.68855309  1
  Zn  Zn145  1  0.93690507  0.93278389  0.18684960  1
  Zn  Zn146  1  0.93467624  0.93677414  0.68750413  1
  Zn  Zn147  1  0.06738221  0.06567538  0.31287348  1
  Zn  Zn148  1  0.06253740  0.06286928  0.80924822  1
  Zn  Zn149  1  0.06291801  0.56590305  0.31545328  1
  Zn  Zn150  1  0.05975251  0.55955376  0.81357125  1
  Zn  Zn151  1  0.57696568  0.08461533  0.31086704  1
  Zn  Zn152  1  0.56590795  0.06218961  0.80736382  1
  Zn  Zn153  1  0.55862889  0.56324022  0.30821057  1
  Zn  Zn154  1  0.56666627  0.55868915  0.81813311  1
  Zn  Zn155  1  0.44166855  0.19059821  0.43996174  1
  Zn  Zn156  1  0.43911969  0.18595815  0.93575084  1
  Zn  Zn157  1  0.43965216  0.69488613  0.44060226  1
  Zn  Zn158  1  0.42368370  0.67296047  0.97311930  1
  Zn  Zn159  1  0.93757621  0.19154159  0.43884027  1
  Zn  Zn160  1  0.94336991  0.18272706  0.93883746  1
  Zn  Zn161  1  0.93884291  0.68490953  0.43485272  1
  Zn  Zn162  1  0.93215139  0.68200051  0.94144510  1
  Zn  Zn163  1  0.06092777  0.30850547  0.06422083  1
  Zn  Zn164  1  0.05543508  0.32089410  0.56323114  1
  Zn  Zn165  1  0.05859097  0.81263246  0.06258281  1
  Zn  Zn166  1  0.06160062  0.81448710  0.55944335  1
  Zn  Zn167  1  0.56393646  0.31377866  0.06134455  1
  Zn  Zn168  1  0.56250689  0.31323657  0.56093121  1
  Zn  Zn169  1  0.56137213  0.81419656  0.05761792  1
  Zn  Zn170  1  0.56357852  0.81157129  0.56242934  1
  O  O171  1  0.11671983  0.11555694  0.11882311  1
  O  O172  1  0.11211546  0.10896314  0.63522969  1
  O  O173  1  0.11637620  0.61459266  0.11930014  1
  O  O174  1  0.12993822  0.62967060  0.61113905  1
  O  O175  1  0.61626865  0.11223356  0.12680435  1
  O  O176  1  0.62459819  0.11396630  0.62722872  1
  O  O177  1  0.63797222  0.59970364  0.10835743  1
  O  O178  1  0.61710277  0.61992448  0.61990463  1
  O  O179  1  0.38710490  0.36940285  0.38392314  1
  O  O180  1  0.38130348  0.37391652  0.88509714  1
  O  O181  1  0.37116194  0.86692606  0.39090012  1
  O  O182  1  0.36747391  0.88137589  0.88724998  1
  O  O183  1  0.87979796  0.38804959  0.38334273  1
  O  O184  1  0.87838838  0.38784851  0.87020345  1
  O  O185  1  0.88863664  0.87755716  0.37587027  1
  O  O186  1  0.88149681  0.88159132  0.87380514  1
  O  O187  1  0.24488033  0.00730614  0.36319879  1
  O  O188  1  0.24837552  0.00431175  0.86107880  1
  O  O189  1  0.25354358  0.51783709  0.37766499  1
  O  O190  1  0.25138010  0.50997964  0.87249445  1
  O  O191  1  0.75318328  0.00863921  0.36825525  1
  O  O192  1  0.75790538  0.00376592  0.87028411  1
  O  O193  1  0.75639073  0.50454088  0.36664277  1
  O  O194  1  0.75658711  0.50401911  0.86012313  1
  O  O195  1  0.23006727  0.49706246  0.11449942  1
  O  O196  1  0.24939742  0.49507354  0.63395929  1
  O  O197  1  0.24198835  1.00082690  0.13581632  1
  O  O198  1  0.24273994  0.99690566  0.63169751  1
  O  O199  1  0.74733183  0.49169984  0.13315914  1
  O  O200  1  0.74361004  0.50732523  0.63589187  1
  O  O201  1  0.74254237  0.99579153  0.13249499  1
  O  O202  1  0.74355687  0.99099683  0.62836716  1
  O  O203  1  0.00121184  0.36191546  0.25376584  1
  O  O204  1  0.00759073  0.36742051  0.74975766  1
  O  O205  1  -0.00043897  0.86562240  0.25621883  1
  O  O206  1  0.00345719  0.87062108  0.75896297  1
  O  O207  1  0.49895608  0.36405589  0.25850454  1
  O  O208  1  0.50442958  0.37803292  0.76158704  1
  O  O209  1  0.50072719  0.87157877  0.25053269  1
  O  O210  1  0.51350461  0.87498934  0.75109623  1
  O  O211  1  0.49589871  0.12832026  0.24393451  1
  O  O212  1  0.48679666  0.12366569  0.74667896  1
  O  O213  1  0.54163165  0.64399214  0.23668948  1
  O  O214  1  0.49540710  0.62196815  0.74732892  1
  O  O215  1  1.00163446  0.12874014  0.23817039  1
  O  O216  1  0.99405654  0.12987937  0.74230235  1
  O  O217  1  1.00172219  0.63100869  0.23759481  1
  O  O218  1  0.98826082  0.62854393  0.75212552  1
  O  O219  1  0.36624788  0.25285617  -0.00060770  1
  O  O220  1  0.38052707  0.26418486  0.50883390  1
  O  O221  1  0.36149410  0.76329675  0.00220787  1
  O  O222  1  0.37764846  0.76323479  0.51246812  1
  O  O223  1  0.88249876  0.24641983  0.01194435  1
  O  O224  1  0.86989414  0.26636417  0.49791890  1
  O  O225  1  0.86760576  0.75003699  0.01245595  1
  O  O226  1  0.87111747  0.74962335  0.50712299  1
  O  O227  1  0.12715067  0.24166918  0.53316853  1
  O  O228  1  0.13038265  0.23882349  0.99520700  1
  O  O229  1  0.11702156  0.73980814  0.49063422  1
  O  O230  1  0.12707117  0.74472892  0.99568226  1
  O  O231  1  0.63813281  0.25457874  0.49362129  1
  O  O232  1  0.62036655  0.24622315  0.98604210  1
  O  O233  1  0.63392827  0.74633883  0.49216979  1
  O  O234  1  0.63303428  0.73778601  1.01076150  1
  O  O235  1  0.50500593  0.24061932  0.13216371  1
  O  O236  1  0.48969709  0.25062030  0.62836052  1
  O  O237  1  0.48176760  0.75997920  0.12234899  1
  O  O238  1  0.49398501  0.73685304  0.62220936  1
  O  O239  1  0.99432870  0.23824950  0.12831878  1
  O  O240  1  0.99768048  0.24152697  0.63715284  1
  O  O241  1  0.99405222  0.74265165  0.12979709  1
  O  O242  1  0.98985699  0.75879333  0.63297489  1
  O  O243  1  -0.00337481  0.24818802  0.35923435  1
  O  O244  1  0.00812437  0.24773569  0.86312201  1
  O  O245  1  0.00405243  0.75517207  0.36557518  1
  O  O246  1  0.00134275  0.75569641  0.86991201  1
  O  O247  1  0.51187082  0.25853851  0.36979299  1
  O  O248  1  0.50731340  0.25690069  0.87137663  1
  O  O249  1  0.51415511  0.74784531  0.37217772  1
  O  O250  1  0.48164271  0.73068572  0.87143071  1
  O  O251  1  0.25512549  0.11175637  0.48494064  1
  O  O252  1  0.24515905  0.12907016  0.99644281  1
  O  O253  1  0.23440372  0.62448121  0.49103143  1
  O  O254  1  0.24169630  0.63945788  0.98494089  1
  O  O255  1  0.75208971  0.13728827  0.49431621  1
  O  O256  1  0.74695368  0.11712910  0.98769346  1
  O  O257  1  0.74518238  0.62913056  0.49234099  1
  O  O258  1  0.74477862  0.63306498  0.99757653  1
  O  O259  1  0.25671033  0.36476342  0.00032024  1
  O  O260  1  0.25926825  0.38537894  0.50974761  1
  O  O261  1  0.25004491  0.86504383  -0.00031791  1
  O  O262  1  0.25796016  0.88417931  0.51096089  1
  O  O263  1  0.75275125  0.37805036  -0.00702601  1
  O  O264  1  0.76363020  0.36982572  0.49701209  1
  O  O265  1  0.74939097  0.86832206  0.01288501  1
  O  O266  1  0.75467951  0.86838613  0.51142168  1
  O  O267  1  0.12108927  0.50298397  0.23589812  1
  O  O268  1  0.13301023  0.49336298  0.75110295  1
  O  O269  1  0.13920293  1.00732685  0.24256159  1
  O  O270  1  0.13117926  0.99343738  0.74305250  1
  O  O271  1  0.63426518  0.49714956  0.23604084  1
  O  O272  1  0.63253649  0.49645728  0.74515828  1
  O  O273  1  0.62757218  0.98941911  0.24854932  1
  O  O274  1  0.63271191  0.99131255  0.74295988  1
  O  O275  1  0.36194194  0.00643382  0.24425565  1
  O  O276  1  0.36780344  0.00489385  0.74661864  1
  O  O277  1  0.37423589  0.51608714  0.21232841  1
  O  O278  1  0.36121920  0.49563882  0.75522741  1
  O  O279  1  0.86484132  0.00032019  0.24949274  1
  O  O280  1  0.87023046  0.00515982  0.76014530  1
  O  O281  1  0.86858425  0.49689519  0.25783259  1
  O  O282  1  0.86968412  0.50620992  0.75349894  1
  O  O283  1  0.12474563  0.36786745  0.39214754  1
  O  O284  1  0.12541773  0.36736999  0.86376418  1
  O  O285  1  0.11261120  0.86542285  0.38143846  1
  O  O286  1  0.11681934  0.87096794  0.86848738  1
  O  O287  1  0.62041767  0.36607127  0.37842433  1
  O  O288  1  0.61744004  0.36864445  0.86608940  1
  O  O289  1  0.62789553  0.87104019  0.37632445  1
  O  O290  1  0.63051405  0.87681185  0.86097195  1
  O  O291  1  0.38796746  0.12483106  0.13335065  1
  O  O292  1  0.37425510  0.13547678  0.62921705  1
  O  O293  1  0.37536288  0.65038190  0.09430016  1
  O  O294  1  0.38027597  0.63461156  0.61874270  1
  O  O295  1  0.88876613  0.12736507  0.11846053  1
  O  O296  1  0.88352982  0.11594981  0.63707762  1
  O  O297  1  0.88225160  0.63176766  0.12207835  1
  O  O298  1  0.87116014  0.63750270  0.63208191  1
  O  O299  1  0.25002962  0.24646110  0.11424935  1
  O  O300  1  0.26543665  0.26940471  0.63348247  1
  O  O301  1  0.25000090  0.75110578  0.11708154  1
  O  O302  1  0.26022002  0.76136507  0.63012637  1
  O  O303  1  0.76704796  0.24707446  0.12815263  1
  O  O304  1  0.74704414  0.24706221  0.61578296  1
  O  O305  1  0.75517095  0.75590982  0.12155790  1
  O  O306  1  0.75620501  0.75538544  0.61883131  1
  O  O307  1  0.25599504  0.23052725  0.37928786  1
  O  O308  1  0.24538727  0.24309614  0.88327601  1
  O  O309  1  0.23418657  0.74609329  0.36947328  1
  O  O310  1  0.24007357  0.74625638  0.87735862  1
  O  O311  1  0.74956650  0.24801875  0.37574380  1
  O  O312  1  0.74423309  0.23948355  0.87382461  1
  O  O313  1  0.75245992  0.74189985  0.38001264  1
  O  O314  1  0.75748539  0.75155749  0.89270288  1
  O  O315  1  0.01064557  0.12013111  0.00942700  1
  O  O316  1  -0.00745176  0.11975598  0.51225709  1
  O  O317  1  0.00334115  0.61809424  0.01126446  1
  O  O318  1  0.01194644  0.61956600  0.49596406  1
  O  O319  1  0.50186046  0.11813965  0.00922270  1
  O  O320  1  0.50596813  0.11965543  0.50099117  1
  O  O321  1  0.50959225  0.60641211  0.00049559  1
  O  O322  1  0.50566013  0.62053573  0.50617075  1
  O  O323  1  0.49520364  0.38177697  0.49105034  1
  O  O324  1  0.49533939  0.37890708  0.98931450  1
  O  O325  1  0.49020853  0.87714452  0.50111838  1
  O  O326  1  0.48874357  0.88606981  1.00272739  1
  O  O327  1  0.98715360  0.38541221  0.49948227  1
  O  O328  1  1.00417573  0.38592381  0.99709069  1
  O  O329  1  0.99707440  0.88403262  0.49228782  1
  O  O330  1  0.99791516  0.87672584  0.98650458  1
  O  O331  1  0.50829253  0.48825068  0.37664135  1
  O  O332  1  0.49568978  0.49063616  0.88331960  1
  O  O333  1  0.51913502  0.99238131  0.36312603  1
  O  O334  1  0.50170638  1.00838562  0.88770508  1
  O  O335  1  0.99404030  0.50122048  0.38403686  1
  O  O336  1  0.99121819  0.49814769  0.88403051  1
  O  O337  1  1.00249598  0.99533201  0.37975806  1
  O  O338  1  0.99321588  0.99235770  0.87342964  1
  O  O339  1  0.00435171  0.00822137  0.12633726  1
  O  O340  1  0.00505108  0.00306949  0.61909874  1
  O  O341  1  0.00374399  0.50375585  0.12005740  1
  O  O342  1  0.00083742  0.50077446  0.61391873  1
  O  O343  1  0.50608794  0.00378725  0.11892146  1
  O  O344  1  0.51351923  -0.00095842  0.62684680  1
  O  O345  1  0.51702061  0.48766041  0.11704771  1
  O  O346  1  0.50347825  0.51271948  0.62067526  1
  O  O347  1  0.26356875  0.37621010  0.24815318  1
  O  O348  1  0.24413785  0.38342421  0.74663880  1
  O  O349  1  0.25316741  0.89003839  0.24994819  1
  O  O350  1  0.24549698  0.88459474  0.73939777  1
  O  O351  1  0.75586611  0.38187707  0.25026120  1
  O  O352  1  0.73728364  0.38579880  0.74939238  1
  O  O353  1  0.75518485  0.88385819  0.23863673  1
  O  O354  1  0.74673475  0.87853517  0.73947184  1
  O  O355  1  0.26000222  0.11754817  0.25858248  1
  O  O356  1  0.26235134  0.11634573  0.75214346  1
  O  O357  1  0.24531636  0.62416185  0.26634714  1
  O  O358  1  0.24310847  0.61872323  0.76229753  1
  O  O359  1  0.74180076  0.11351624  0.25986835  1
  O  O360  1  0.75771395  0.11817388  0.75943819  1
  O  O361  1  0.74340475  0.61616780  0.25944600  1
  O  O362  1  0.76056742  0.62023666  0.75114884  1
  O  O363  1  0.37600839  0.12422434  0.36698434  1
  O  O364  1  0.36892284  0.12169311  0.86638380  1
  O  O365  1  0.35689242  0.64139616  0.38246389  1
  O  O366  1  0.36723730  0.62664455  0.87163057  1
  O  O367  1  0.86441949  0.12516505  0.37732073  1
  O  O368  1  0.87088050  0.11748555  0.87029964  1
  O  O369  1  0.86638441  0.61111512  0.38054583  1
  O  O370  1  0.87244090  0.61552173  0.86602029  1
  O  O371  1  0.12226403  0.38822694  0.12008664  1
  O  O372  1  0.13396532  0.38226144  0.63592880  1
  O  O373  1  0.12296618  0.89079383  0.11815926  1
  O  O374  1  0.13188176  0.88326336  0.62729271  1
  O  O375  1  0.63298254  0.38503933  0.11892820  1
  O  O376  1  0.61385098  0.38625061  0.63534948  1
  O  O377  1  0.63118555  0.88538756  0.12234523  1
  O  O378  1  0.63271739  0.87924242  0.63071386  1
  O  O379  1  0.10798976  0.24489700  0.24044757  1
  O  O380  1  0.11935743  0.25781496  0.74628373  1
  O  O381  1  0.11157409  0.74542224  0.25568490  1
  O  O382  1  0.11867216  0.75625735  0.75361687  1
  O  O383  1  0.61589906  0.24321608  0.25848431  1
  O  O384  1  0.62378292  0.25796039  0.75835853  1
  O  O385  1  0.64300999  0.76369436  0.26639783  1
  O  O386  1  0.62903148  0.76297379  0.74804728  1
  O  O387  1  0.39117198  0.23754425  0.24927939  1
  O  O388  1  0.37743026  0.24288749  0.74368078  1
  O  O389  1  0.37110436  0.75043475  0.23205308  1
  O  O390  1  0.37557811  0.74958705  0.74562385  1
  O  O391  1  0.89017588  0.24887320  0.23253132  1
  O  O392  1  0.88423144  0.23635041  0.75616451  1
  O  O393  1  0.88481891  0.75159355  0.23768271  1
  O  O394  1  0.87830813  0.74179493  0.74451768  1
  O  O395  1  0.38471486  0.48931421  0.50482890  1
  O  O396  1  0.38394939  0.49067228  1.00569570  1
  O  O397  1  0.38390374  0.98384116  0.50354832  1
  O  O398  1  0.38238188  0.99540110  0.99976899  1
  O  O399  1  0.87996951  0.49439651  0.49538680  1
  O  O400  1  0.88311835  0.50785095  0.99037309  1
  O  O401  1  0.88760821  0.99759758  0.49869518  1
  O  O402  1  0.87716932  0.99628787  0.98697664  1
  O  O403  1  0.12588831  0.01046920  0.00528147  1
  O  O404  1  0.11225577  -0.00326015  0.50834218  1
  O  O405  1  0.11365760  0.50628971  0.00182915  1
  O  O406  1  0.11606423  0.51556089  0.50514937  1
  O  O407  1  0.61828072  0.00119776  0.00827151  1
  O  O408  1  0.62422872  0.00144279  0.51034354  1
  O  O409  1  0.61840167  0.50096106  0.00412262  1
  O  O410  1  0.61993043  0.50514513  0.50522061  1
  O  O411  1  0.37871873  0.36422477  0.10996901  1
  O  O412  1  0.37088008  0.37238039  0.61872036  1
  O  O413  1  0.36452200  0.86656895  0.11192208  1
  O  O414  1  0.36901445  0.86756424  0.62069559  1
  O  O415  1  0.87632044  0.36021291  0.12220538  1
  O  O416  1  0.87364324  0.38107042  0.61151693  1
  O  O417  1  0.86682734  0.86646593  0.12166470  1
  O  O418  1  0.86594791  0.86410732  0.62682726  1
  O  O419  1  0.13817983  0.12831393  0.37844158  1
  O  O420  1  0.13074747  0.12804594  0.88097027  1
  O  O421  1  0.12997768  0.63340818  0.38372855  1
  O  O422  1  0.12740423  0.63051512  0.87967737  1
  O  O423  1  0.64042075  0.14206502  0.38273752  1
  O  O424  1  0.63468546  0.13318467  0.87177880  1
  O  O425  1  0.63606642  0.63204298  0.38165051  1
  O  O426  1  0.63006275  0.61904518  0.89102298  1
