# generated using pymatgen
data_V85Zn86O256
_symmetry_space_group_name_H-M   'P 1'
_cell_length_a   16.92979980
_cell_length_b   16.93470160
_cell_length_c   16.94712924
_cell_angle_alpha   89.95494682
_cell_angle_beta   89.98273720
_cell_angle_gamma   90.00377471
_symmetry_Int_Tables_number   1
_chemical_formula_structural   V85Zn86O256
_chemical_formula_sum   'V85 Zn86 O256'
_cell_volume   4858.75899384
_cell_formula_units_Z   1
loop_
 _symmetry_equiv_pos_site_id
 _symmetry_equiv_pos_as_xyz
  1  'x, y, z'
loop_
 _atom_site_type_symbol
 _atom_site_label
 _atom_site_symmetry_multiplicity
 _atom_site_fract_x
 _atom_site_fract_y
 _atom_site_fract_z
 _atom_site_occupancy
  V  V0  1  0.36997609  0.12687287  0.74856304  1
  V  V1  1  0.00605575  0.00288593  0.00397662  1
  V  V2  1  0.06698265  0.69711862  0.81914145  1
  V  V3  1  0.62357515  -0.00739346  0.62974049  1
  V  V4  1  0.24924602  0.74751858  0.49977232  1
  V  V5  1  0.37385686  0.00212594  0.87277058  1
  V  V6  1  0.38053770  0.48412734  0.87812582  1
  V  V7  1  0.87600282  0.24859728  0.62833072  1
  V  V8  1  -0.01584157  -0.00344665  0.50132192  1
  V  V9  1  0.25162039  0.62505856  0.37733367  1
  V  V10  1  0.88003316  0.74283969  0.63364956  1
  V  V11  1  0.73724121  -0.00141127  0.24817496  1
  V  V12  1  0.88279438  0.24724675  0.12883964  1
  V  V13  1  0.00753980  0.26564151  0.75300496  1
  V  V14  1  0.12089430  0.37061199  0.25899850  1
  V  V15  1  0.86359223  0.86322464  0.49476019  1
  V  V16  1  0.12151664  0.26657634  0.88397959  1
  V  V17  1  0.50363489  0.49855104  0.49192703  1
  V  V18  1  0.87760113  0.11612645  0.25131413  1
  V  V19  1  0.25002603  0.49317605  0.74692789  1
  V  V20  1  0.37606251  0.75263665  0.12290114  1
  V  V21  1  0.50001093  0.12488752  0.62440399  1
  V  V22  1  0.37282895  0.25428451  0.62177489  1
  V  V23  1  0.49946751  0.25529837  0.75242469  1
  V  V24  1  0.12500717  0.63377867  0.00358571  1
  V  V25  1  0.74867421  0.61151500  0.86729137  1
  V  V26  1  0.75183649  0.24925063  0.00236896  1
  V  V27  1  0.50525984  0.87786567  0.86896708  1
  V  V28  1  0.75352087  0.37688242  0.13190850  1
  V  V29  1  0.62457462  0.62857653  -0.00061857  1
  V  V30  1  0.50455325  0.12744189  0.12908673  1
  V  V31  1  0.87275630  0.75594911  0.12264002  1
  V  V32  1  0.62638743  0.37884850  0.75230924  1
  V  V33  1  0.74808675  -0.01160796  0.75098720  1
  V  V34  1  0.75347519  0.75432980  -0.00472695  1
  V  V35  1  0.00059792  0.75122786  0.25164756  1
  V  V36  1  0.63883748  0.74938269  0.37018980  1
  V  V37  1  0.50022959  0.63036064  0.12431355  1
  V  V38  1  0.24990011  0.87797612  0.12152681  1
  V  V39  1  0.24150289  0.00247996  0.74319886  1
  V  V40  1  0.87697299  0.37538191  -0.00458365  1
  V  V41  1  0.12419579  0.87938497  0.24897104  1
  V  V42  1  0.50828944  0.75386549  0.74762138  1
  V  V43  1  0.37690499  0.00145153  0.37457953  1
  V  V44  1  0.62736243  0.37621347  0.25769679  1
  V  V45  1  0.75195501  0.24937413  0.50213599  1
  V  V46  1  0.63667888  0.63213541  0.49769649  1
  V  V47  1  0.11737916  0.87510997  0.74889535  1
  V  V48  1  0.23443000  0.12245067  0.88208532  1
  V  V49  1  0.62765787  0.50313373  0.62687061  1
  V  V50  1  0.62224203  0.24924651  0.87641118  1
  V  V51  1  0.37974318  0.62944295  0.24989196  1
  V  V52  1  0.23794602  0.25406209  0.49281795  1
  V  V53  1  0.00073388  0.87276213  0.87920487  1
  V  V54  1  0.11045944  0.62240238  0.50410011  1
  V  V55  1  0.24954429  0.50083402  0.24714677  1
  V  V56  1  0.88918206  0.37783456  0.49815091  1
  V  V57  1  0.86879673  0.62614623  0.25434856  1
  V  V58  1  0.87924926  0.12161015  0.75111235  1
  V  V59  1  0.26319885  0.37042273  0.12112234  1
  V  V60  1  0.75211762  0.49996392  0.26461314  1
  V  V61  1  0.62590557  0.25388676  0.37662357  1
  V  V62  1  0.11440431  0.49549672  0.62279405  1
  V  V63  1  0.37258194  0.87541876  0.49919542  1
  V  V64  1  0.37541825  0.13115033  0.24977446  1
  V  V65  1  0.62845912  0.12173432  0.00930969  1
  V  V66  1  0.25075364  0.00267431  0.24828660  1
  V  V67  1  0.24192269  0.87748220  0.62364265  1
  V  V68  1  0.49598308  0.86185827  0.36880144  1
  V  V69  1  0.89135203  0.50325481  0.38380178  1
  V  V70  1  0.49878052  0.25833400  0.25220093  1
  V  V71  1  0.74251428  0.87900831  0.12154254  1
  V  V72  1  0.37526078  0.74979376  0.62666949  1
  V  V73  1  0.75159425  0.37865653  0.62796175  1
  V  V74  1  0.62530902  0.12361282  0.50136111  1
  V  V75  1  0.12632532  0.11061371  0.50002064  1
  V  V76  1  -0.00114899  0.62426454  0.12578754  1
  V  V77  1  0.75602062  0.11717992  0.37686372  1
  V  V78  1  0.37686323  0.62447177  0.75413512  1
  V  V79  1  0.62615517  0.50254582  0.12886969  1
  V  V80  1  0.87499044  -0.00716219  0.88237274  1
  V  V81  1  0.00014536  0.49573709  -0.00240178  1
  V  V82  1  0.50270498  0.00068810  0.00408329  1
  V  V83  1  0.75065193  0.12249569  0.87621215  1
  V  V84  1  0.38029185  0.37380432  0.48936938  1
  Zn  Zn85  1  -0.00507675  0.88132914  0.37240196  1
  Zn  Zn86  1  0.38141312  0.49927272  0.37283833  1
  Zn  Zn87  1  0.50012772  -0.00135186  0.49996727  1
  Zn  Zn88  1  0.25045451  0.62939168  0.87351822  1
  Zn  Zn89  1  0.12344841  0.75043576  0.37547679  1
  Zn  Zn90  1  0.24667918  0.75435013  -0.01028311  1
  Zn  Zn91  1  0.25662759  0.25897944  0.00023039  1
  Zn  Zn92  1  0.50134858  0.62560065  0.62341835  1
  Zn  Zn93  1  0.62941245  0.75400165  0.86774724  1
  Zn  Zn94  1  0.24125574  0.13184779  0.36997171  1
  Zn  Zn95  1  0.74490695  0.86580213  0.62344867  1
  Zn  Zn96  1  0.37404845  0.87648613  -0.00268456  1
  Zn  Zn97  1  0.49202026  0.48622230  0.00159172  1
  Zn  Zn98  1  0.12660631  0.49752385  0.12309075  1
  Zn  Zn99  1  0.24668230  0.37591446  0.62407894  1
  Zn  Zn100  1  0.88320542  0.62095215  0.74634946  1
  Zn  Zn101  1  0.86950227  0.49074713  0.86831100  1
  Zn  Zn102  1  0.00690330  0.11822041  0.62945873  1
  Zn  Zn103  1  0.61450371  0.87208176  0.24261225  1
  Zn  Zn104  1  0.00751933  0.12777517  0.12620539  1
  Zn  Zn105  1  0.14013851  0.01492191  0.11354130  1
  Zn  Zn106  1  0.01316593  0.24350620  0.27449229  1
  Zn  Zn107  1  0.18641720  0.19235869  0.18540177  1
  Zn  Zn108  1  0.18325970  0.19026335  0.68363026  1
  Zn  Zn109  1  0.18896546  0.68988398  0.18458169  1
  Zn  Zn110  1  0.19246604  0.68058873  0.68280795  1
  Zn  Zn111  1  0.69207725  0.18948222  0.19041752  1
  Zn  Zn112  1  0.68897459  0.18375194  0.68905057  1
  Zn  Zn113  1  0.68866345  0.69086588  0.18969320  1
  Zn  Zn114  1  0.69329147  0.68893916  0.68352580  1
  Zn  Zn115  1  0.31098066  0.31470313  0.31113488  1
  Zn  Zn116  1  0.30654583  0.31092231  0.81292289  1
  Zn  Zn117  1  0.31168755  0.81074355  0.30859168  1
  Zn  Zn118  1  0.31265513  0.81249348  0.81364023  1
  Zn  Zn119  1  0.84546443  0.29705945  0.33100319  1
  Zn  Zn120  1  0.81012620  0.30994134  0.81168997  1
  Zn  Zn121  1  0.81165959  0.81812297  0.31032507  1
  Zn  Zn122  1  0.81714683  0.80719864  0.81044303  1
  Zn  Zn123  1  0.18968997  0.44168526  0.43942006  1
  Zn  Zn124  1  0.19261422  0.44506271  0.93979342  1
  Zn  Zn125  1  0.18715511  0.93830659  0.43221282  1
  Zn  Zn126  1  0.18512128  0.93425642  0.93257017  1
  Zn  Zn127  1  0.69258691  0.43781514  0.44259049  1
  Zn  Zn128  1  0.66256825  0.42739339  0.95175866  1
  Zn  Zn129  1  0.68370082  0.93705107  0.43600638  1
  Zn  Zn130  1  0.68507183  0.93632247  0.93839227  1
  Zn  Zn131  1  0.33462355  0.10136293  0.04419083  1
  Zn  Zn132  1  0.30933309  0.06463821  0.56060411  1
  Zn  Zn133  1  0.31139348  0.56151122  0.05953946  1
  Zn  Zn134  1  0.31444895  0.56053589  0.56429472  1
  Zn  Zn135  1  0.81742750  0.05876259  0.06466400  1
  Zn  Zn136  1  0.81150567  0.06003405  0.56715333  1
  Zn  Zn137  1  0.81042585  0.56367616  0.06276592  1
  Zn  Zn138  1  0.81405250  0.56450220  0.56332578  1
  Zn  Zn139  1  0.43898190  0.44206779  0.18897271  1
  Zn  Zn140  1  0.44074280  0.43803473  0.68437575  1
  Zn  Zn141  1  0.43766257  0.94161276  0.18594649  1
  Zn  Zn142  1  0.43302035  0.93724392  0.68735384  1
  Zn  Zn143  1  0.93967950  0.43813038  0.18860253  1
  Zn  Zn144  1  0.93305183  0.44019789  0.68510240  1
  Zn  Zn145  1  0.93189234  0.93733399  0.18626690  1
  Zn  Zn146  1  0.93579117  0.93329670  0.68100412  1
  Zn  Zn147  1  0.06265099  0.06146562  0.31776100  1
  Zn  Zn148  1  0.06095933  0.05933080  0.81251783  1
  Zn  Zn149  1  0.06593321  0.56381776  0.31275048  1
  Zn  Zn150  1  0.04745810  0.52234133  0.80060657  1
  Zn  Zn151  1  0.56272588  0.06323282  0.31583997  1
  Zn  Zn152  1  0.56279762  0.06554228  0.81236381  1
  Zn  Zn153  1  0.56371914  0.56887941  0.31372953  1
  Zn  Zn154  1  0.56065114  0.56336501  0.81294476  1
  Zn  Zn155  1  0.43895685  0.18901174  0.43537900  1
  Zn  Zn156  1  0.43567076  0.19397912  0.93390269  1
  Zn  Zn157  1  0.44007837  0.68445333  0.44080479  1
  Zn  Zn158  1  0.43784493  0.68824214  0.93655358  1
  Zn  Zn159  1  0.94170949  0.18437310  0.44075739  1
  Zn  Zn160  1  0.94110824  0.18715810  0.93620766  1
  Zn  Zn161  1  0.93280127  0.69072152  0.43502015  1
  Zn  Zn162  1  0.92887179  0.68051854  0.94238319  1
  Zn  Zn163  1  0.06797824  0.31659066  0.07026009  1
  Zn  Zn164  1  0.06297372  0.30970242  0.56673863  1
  Zn  Zn165  1  0.06000703  0.81806718  0.06350446  1
  Zn  Zn166  1  0.05868367  0.81160253  0.56142077  1
  Zn  Zn167  1  0.56264846  0.31179100  0.06748179  1
  Zn  Zn168  1  0.56200619  0.31408123  0.56318920  1
  Zn  Zn169  1  0.56152515  0.81195085  0.05828758  1
  Zn  Zn170  1  0.56014672  0.81317139  0.55694423  1
  O  O171  1  0.12008775  0.12368598  0.13008163  1
  O  O172  1  0.12217005  0.13095320  0.60644263  1
  O  O173  1  0.11805343  0.62253823  0.11966425  1
  O  O174  1  0.12845063  0.61756297  0.61004927  1
  O  O175  1  0.62395818  0.12716175  0.11602494  1
  O  O176  1  0.62058963  0.11683169  0.62034217  1
  O  O177  1  0.61707976  0.62639412  0.12294901  1
  O  O178  1  0.62587872  0.61957766  0.61463390  1
  O  O179  1  0.37539843  0.37817424  0.38589693  1
  O  O180  1  0.37317301  0.38458425  0.87304661  1
  O  O181  1  0.37838173  0.87980416  0.37733620  1
  O  O182  1  0.38380984  0.88569857  0.87579813  1
  O  O183  1  0.86312435  0.39638834  0.38722036  1
  O  O184  1  0.86493144  0.37178385  0.89221354  1
  O  O185  1  0.87598472  0.87066129  0.38961557  1
  O  O186  1  0.88941133  0.88089879  0.86511410  1
  O  O187  1  0.26214625  0.00253696  0.36789016  1
  O  O188  1  0.25009766  0.00701168  0.86418403  1
  O  O189  1  0.25564300  0.51301797  0.36903143  1
  O  O190  1  0.26146806  0.50506490  0.86578575  1
  O  O191  1  0.74253607  0.00718204  0.36500549  1
  O  O192  1  0.75656676  0.00167819  0.87063054  1
  O  O193  1  0.75060558  0.50354425  0.36629637  1
  O  O194  1  0.74424627  0.51138220  0.88524047  1
  O  O195  1  0.25064351  0.49480690  0.13316654  1
  O  O196  1  0.24482204  0.49878731  0.63159343  1
  O  O197  1  0.25521367  0.98788056  0.13107311  1
  O  O198  1  0.25463408  0.99055213  0.63248075  1
  O  O199  1  0.74838675  0.49364354  0.13665401  1
  O  O200  1  0.73794538  0.49219924  0.61954573  1
  O  O201  1  0.75287742  0.98898893  0.13020115  1
  O  O202  1  0.74149118  0.99781977  0.63545655  1
  O  O203  1  0.01809182  0.37798685  0.24656675  1
  O  O204  1  -0.00266865  0.36402551  0.75134785  1
  O  O205  1  0.00535232  0.87070392  0.24945779  1
  O  O206  1  0.01201205  0.88109466  0.75334178  1
  O  O207  1  0.50854992  0.36562104  0.24479604  1
  O  O208  1  0.50995302  0.36252793  0.74235922  1
  O  O209  1  0.49939743  0.88157850  0.26227311  1
  O  O210  1  0.49300283  0.86727222  0.75710832  1
  O  O211  1  0.49927463  0.13299298  0.24567408  1
  O  O212  1  0.49255728  0.13494040  0.74402452  1
  O  O213  1  0.48729485  0.62096467  0.24217169  1
  O  O214  1  0.49438758  0.63378926  0.74559265  1
  O  O215  1  0.99077236  0.12625782  0.25300919  1
  O  O216  1  0.98899758  0.12543642  0.75040657  1
  O  O217  1  0.99247064  0.63222554  0.24590816  1
  O  O218  1  1.01123914  0.63200014  0.76558410  1
  O  O219  1  0.35872386  0.21042985  0.00836484  1
  O  O220  1  0.37297637  0.25595429  0.50600018  1
  O  O221  1  0.37379176  0.75069306  0.01167356  1
  O  O222  1  0.36922201  0.75487104  0.50631452  1
  O  O223  1  0.87207175  0.25389970  0.00849684  1
  O  O224  1  0.86969753  0.25584982  0.51143445  1
  O  O225  1  0.86632177  0.74787380  0.01106619  1
  O  O226  1  0.87308502  0.75983417  0.50455049  1
  O  O227  1  0.13459959  0.24731359  0.50159217  1
  O  O228  1  0.12551150  0.25520522  0.98705405  1
  O  O229  1  0.13050887  0.73922531  0.49936207  1
  O  O230  1  0.12192947  0.73787236  1.00757781  1
  O  O231  1  0.63021376  0.24426872  0.49594012  1
  O  O232  1  0.63355049  0.23929541  0.99734840  1
  O  O233  1  0.62160232  0.73842446  0.49306459  1
  O  O234  1  0.63184945  0.74138544  0.99658312  1
  O  O235  1  0.50917900  0.23786361  0.13632599  1
  O  O236  1  0.49369407  0.24406708  0.63090133  1
  O  O237  1  0.49326132  0.73899260  0.12086856  1
  O  O238  1  0.49177363  0.75289676  0.63036902  1
  O  O239  1  0.98864864  0.25203174  0.13078529  1
  O  O240  1  0.99590612  0.24694255  0.64044243  1
  O  O241  1  0.99131980  0.74859973  0.13416240  1
  O  O242  1  0.98016734  0.75602420  0.62103510  1
  O  O243  1  -0.04630710  0.26447522  0.36652277  1
  O  O244  1  0.01221020  0.24789529  0.86654803  1
  O  O245  1  0.00066920  0.75268184  0.36126177  1
  O  O246  1  -0.00036036  0.75217047  0.87763570  1
  O  O247  1  0.51414036  0.24503429  0.36541011  1
  O  O248  1  0.50738094  0.24481261  0.86426012  1
  O  O249  1  0.50237594  0.75905269  0.37782897  1
  O  O250  1  0.50016069  0.75951250  0.86584122  1
  O  O251  1  0.23885515  0.13123757  0.49759942  1
  O  O252  1  0.23613279  0.11075643  0.98168202  1
  O  O253  1  0.25128242  0.63004268  0.49186201  1
  O  O254  1  0.23764544  0.62546018  0.99699622  1
  O  O255  1  0.74628715  0.12666196  0.49447757  1
  O  O256  1  0.74546473  0.12563755  0.99749527  1
  O  O257  1  0.73463677  0.62068911  0.49799592  1
  O  O258  1  0.74547106  0.63775578  0.99477290  1
  O  O259  1  0.24823679  0.37804426  0.01598378  1
  O  O260  1  0.25939307  0.36867461  0.50117895  1
  O  O261  1  0.25217837  0.87645006  0.00679953  1
  O  O262  1  0.25123000  0.86923862  0.50539608  1
  O  O263  1  0.75455285  0.37057836  0.01382453  1
  O  O264  1  0.75516250  0.36858089  0.51242842  1
  O  O265  1  0.74520564  0.86379229  0.00498221  1
  O  O266  1  0.76202792  0.88199564  0.50109850  1
  O  O267  1  0.13851413  0.49995782  0.24833311  1
  O  O268  1  0.13493573  0.50523325  0.73338580  1
  O  O269  1  0.13303899  0.99404502  0.25048783  1
  O  O270  1  0.13335598  0.99116301  0.75028441  1
  O  O271  1  0.63250260  0.49857104  0.24882408  1
  O  O272  1  0.61759202  0.49056903  0.74057860  1
  O  O273  1  0.63342340  0.99816988  0.25015671  1
  O  O274  1  0.63550151  1.00882351  0.74194325  1
  O  O275  1  0.37026566  0.00750518  0.25742058  1
  O  O276  1  0.36304192  0.00609956  0.75333550  1
  O  O277  1  0.36634377  0.50926859  0.25240075  1
  O  O278  1  0.37239064  0.50505916  0.75439749  1
  O  O279  1  0.86306558  0.01084595  0.24472724  1
  O  O280  1  0.86925429  0.00485594  0.75658705  1
  O  O281  1  0.87127318  0.50594216  0.26064126  1
  O  O282  1  0.88635189  0.50843360  0.75736456  1
  O  O283  1  0.13409193  0.38525894  0.35775931  1
  O  O284  1  0.13186373  0.36505636  0.87532930  1
  O  O285  1  0.12473493  0.87129961  0.36077898  1
  O  O286  1  0.11224501  0.87359925  0.86481664  1
  O  O287  1  0.63451746  0.36183515  0.37410134  1
  O  O288  1  0.64026209  0.36476771  0.85611808  1
  O  O289  1  0.61538169  0.86168752  0.37747082  1
  O  O290  1  0.61004132  0.87446238  0.87617929  1
  O  O291  1  0.38908152  0.12068490  0.14403419  1
  O  O292  1  0.37775174  0.13637306  0.62771241  1
  O  O293  1  0.38055541  0.63035507  0.12908558  1
  O  O294  1  0.37748867  0.63099486  0.63544076  1
  O  O295  1  0.88097110  0.13056052  0.13103107  1
  O  O296  1  0.87631220  0.13001741  0.63526384  1
  O  O297  1  0.87877681  0.63457603  0.13327293  1
  O  O298  1  0.87436100  0.63658045  0.62493750  1
  O  O299  1  0.25159854  0.26691394  0.12619839  1
  O  O300  1  0.25770524  0.25291831  0.61562741  1
  O  O301  1  0.25624575  0.76265177  0.12092548  1
  O  O302  1  0.25709677  0.75660958  0.62086489  1
  O  O303  1  0.75763228  0.25718951  0.12019421  1
  O  O304  1  0.75529128  0.25445703  0.62154172  1
  O  O305  1  0.75551241  0.75461563  0.11783329  1
  O  O306  1  0.76504708  0.75359480  0.62757483  1
  O  O307  1  0.25991613  0.24721815  0.38923182  1
  O  O308  1  0.23678387  0.24098005  0.87551978  1
  O  O309  1  0.24856002  0.73926234  0.37773629  1
  O  O310  1  0.25189101  0.74466196  0.87634915  1
  O  O311  1  0.74734524  0.24044423  0.38382125  1
  O  O312  1  0.74551513  0.24090566  0.88245512  1
  O  O313  1  0.73741335  0.75422583  0.37456599  1
  O  O314  1  0.74834024  0.74549564  0.88134106  1
  O  O315  1  -0.00565322  0.10661716  -0.00072580  1
  O  O316  1  0.00562805  0.11318790  0.50284619  1
  O  O317  1  0.00333261  0.61851224  0.00709074  1
  O  O318  1  0.01289576  0.62854652  0.49391286  1
  O  O319  1  0.51014925  0.12189071  0.00902683  1
  O  O320  1  0.50599971  0.12396834  0.50737214  1
  O  O321  1  0.50916310  0.62227439  0.00604556  1
  O  O322  1  0.50832674  0.61571747  0.50417237  1
  O  O323  1  0.49296110  0.38365083  0.50393003  1
  O  O324  1  0.55493336  0.39299554  0.99434898  1
  O  O325  1  0.48945656  0.87799410  0.48923391  1
  O  O326  1  0.49714328  0.88550629  0.99378578  1
  O  O327  1  0.98792318  0.37097069  0.50494085  1
  O  O328  1  0.98849413  0.38256583  1.01293985  1
  O  O329  1  0.98911954  0.88297099  0.49799133  1
  O  O330  1  1.00017345  0.88395910  0.98972169  1
  O  O331  1  0.50174025  0.50352957  0.38692978  1
  O  O332  1  0.48400140  0.50058383  0.87301487  1
  O  O333  1  0.48887742  0.99449871  0.37669303  1
  O  O334  1  0.49498387  0.99687176  0.87756761  1
  O  O335  1  0.98933079  0.50114658  0.37344717  1
  O  O336  1  0.99228795  0.49628199  0.89297963  1
  O  O337  1  1.00502606  0.99688597  0.39525712  1
  O  O338  1  0.99403882  0.99231987  0.88257683  1
  O  O339  1  -0.00511233  -0.00445577  0.10892455  1
  O  O340  1  -0.00126560  -0.00016609  0.60799554  1
  O  O341  1  -0.00023891  0.50818612  0.11713099  1
  O  O342  1  0.01542348  0.49989437  0.62845994  1
  O  O343  1  0.49983666  0.01276437  0.11648301  1
  O  O344  1  0.50522754  0.00683289  0.62675536  1
  O  O345  1  0.50708960  0.51178254  0.12291744  1
  O  O346  1  0.51346310  0.50010736  0.61527371  1
  O  O347  1  0.24752415  0.38415673  0.24347667  1
  O  O348  1  0.25528940  0.38829216  0.74529139  1
  O  O349  1  0.24288778  0.87937397  0.24287268  1
  O  O350  1  0.24035125  0.88197824  0.74313764  1
  O  O351  1  0.74927066  0.38373326  0.24721723  1
  O  O352  1  0.74425907  0.36849296  0.73550923  1
  O  O353  1  0.74512834  0.88294859  0.24178514  1
  O  O354  1  0.75197305  0.88594796  0.75145407  1
  O  O355  1  0.25992059  0.12365667  0.25171678  1
  O  O356  1  0.24967635  0.11840466  0.75070192  1
  O  O357  1  0.25748248  0.62116377  0.25456158  1
  O  O358  1  0.26016998  0.61386897  0.74949899  1
  O  O359  1  0.75199087  0.11587884  0.25732910  1
  O  O360  1  0.76136212  0.11831884  0.75690258  1
  O  O361  1  0.76291654  0.61788000  0.24439761  1
  O  O362  1  0.74349628  0.62370454  0.76633685  1
  O  O363  1  0.37774815  0.11696779  0.36580735  1
  O  O364  1  0.36011650  0.12090650  0.86364125  1
  O  O365  1  0.37032575  0.62666975  0.36600451  1
  O  O366  1  0.37783297  0.62119342  0.86176081  1
  O  O367  1  0.86152280  0.12264758  0.36896548  1
  O  O368  1  0.87089196  0.11600014  0.86974836  1
  O  O369  1  0.87639420  0.61397169  0.36905087  1
  O  O370  1  0.85722398  0.62152401  0.87559635  1
  O  O371  1  0.13735723  0.37986933  0.13870155  1
  O  O372  1  0.12820278  0.39108260  0.61589101  1
  O  O373  1  0.13261953  0.87963621  0.13410783  1
  O  O374  1  0.13537483  0.86722211  0.63068351  1
  O  O375  1  0.63976264  0.37827763  0.13906382  1
  O  O376  1  0.63215181  0.38043240  0.63176680  1
  O  O377  1  0.63669025  0.86639631  0.12637472  1
  O  O378  1  0.62409852  0.88875640  0.61780884  1
  O  O379  1  0.12653423  0.26433886  0.25651122  1
  O  O380  1  0.11263908  0.24968524  0.75659948  1
  O  O381  1  0.11592952  0.75733712  0.24786351  1
  O  O382  1  0.12435880  0.75170768  0.75102004  1
  O  O383  1  0.62278663  0.25501093  0.25945496  1
  O  O384  1  0.61685864  0.25302833  0.75263918  1
  O  O385  1  0.62519247  0.74983569  0.26566842  1
  O  O386  1  0.61181548  0.74636519  0.74701072  1
  O  O387  1  0.38764164  0.24433629  0.25878847  1
  O  O388  1  0.37963843  0.24828845  0.74301602  1
  O  O389  1  0.36935843  0.74175694  0.23471807  1
  O  O390  1  0.38239157  0.74343249  0.74388095  1
  O  O391  1  0.86052695  0.23126629  0.23716295  1
  O  O392  1  0.88544613  0.24250141  0.75009174  1
  O  O393  1  0.87887013  0.74345205  0.24641995  1
  O  O394  1  0.87790647  0.74092373  0.73998464  1
  O  O395  1  0.38517470  0.49209409  0.50036385  1
  O  O396  1  0.37614632  0.50320357  0.98290034  1
  O  O397  1  0.37361777  0.99468948  0.49156548  1
  O  O398  1  0.38872103  1.00776254  0.99107382  1
  O  O399  1  0.87451819  0.49670672  0.49077245  1
  O  O400  1  0.87927125  0.49065881  1.00269419  1
  O  O401  1  0.88046240  0.99195223  0.50209862  1
  O  O402  1  0.88014223  0.99748765  0.98651579  1
  O  O403  1  0.11000982  -0.00566809  -0.00068536  1
  O  O404  1  0.12460464  0.00817018  0.50165612  1
  O  O405  1  0.11674316  0.51093731  0.00073856  1
  O  O406  1  0.13021917  0.51313261  0.50923818  1
  O  O407  1  0.61287446  0.00904581  -0.00666110  1
  O  O408  1  0.62246753  0.00778881  0.50770134  1
  O  O409  1  0.64118523  0.52221923  0.01612782  1
  O  O410  1  0.62083302  0.50831995  0.50417899  1
  O  O411  1  0.36301582  0.38046177  0.12909724  1
  O  O412  1  0.37642646  0.36379356  0.61745850  1
  O  O413  1  0.36972392  0.86868822  0.12337993  1
  O  O414  1  0.36309040  0.86991355  0.62005793  1
  O  O415  1  0.86686954  0.36804203  0.12454691  1
  O  O416  1  0.86798808  0.37151113  0.61891873  1
  O  O417  1  0.86195057  0.86186757  0.13168214  1
  O  O418  1  0.86971208  0.86690244  0.61349442  1
  O  O419  1  0.12418986  0.12685673  0.39238185  1
  O  O420  1  0.13256167  0.13294857  0.86617758  1
  O  O421  1  0.13378134  0.62556650  0.38616406  1
  O  O422  1  0.11964863  0.63051218  0.87937326  1
  O  O423  1  0.63395289  0.13379651  0.38114620  1
  O  O424  1  0.63117183  0.13027416  0.88447811  1
  O  O425  1  0.62051770  0.63957029  0.38501669  1
  O  O426  1  0.63197494  0.62752914  0.88295183  1
