# generated using pymatgen
data_V85Zn86O256
_symmetry_space_group_name_H-M   'P 1'
_cell_length_a   16.91780351
_cell_length_b   16.91254130
_cell_length_c   16.91859293
_cell_angle_alpha   89.97365003
_cell_angle_beta   89.96989173
_cell_angle_gamma   90.10423152
_symmetry_Int_Tables_number   1
_chemical_formula_structural   V85Zn86O256
_chemical_formula_sum   'V85 Zn86 O256'
_cell_volume   4840.79022747
_cell_formula_units_Z   1
loop_
 _symmetry_equiv_pos_site_id
 _symmetry_equiv_pos_as_xyz
  1  'x, y, z'
loop_
 _atom_site_type_symbol
 _atom_site_label
 _atom_site_symmetry_multiplicity
 _atom_site_fract_x
 _atom_site_fract_y
 _atom_site_fract_z
 _atom_site_occupancy
  V  V0  1  0.12572604  0.62815665  0.00179892  1
  V  V1  1  0.62601576  0.86591987  0.25244461  1
  V  V2  1  0.50458334  0.25504620  0.75065706  1
  V  V3  1  0.00065729  0.25468900  0.75772747  1
  V  V4  1  0.12280865  -0.00191514  0.11930964  1
  V  V5  1  0.75991514  0.36883435  0.12394998  1
  V  V6  1  0.50032157  0.86904002  0.37626894  1
  V  V7  1  0.24113380  0.62221073  0.36753725  1
  V  V8  1  -0.00082328  0.12318093  0.12014297  1
  V  V9  1  0.87378905  0.62326198  0.24933350  1
  V  V10  1  0.62359355  0.73888289  0.87770009  1
  V  V11  1  0.24870998  0.62904269  0.87840815  1
  V  V12  1  -0.00170365  0.50420112  0.50161664  1
  V  V13  1  0.24011826  0.75035287  0.49340220  1
  V  V14  1  0.49713001  0.62163284  0.61627280  1
  V  V15  1  0.87264597  0.11963172  0.74917886  1
  V  V16  1  0.50336031  0.12708771  0.62189936  1
  V  V17  1  0.14261952  0.49518836  0.12691107  1
  V  V18  1  0.12079882  0.75976429  0.87183830  1
  V  V19  1  0.62384564  -0.00106297  0.12461299  1
  V  V20  1  0.49459843  0.12680179  0.13370519  1
  V  V21  1  0.12815316  0.50400709  0.62930312  1
  V  V22  1  -0.00229089  0.25275796  0.24548144  1
  V  V23  1  0.36574880  0.87161553  -0.00043778  1
  V  V24  1  0.74987399  0.11205563  0.87468015  1
  V  V25  1  0.00064447  0.37578328  0.37357531  1
  V  V26  1  0.74971704  0.87940303  0.62887395  1
  V  V27  1  0.87336813  0.12966539  0.24661337  1
  V  V28  1  0.73896272  0.49211224  0.24977861  1
  V  V29  1  0.49696246  0.75042773  0.74806338  1
  V  V30  1  0.24973052  0.37989040  0.62893657  1
  V  V31  1  0.75144107  -0.00027976  0.25107503  1
  V  V32  1  0.36656708  0.62034948  0.74706839  1
  V  V33  1  0.62487395  0.12592933  0.00014835  1
  V  V34  1  0.76306260  0.62671369  0.86621272  1
  V  V35  1  0.88135526  0.48877707  0.87050543  1
  V  V36  1  0.36870512  0.49769174  0.87153029  1
  V  V37  1  0.24449113  0.87366369  0.62709725  1
  V  V38  1  0.37010828  0.74631379  0.12145018  1
  V  V39  1  0.50966617  0.38157189  0.37630149  1
  V  V40  1  0.23633861  0.12445750  0.37603614  1
  V  V41  1  0.50571532  0.25548449  0.25011700  1
  V  V42  1  0.12393764  0.37969391  0.75727153  1
  V  V43  1  0.74060527  0.75097778  0.49785294  1
  V  V44  1  0.37109898  0.49872193  0.36662263  1
  V  V45  1  0.89466696  -0.00539819  0.87349443  1
  V  V46  1  0.50023884  0.87483571  0.87541632  1
  V  V47  1  0.50425740  0.37734795  0.87686861  1
  V  V48  1  0.37098896  0.75071877  0.62318506  1
  V  V49  1  0.14097194  0.37574172  0.25019387  1
  V  V50  1  0.36878104  0.37595083  0.00532884  1
  V  V51  1  0.00445910  0.86768786  0.37694364  1
  V  V52  1  0.73989258  0.24546800  0.50022224  1
  V  V53  1  0.12883312  0.86995370  0.25426865  1
  V  V54  1  0.62563259  0.88074433  0.75195437  1
  V  V55  1  0.12616019  0.00402550  0.61583808  1
  V  V56  1  0.76346018  0.25156940  0.00177624  1
  V  V57  1  0.87919750  0.74889409  0.12428449  1
  V  V58  1  0.49870774  0.00079777  0.00057869  1
  V  V59  1  0.87268903  0.74733997  0.63362918  1
  V  V60  1  0.87560052  0.87744051  0.49946456  1
  V  V61  1  0.62286786  0.49629543  0.11156692  1
  V  V62  1  0.49950201  0.74332827  0.25114407  1
  V  V63  1  0.36611974  0.25042333  0.12931543  1
  V  V64  1  0.74900354  0.74370477  -0.00125235  1
  V  V65  1  0.37355290  0.12618311  0.75060916  1
  V  V66  1  0.00484270  0.12885850  0.61576316  1
  V  V67  1  0.37439825  -0.00007166  0.87366218  1
  V  V68  1  0.75075128  0.87304782  0.12296160  1
  V  V69  1  0.62733914  0.00522268  0.62411141  1
  V  V70  1  0.37537485  0.38204959  0.49871582  1
  V  V71  1  -0.00764857  0.48653176  0.00481018  1
  V  V72  1  0.87172563  0.50082444  0.37438463  1
  V  V73  1  0.24315043  -0.00219529  0.74953374  1
  V  V74  1  0.37990551  0.01144743  0.36634840  1
  V  V75  1  0.62947766  0.25499258  0.87432105  1
  V  V76  1  0.74050466  0.62898750  0.37476033  1
  V  V77  1  0.50381685  0.00569936  0.49793078  1
  V  V78  1  -0.00514395  0.62634914  0.63802743  1
  V  V79  1  0.87553133  0.25105367  0.62519241  1
  V  V80  1  0.74495504  0.37566040  0.63531845  1
  V  V81  1  0.87216309  0.37572688  0.50170601  1
  V  V82  1  0.37450090  0.25228545  0.62325924  1
  V  V83  1  0.62046141  0.49824511  0.62703817  1
  V  V84  1  0.88808259  0.87819243  -0.00272267  1
  Zn  Zn85  1  0.11853023  0.24619334  0.38116944  1
  Zn  Zn86  1  0.24190589  0.24451343  0.50320042  1
  Zn  Zn87  1  0.24924265  0.87321005  0.12625085  1
  Zn  Zn88  1  0.87772776  -0.00015809  0.37338267  1
  Zn  Zn89  1  0.62361120  0.24424310  0.37342780  1
  Zn  Zn90  1  0.24649090  0.24888988  -0.00036374  1
  Zn  Zn91  1  0.75092240  0.50273344  0.75081314  1
  Zn  Zn92  1  0.25424727  0.00143045  0.24726549  1
  Zn  Zn93  1  -0.00140413  0.76140164  0.75818230  1
  Zn  Zn94  1  0.00430475  0.00529815  0.49411360  1
  Zn  Zn95  1  0.11927791  0.63075170  0.49700973  1
  Zn  Zn96  1  0.37192277  0.61930913  0.24476265  1
  Zn  Zn97  1  0.12581414  0.25208755  0.87957353  1
  Zn  Zn98  1  0.00494862  0.74476914  0.25664481  1
  Zn  Zn99  1  0.50879350  0.62893231  0.11426913  1
  Zn  Zn100  1  0.61696186  0.62448715  0.49602279  1
  Zn  Zn101  1  0.37328202  0.87598799  0.49739615  1
  Zn  Zn102  1  0.00158241  0.62042708  0.12661447  1
  Zn  Zn103  1  0.50461746  0.51229350  -0.00917243  1
  Zn  Zn104  1  0.74602034  0.12105277  0.37954595  1
  Zn  Zn105  1  0.24402796  0.12924724  0.87547319  1
  Zn  Zn106  1  0.12483267  0.12614012  -0.00437127  1
  Zn  Zn107  1  0.18631503  0.18329955  0.19612262  1
  Zn  Zn108  1  0.18672802  0.19046473  0.68887755  1
  Zn  Zn109  1  0.18787112  0.68736045  0.18590691  1
  Zn  Zn110  1  0.18448448  0.68684174  0.68955659  1
  Zn  Zn111  1  0.68476336  0.18822752  0.18843889  1
  Zn  Zn112  1  0.68956026  0.18784580  0.69018488  1
  Zn  Zn113  1  0.68843267  0.68286592  0.18505080  1
  Zn  Zn114  1  0.68408929  0.68873600  0.68821830  1
  Zn  Zn115  1  0.31867153  0.30342578  0.31381287  1
  Zn  Zn116  1  0.31037596  0.31431803  0.81204123  1
  Zn  Zn117  1  0.31486894  0.81144842  0.31229359  1
  Zn  Zn118  1  0.30722841  0.81077776  0.81319428  1
  Zn  Zn119  1  0.81185249  0.31249922  0.31191058  1
  Zn  Zn120  1  0.81451328  0.30966836  0.81481955  1
  Zn  Zn121  1  0.81471697  0.81092409  0.31394271  1
  Zn  Zn122  1  0.81411170  0.81835475  0.81144105  1
  Zn  Zn123  1  0.18635138  0.43703878  0.44081065  1
  Zn  Zn124  1  0.18866291  0.44179936  0.94064944  1
  Zn  Zn125  1  0.18999391  0.93758047  0.43559769  1
  Zn  Zn126  1  0.18681432  0.94298627  0.93847426  1
  Zn  Zn127  1  0.68662934  0.44047840  0.44646395  1
  Zn  Zn128  1  0.69550254  0.43545193  0.93613692  1
  Zn  Zn129  1  0.68435246  0.93709369  0.43676574  1
  Zn  Zn130  1  0.68965917  0.93219329  0.94022802  1
  Zn  Zn131  1  0.30908480  0.06407424  0.06259137  1
  Zn  Zn132  1  0.31607623  0.06182719  0.55840031  1
  Zn  Zn133  1  0.31825818  0.56477342  0.05773581  1
  Zn  Zn134  1  0.30970726  0.56228148  0.55519212  1
  Zn  Zn135  1  0.81635017  0.06175134  0.06093305  1
  Zn  Zn136  1  0.81395945  0.06210405  0.56372063  1
  Zn  Zn137  1  0.81041109  0.56088544  0.05984751  1
  Zn  Zn138  1  0.80894442  0.56380423  0.56417910  1
  Zn  Zn139  1  0.44028482  0.43481240  0.18824864  1
  Zn  Zn140  1  0.43912826  0.43822015  0.68979254  1
  Zn  Zn141  1  0.43879495  0.93320336  0.18708776  1
  Zn  Zn142  1  0.43466401  0.93753979  0.68491728  1
  Zn  Zn143  1  0.93686013  0.43695014  0.18689735  1
  Zn  Zn144  1  0.93691210  0.43774089  0.68992059  1
  Zn  Zn145  1  0.94051233  0.93586953  0.18923709  1
  Zn  Zn146  1  0.94268444  0.93880869  0.68729416  1
  Zn  Zn147  1  0.06002315  0.05454510  0.30666194  1
  Zn  Zn148  1  0.06388829  0.06512757  0.80513433  1
  Zn  Zn149  1  0.06317695  0.55851436  0.30929168  1
  Zn  Zn150  1  0.05931645  0.56316051  0.81566997  1
  Zn  Zn151  1  0.56828356  0.06381729  0.31268529  1
  Zn  Zn152  1  0.56253538  0.06479252  0.81112829  1
  Zn  Zn153  1  0.56083399  0.55807022  0.31123226  1
  Zn  Zn154  1  0.56087453  0.56243751  0.80484456  1
  Zn  Zn155  1  0.43812463  0.19240694  0.43909214  1
  Zn  Zn156  1  0.43534123  0.18923565  0.94057579  1
  Zn  Zn157  1  0.42832932  0.68804890  0.43543100  1
  Zn  Zn158  1  0.43744332  0.68586716  0.93841303  1
  Zn  Zn159  1  0.93061801  0.18893980  0.43264803  1
  Zn  Zn160  1  0.94031930  0.18444772  0.93619607  1
  Zn  Zn161  1  0.93021228  0.68937866  0.44138943  1
  Zn  Zn162  1  0.94151087  0.68235881  0.94118825  1
  Zn  Zn163  1  0.06579854  0.31193779  0.06655146  1
  Zn  Zn164  1  0.06420529  0.31447294  0.56296160  1
  Zn  Zn165  1  0.06529752  0.80918372  0.06325737  1
  Zn  Zn166  1  0.06103715  0.81540682  0.56913669  1
  Zn  Zn167  1  0.56590209  0.31610572  0.06243257  1
  Zn  Zn168  1  0.56098638  0.31906813  0.56128612  1
  Zn  Zn169  1  0.55960964  0.80971841  0.06119436  1
  Zn  Zn170  1  0.56076507  0.81377893  0.56241803  1
  O  O171  1  0.11762332  0.11294964  0.13059718  1
  O  O172  1  0.11552040  0.11958262  0.62877395  1
  O  O173  1  0.12537745  0.61366847  0.12040795  1
  O  O174  1  0.11507291  0.61993993  0.62260282  1
  O  O175  1  0.61806423  0.11822212  0.11896088  1
  O  O176  1  0.62175638  0.11203096  0.63349809  1
  O  O177  1  0.62865527  0.60285006  0.13072395  1
  O  O178  1  0.61218757  0.62294730  0.62479187  1
  O  O179  1  0.37845244  0.38002975  0.38183643  1
  O  O180  1  0.38232116  0.38267880  0.87828160  1
  O  O181  1  0.38690618  0.88461190  0.37512736  1
  O  O182  1  0.37957719  0.87803078  0.88051320  1
  O  O183  1  0.87993438  0.38214308  0.38094346  1
  O  O184  1  0.86856616  0.38986027  0.87765634  1
  O  O185  1  0.88049782  0.87587878  0.38372333  1
  O  O186  1  0.87069907  0.88842790  0.88144688  1
  O  O187  1  0.26542191  0.00740562  0.37670077  1
  O  O188  1  0.25675138  0.00077193  0.86472171  1
  O  O189  1  0.25583029  0.51310174  0.38109190  1
  O  O190  1  0.26240558  0.50910059  0.87633548  1
  O  O191  1  0.75000450  -0.00393754  0.36102928  1
  O  O192  1  0.74853749  0.01034123  0.87665952  1
  O  O193  1  0.75323705  0.50269959  0.36852068  1
  O  O194  1  0.76161387  0.50885962  0.87568712  1
  O  O195  1  0.24099934  0.50135547  0.12131920  1
  O  O196  1  0.23873915  0.49575383  0.62029283  1
  O  O197  1  0.23858089  0.99802034  0.12890461  1
  O  O198  1  0.24696227  0.99487134  0.62782528  1
  O  O199  1  0.74424590  0.49045686  0.12887784  1
  O  O200  1  0.74622448  0.49189978  0.62923639  1
  O  O201  1  0.74567292  0.99361220  0.13300498  1
  O  O202  1  0.73961537  0.99191454  0.61923856  1
  O  O203  1  0.00161764  0.36837629  0.25436111  1
  O  O204  1  0.01023431  0.36617657  0.74240686  1
  O  O205  1  0.00624507  0.87032978  0.25992973  1
  O  O206  1  -0.00308811  0.87161310  0.75189181  1
  O  O207  1  0.49860825  0.37003984  0.26639105  1
  O  O208  1  0.49564401  0.36226620  0.76029652  1
  O  O209  1  0.50758436  0.86464281  0.25511863  1
  O  O210  1  0.50427716  0.87020890  0.75428079  1
  O  O211  1  0.50424448  0.13039665  0.23790609  1
  O  O212  1  0.49449697  0.13493672  0.74406520  1
  O  O213  1  0.50161472  0.63597979  0.24981155  1
  O  O214  1  0.48776924  0.63250447  0.74086263  1
  O  O215  1  0.99242759  0.13134821  0.24638531  1
  O  O216  1  0.98992498  0.13250082  0.73916252  1
  O  O217  1  0.98669018  0.62468702  0.25018734  1
  O  O218  1  1.00064317  0.63215922  0.74007711  1
  O  O219  1  0.37588152  0.25925130  0.00996472  1
  O  O220  1  0.37244736  0.26234124  0.50733071  1
  O  O221  1  0.38138290  0.76065061  0.00735990  1
  O  O222  1  0.36202591  0.75151569  0.50836384  1
  O  O223  1  0.86252315  0.24371867  -0.00425044  1
  O  O224  1  0.86805700  0.25862021  0.50630005  1
  O  O225  1  0.87000441  0.75526415  0.00549628  1
  O  O226  1  0.86380160  0.76165232  0.50944127  1
  O  O227  1  0.12853072  0.25823866  0.49327144  1
  O  O228  1  0.12738007  0.24868469  0.99866259  1
  O  O229  1  0.13614704  0.75054930  0.50554510  1
  O  O230  1  0.12290886  0.73463083  0.99556019  1
  O  O231  1  0.63799144  0.25204883  0.50419405  1
  O  O232  1  0.62970519  0.24408087  0.98951887  1
  O  O233  1  0.63668432  0.74819895  0.50474626  1
  O  O234  1  0.63557802  0.75943513  0.98820405  1
  O  O235  1  0.49772445  0.24468487  0.12986169  1
  O  O236  1  0.49755123  0.24828758  0.63269892  1
  O  O237  1  0.49324164  0.74978699  0.13412816  1
  O  O238  1  0.49129305  0.74604965  0.62947955  1
  O  O239  1  1.00508286  0.24141639  0.13903723  1
  O  O240  1  0.99383875  0.24560738  0.63128131  1
  O  O241  1  0.98753811  0.74456695  0.12656844  1
  O  O242  1  0.98984269  0.74149270  0.62237270  1
  O  O243  1  -0.00227270  0.25707577  0.36529565  1
  O  O244  1  -0.00119486  0.24855905  0.86105940  1
  O  O245  1  -0.00639325  0.76169370  0.37695115  1
  O  O246  1  0.01619125  0.74258508  0.87748393  1
  O  O247  1  0.50005813  0.26097962  0.36829686  1
  O  O248  1  0.50765287  0.25533076  0.86974975  1
  O  O249  1  0.49341881  0.75768512  0.36694037  1
  O  O250  1  0.50734119  0.75581411  0.86863126  1
  O  O251  1  0.25990531  0.12522181  0.48198238  1
  O  O252  1  0.24708759  0.12784295  0.99444880  1
  O  O253  1  0.24521714  0.63323295  0.48991796  1
  O  O254  1  0.24122004  0.61830922  0.98968600  1
  O  O255  1  0.75785223  0.14216092  0.50184700  1
  O  O256  1  0.74443872  0.12972291  0.99443137  1
  O  O257  1  0.75060232  0.63464643  0.49140126  1
  O  O258  1  0.75328287  0.63796346  0.99064651  1
  O  O259  1  0.26554041  0.37546177  -0.00333745  1
  O  O260  1  0.25707215  0.37503740  0.51156288  1
  O  O261  1  0.26319797  0.87947386  0.00141102  1
  O  O262  1  0.25259127  0.86794974  0.50518410  1
  O  O263  1  0.74773654  0.36460413  0.01167975  1
  O  O264  1  0.75455020  0.36698458  0.51073794  1
  O  O265  1  0.75873113  0.86435349  0.00558886  1
  O  O266  1  0.75266774  0.86982350  0.50701041  1
  O  O267  1  0.12175162  0.49320499  0.23415146  1
  O  O268  1  0.11536353  0.49590670  0.73759741  1
  O  O269  1  0.12752879  0.98665327  0.24080909  1
  O  O270  1  0.13893008  1.00523218  0.73769479  1
  O  O271  1  0.63667820  0.49793465  0.24609470  1
  O  O272  1  0.63147998  0.50595442  0.73502469  1
  O  O273  1  0.63025214  0.98758398  0.24281827  1
  O  O274  1  0.61772599  0.98792153  0.74255394  1
  O  O275  1  0.37846924  -0.00363504  0.26318245  1
  O  O276  1  0.36876958  0.00814863  0.75227459  1
  O  O277  1  0.37713239  0.49918006  0.26144335  1
  O  O278  1  0.37894876  0.50886425  0.75865621  1
  O  O279  1  0.86553628  0.00354991  0.24978131  1
  O  O280  1  0.87653951  0.00764704  0.76251713  1
  O  O281  1  0.86534102  0.50681587  0.25336374  1
  O  O282  1  0.87473873  0.49907321  0.76544618  1
  O  O283  1  0.11517460  0.38303147  0.36557658  1
  O  O284  1  0.13140890  0.38184590  0.86001433  1
  O  O285  1  0.11845476  0.87758995  0.36736328  1
  O  O286  1  0.13254792  0.85739257  0.88546605  1
  O  O287  1  0.61181558  0.37498444  0.38410986  1
  O  O288  1  0.61949839  0.36665554  0.87797913  1
  O  O289  1  0.61181699  0.87895932  0.36521189  1
  O  O290  1  0.62178036  0.86937828  0.86692871  1
  O  O291  1  0.38667530  0.13474548  0.11754898  1
  O  O292  1  0.38160288  0.12906090  0.63427112  1
  O  O293  1  0.38169237  0.63132814  0.12622829  1
  O  O294  1  0.37681137  0.62781300  0.62958023  1
  O  O295  1  0.88375513  0.11675121  0.13687410  1
  O  O296  1  0.87906183  0.12910123  0.63384803  1
  O  O297  1  0.87180605  0.63084593  0.13284758  1
  O  O298  1  0.88159844  0.63534566  0.61965572  1
  O  O299  1  0.26362622  0.24300166  0.13004698  1
  O  O300  1  0.25807536  0.25876233  0.62514338  1
  O  O301  1  0.26559048  0.75145334  0.12762388  1
  O  O302  1  0.25130166  0.75666225  0.62084376  1
  O  O303  1  0.74391346  0.26098679  0.11815649  1
  O  O304  1  0.75367930  0.25572815  0.61829898  1
  O  O305  1  0.75833798  0.75149043  0.11773999  1
  O  O306  1  0.75354842  0.75704984  0.61900621  1
  O  O307  1  0.24985938  0.23298680  0.37582749  1
  O  O308  1  0.24760249  0.24831916  0.87630130  1
  O  O309  1  0.25739911  0.73639009  0.38272619  1
  O  O310  1  0.24134704  0.73672542  0.87389613  1
  O  O311  1  0.74828063  0.25570584  0.39128376  1
  O  O312  1  0.74481392  0.24250565  0.88167483  1
  O  O313  1  0.75359213  0.74108932  0.38381378  1
  O  O314  1  0.74627668  0.74569477  0.87965087  1
  O  O315  1  -0.00063269  0.12876714  0.01700620  1
  O  O316  1  -0.01185786  0.12545541  0.51217218  1
  O  O317  1  0.01076300  0.61289831  0.00437164  1
  O  O318  1  -0.00221407  0.61556484  0.50397127  1
  O  O319  1  0.50619596  0.11946418  0.00575934  1
  O  O320  1  0.49648457  0.11874209  0.50942309  1
  O  O321  1  0.50644478  0.62571885  -0.00032115  1
  O  O322  1  0.49644746  0.63294619  0.51244816  1
  O  O323  1  0.49009203  0.37090732  0.48678464  1
  O  O324  1  0.49406562  0.37544196  0.98615282  1
  O  O325  1  0.49886989  0.88116187  0.49132050  1
  O  O326  1  0.49438341  0.88204231  0.99298400  1
  O  O327  1  0.99229846  0.38781044  0.49757921  1
  O  O328  1  1.00344073  0.38815032  1.00257776  1
  O  O329  1  0.99140342  0.87638931  0.49679893  1
  O  O330  1  0.98689736  0.87147302  1.00545632  1
  O  O331  1  0.49235763  0.48842639  0.37394971  1
  O  O332  1  0.49404033  0.49219100  0.87055568  1
  O  O333  1  0.49455609  0.99600776  0.37897437  1
  O  O334  1  0.49408338  0.99505411  0.87808185  1
  O  O335  1  0.99243910  0.49772693  0.38256860  1
  O  O336  1  0.98849837  0.50257649  0.88608866  1
  O  O337  1  0.99719299  0.98702526  0.37770861  1
  O  O338  1  0.99259313  1.00219435  0.87474378  1
  O  O339  1  0.01275674  0.00742296  0.13279496  1
  O  O340  1  0.00878621  0.01048375  0.62112502  1
  O  O341  1  0.00149129  0.50056891  0.11443952  1
  O  O342  1  0.00125824  0.50853476  0.61904947  1
  O  O343  1  0.50312544  0.00733163  0.12143296  1
  O  O344  1  0.50521728  0.00471655  0.61706926  1
  O  O345  1  0.51495553  0.49692575  0.12296327  1
  O  O346  1  0.50585397  0.50956230  0.62913942  1
  O  O347  1  0.23955807  0.36885866  0.25972710  1
  O  O348  1  0.24363270  0.37508199  0.73603673  1
  O  O349  1  0.24377619  0.87796741  0.25025822  1
  O  O350  1  0.25675463  0.88561537  0.74019124  1
  O  O351  1  0.75290826  0.38000370  0.23837757  1
  O  O352  1  0.75291650  0.37203529  0.73820924  1
  O  O353  1  0.74422147  0.87788675  0.24475303  1
  O  O354  1  0.74053302  0.87194450  0.73750590  1
  O  O355  1  0.25125555  0.11875502  0.26873394  1
  O  O356  1  0.25991467  0.11804286  0.74831436  1
  O  O357  1  0.25125654  0.62911375  0.26411599  1
  O  O358  1  0.26105645  0.62674234  0.75483740  1
  O  O359  1  0.75630582  0.11575556  0.24517077  1
  O  O360  1  0.76431814  0.13178169  0.75990787  1
  O  O361  1  0.75695830  0.61787260  0.25689800  1
  O  O362  1  0.74933954  0.62841357  0.76250349  1
  O  O363  1  0.38026168  0.11280279  0.37453563  1
  O  O364  1  0.37940223  0.12034630  0.86206036  1
  O  O365  1  0.36588664  0.61430191  0.37240316  1
  O  O366  1  0.36835883  0.62055689  0.86725761  1
  O  O367  1  0.86708990  0.12007360  0.36271957  1
  O  O368  1  0.87127167  0.11242607  0.87081340  1
  O  O369  1  0.86439624  0.62043524  0.36880752  1
  O  O370  1  0.86874129  0.61596891  0.88026203  1
  O  O371  1  0.12604604  0.38720539  0.13411810  1
  O  O372  1  0.13215685  0.38499228  0.63163107  1
  O  O373  1  0.12571901  0.88329559  0.12891584  1
  O  O374  1  0.13742133  0.88439016  0.62348928  1
  O  O375  1  0.63506814  0.38816485  0.12353866  1
  O  O376  1  0.63197299  0.38416593  0.62299211  1
  O  O377  1  0.63014341  0.87900247  0.13036677  1
  O  O378  1  0.62893571  0.88336594  0.63146692  1
  O  O379  1  0.11685190  0.25891097  0.25667523  1
  O  O380  1  0.11661331  0.26124885  0.74912997  1
  O  O381  1  0.12152740  0.76395962  0.24016607  1
  O  O382  1  0.12506723  0.74648108  0.76775151  1
  O  O383  1  0.61145097  0.25126659  0.24979252  1
  O  O384  1  0.61781867  0.24376609  0.76313838  1
  O  O385  1  0.62106675  0.75974314  0.24351519  1
  O  O386  1  0.61839230  0.76131186  0.75615396  1
  O  O387  1  0.39043015  0.25307152  0.23948661  1
  O  O388  1  0.38310265  0.24385688  0.74471761  1
  O  O389  1  0.38476859  0.74841001  0.24118857  1
  O  O390  1  0.37696410  0.74342306  0.74307264  1
  O  O391  1  0.88125213  0.24042588  0.25235851  1
  O  O392  1  0.88156251  0.24413371  0.74469841  1
  O  O393  1  0.87345370  0.74072291  0.24111143  1
  O  O394  1  0.87217904  0.75324837  0.73686027  1
  O  O395  1  0.37245071  0.48867879  0.48975816  1
  O  O396  1  0.38211489  0.49273822  0.99064419  1
  O  O397  1  0.38898846  0.99739882  0.49073297  1
  O  O398  1  0.38094189  0.99372129  0.99355543  1
  O  O399  1  0.87824975  0.49528574  0.49591589  1
  O  O400  1  0.88691799  0.50185676  0.99444528  1
  O  O401  1  0.87362797  0.98714361  0.49902564  1
  O  O402  1  0.87113587  0.99243247  0.98465828  1
  O  O403  1  0.12478984  0.00122236  0.01524986  1
  O  O404  1  0.12638912  -0.00054043  0.51177613  1
  O  O405  1  0.11811182  0.50344479  0.01130129  1
  O  O406  1  0.11364529  0.50128063  0.51139487  1
  O  O407  1  0.61970819  0.00301635  0.00528357  1
  O  O408  1  0.61284134  -0.00460952  0.50863556  1
  O  O409  1  0.62665797  0.49667656  0.00842755  1
  O  O410  1  0.63122004  0.50928877  0.51849951  1
  O  O411  1  0.38342943  0.36532892  0.11569569  1
  O  O412  1  0.36950411  0.37504663  0.61975409  1
  O  O413  1  0.37607544  0.86810348  0.11560121  1
  O  O414  1  0.36395082  0.86956442  0.62176380  1
  O  O415  1  0.85926114  0.37811686  0.12434821  1
  O  O416  1  0.86731600  0.37132410  0.62054865  1
  O  O417  1  0.87010656  0.86766093  0.12029282  1
  O  O418  1  0.86467536  0.87262843  0.61884544  1
  O  O419  1  0.13373389  0.11874983  0.37491910  1
  O  O420  1  0.12405056  0.12862400  0.87537736  1
  O  O421  1  0.13630825  0.61967576  0.37624416  1
  O  O422  1  0.13263362  0.62446582  0.88290801  1
  O  O423  1  0.63304742  0.12964782  0.37286398  1
  O  O424  1  0.63270894  0.13020082  0.87888771  1
  O  O425  1  0.63630887  0.61920230  0.37601794  1
  O  O426  1  0.63042556  0.63656532  0.86777331  1
