# generated using pymatgen
data_V85Zn86O256
_symmetry_space_group_name_H-M   'P 1'
_cell_length_a   16.96269288
_cell_length_b   16.95373666
_cell_length_c   16.96020657
_cell_angle_alpha   89.96180268
_cell_angle_beta   90.02008720
_cell_angle_gamma   89.96796541
_symmetry_Int_Tables_number   1
_chemical_formula_structural   V85Zn86O256
_chemical_formula_sum   'V85 Zn86 O256'
_cell_volume   4877.43149816
_cell_formula_units_Z   1
loop_
 _symmetry_equiv_pos_site_id
 _symmetry_equiv_pos_as_xyz
  1  'x, y, z'
loop_
 _atom_site_type_symbol
 _atom_site_label
 _atom_site_symmetry_multiplicity
 _atom_site_fract_x
 _atom_site_fract_y
 _atom_site_fract_z
 _atom_site_occupancy
  V  V0  1  0.11668477  0.62502163  0.01558421  1
  V  V1  1  0.24992530  0.49814842  0.24515129  1
  V  V2  1  -0.01719623  0.37827228  0.88263541  1
  V  V3  1  0.87654961  0.61966378  0.75481441  1
  V  V4  1  0.49903287  0.24657680  0.75319634  1
  V  V5  1  0.88466227  0.25195763  0.61646150  1
  V  V6  1  0.75105409  0.61747983  0.87555841  1
  V  V7  1  0.37473720  0.62273679  0.74770401  1
  V  V8  1  0.61381016  0.61377820  0.51882355  1
  V  V9  1  0.37397981  0.25212973  0.62338028  1
  V  V10  1  0.87464064  0.49540362  0.37536224  1
  V  V11  1  0.75371291  0.12776186  0.37522494  1
  V  V12  1  0.37332891  0.87712766  0.50199765  1
  V  V13  1  0.62370003  0.62914161  -0.00136025  1
  V  V14  1  0.37694411  -0.00046900  0.87260531  1
  V  V15  1  -0.00539634  0.49200327  0.50130092  1
  V  V16  1  0.37690236  0.50338393  0.37763306  1
  V  V17  1  0.12391008  0.37348550  0.75894722  1
  V  V18  1  0.11589957  0.88583926  0.74933648  1
  V  V19  1  0.76079238  0.37924469  0.62085931  1
  V  V20  1  0.75329426  0.49472172  0.74945766  1
  V  V21  1  0.37586906  0.74674058  0.62455758  1
  V  V22  1  0.87947574  0.25172750  0.12457073  1
  V  V23  1  0.24506965  0.63468880  0.88267504  1
  V  V24  1  0.62366324  0.12800428  0.00140011  1
  V  V25  1  0.08214977  0.42679651  0.19989627  1
  V  V26  1  0.01403856  0.37136524  0.37726866  1
  V  V27  1  0.75265593  -0.00307191  0.25071562  1
  V  V28  1  0.36282432  0.76227267  0.11082536  1
  V  V29  1  0.49962289  0.74380555  0.74642069  1
  V  V30  1  0.74871829  0.74650111  0.49589031  1
  V  V31  1  0.74943453  0.50708953  0.25236593  1
  V  V32  1  0.93117656  0.93142102  0.55746206  1
  V  V33  1  0.50380271  0.00229368  0.50078150  1
  V  V34  1  -0.02382703  -0.00490986  -0.00505199  1
  V  V35  1  0.62671653  0.73587807  0.37364470  1
  V  V36  1  0.49981196  0.37978921  0.37528587  1
  V  V37  1  0.87428702  0.75457719  0.11830056  1
  V  V38  1  0.26044199  0.37172761  0.12815066  1
  V  V39  1  0.49772293  0.12766219  0.12589869  1
  V  V40  1  0.24299550  -0.00713060  0.24979993  1
  V  V41  1  0.00055312  0.74612606  0.24842989  1
  V  V42  1  0.37363285  0.00209847  0.37516868  1
  V  V43  1  0.24787687  0.88930838  0.63465224  1
  V  V44  1  0.37412474  0.38071308  0.49864278  1
  V  V45  1  0.12464162  0.62344723  0.50293895  1
  V  V46  1  0.37274314  0.63183105  0.24852763  1
  V  V47  1  0.87797294  0.12612037  0.25001520  1
  V  V48  1  0.87342428  0.62850245  0.25076377  1
  V  V49  1  0.62449379  0.00032926  0.12621503  1
  V  V50  1  0.75574789  0.25292716  0.00016996  1
  V  V51  1  0.37319226  0.12792755  0.24695711  1
  V  V52  1  0.62567983  0.87480443  0.25462091  1
  V  V53  1  0.01560836  0.24565490  0.25133304  1
  V  V54  1  0.18070600  -0.05744854  0.07380161  1
  V  V55  1  0.24792865  0.49979589  0.75560211  1
  V  V56  1  0.37097585  0.12111490  0.74875874  1
  V  V57  1  0.75066881  0.37658771  0.12127931  1
  V  V58  1  0.49804744  -0.00655100  0.00214751  1
  V  V59  1  0.86400271  0.12319500  0.75103910  1
  V  V60  1  0.49672153  0.63108051  0.12394822  1
  V  V61  1  0.49664597  0.25186390  0.24611141  1
  V  V62  1  0.01137524  0.11762382  0.11736104  1
  V  V63  1  0.24421780  0.12450384  0.87273412  1
  V  V64  1  0.23740015  0.13165788  0.37477744  1
  V  V65  1  0.75881972  0.26006782  0.49444116  1
  V  V66  1  0.60337947  0.39250173  0.71651111  1
  V  V67  1  0.25008833  0.75095626  0.50250149  1
  V  V68  1  0.49806477  0.37669266  0.88155579  1
  V  V69  1  0.62614181  0.25289836  0.87501940  1
  V  V70  1  0.62638813  0.25362940  0.37451585  1
  V  V71  1  0.25048795  0.62682364  0.37661732  1
  V  V72  1  0.24681959  0.37349334  0.62656745  1
  V  V73  1  0.87311608  0.74390838  0.61923563  1
  V  V74  1  0.49914013  0.13011857  0.62255082  1
  V  V75  1  0.62491391  0.13116803  0.49892027  1
  V  V76  1  0.88012034  -0.00341692  0.37825283  1
  V  V77  1  -0.00028255  0.24654529  0.75169159  1
  V  V78  1  0.62419100  0.50236242  0.12530123  1
  V  V79  1  -0.00101526  0.62146034  0.62554453  1
  V  V80  1  0.62568857  0.87395411  0.74082461  1
  V  V81  1  0.25186425  0.24087911  0.00721115  1
  V  V82  1  0.49840358  0.87011814  0.87673297  1
  V  V83  1  -0.00198409  0.87292807  0.37691470  1
  V  V84  1  0.11664260  0.12204180  0.51312623  1
  Zn  Zn85  1  0.12275386  0.24400445  0.88145935  1
  Zn  Zn86  1  -0.02564510  0.86633130  0.88969076  1
  Zn  Zn87  1  0.00029602  0.10626648  0.62866306  1
  Zn  Zn88  1  0.75634668  0.12356153  0.87558105  1
  Zn  Zn89  1  0.12011816  0.75326457  0.87580002  1
  Zn  Zn90  1  0.00325946  0.74731299  0.75192343  1
  Zn  Zn91  1  0.12243131  0.49748419  0.62670274  1
  Zn  Zn92  1  0.75626589  0.75662069  -0.00825105  1
  Zn  Zn93  1  -0.00137046  0.50000238  -0.00043134  1
  Zn  Zn94  1  0.62598200  0.37599995  0.25048590  1
  Zn  Zn95  1  0.12344290  0.87572190  0.24523555  1
  Zn  Zn96  1  0.62435110  0.74923336  0.87404901  1
  Zn  Zn97  1  0.74850720  0.88025322  0.61901227  1
  Zn  Zn98  1  0.37344038  0.49939611  0.88090433  1
  Zn  Zn99  1  0.12457510  0.75405060  0.37666343  1
  Zn  Zn100  1  0.75440821  0.88069689  0.10771948  1
  Zn  Zn101  1  0.50155689  0.87457611  0.37640316  1
  Zn  Zn102  1  0.37332135  0.37387935  0.00311556  1
  Zn  Zn103  1  0.49867576  0.75507634  0.25011490  1
  Zn  Zn104  1  0.49434652  0.50038126  0.00210942  1
  Zn  Zn105  1  0.24300007  0.25504344  0.49158779  1
  Zn  Zn106  1  0.63497478  0.01405965  0.63593238  1
  Zn  Zn107  1  0.19077618  0.18221149  0.18288124  1
  Zn  Zn108  1  0.18605363  0.18696124  0.68756303  1
  Zn  Zn109  1  0.18704909  0.69358107  0.18826203  1
  Zn  Zn110  1  0.18705948  0.69121324  0.69034121  1
  Zn  Zn111  1  0.68682905  0.18805108  0.18922289  1
  Zn  Zn112  1  0.68588486  0.20390381  0.68197712  1
  Zn  Zn113  1  0.69107819  0.69014117  0.18631958  1
  Zn  Zn114  1  0.68817231  0.68541379  0.68410477  1
  Zn  Zn115  1  0.31157463  0.31342708  0.30936157  1
  Zn  Zn116  1  0.31286699  0.30973347  0.81746978  1
  Zn  Zn117  1  0.31253980  0.81339365  0.31356067  1
  Zn  Zn118  1  0.31272949  0.81500689  0.81145707  1
  Zn  Zn119  1  0.82010675  0.31940211  0.30635274  1
  Zn  Zn120  1  0.81130881  0.30945178  0.80795908  1
  Zn  Zn121  1  0.81205683  0.81329349  0.31724756  1
  Zn  Zn122  1  0.80545038  0.79869761  0.80568307  1
  Zn  Zn123  1  0.18792141  0.44209248  0.43696798  1
  Zn  Zn124  1  0.18556361  0.43924885  0.94493258  1
  Zn  Zn125  1  0.18489382  0.93997267  0.43990126  1
  Zn  Zn126  1  0.18328838  0.94674334  0.91641085  1
  Zn  Zn127  1  0.68754772  0.44198721  0.43718576  1
  Zn  Zn128  1  0.68619808  0.43860530  0.93824957  1
  Zn  Zn129  1  0.69062008  0.93638637  0.44206482  1
  Zn  Zn130  1  0.78911200  0.93835617  0.91795572  1
  Zn  Zn131  1  0.31786973  0.06243286  0.06046978  1
  Zn  Zn132  1  0.31039085  0.06619804  0.55817724  1
  Zn  Zn133  1  0.31037276  0.56205979  0.06284541  1
  Zn  Zn134  1  0.31183270  0.55994417  0.56651589  1
  Zn  Zn135  1  0.81181218  0.06771272  0.06449000  1
  Zn  Zn136  1  0.80781902  0.07152499  0.56849701  1
  Zn  Zn137  1  0.81552590  0.57224124  0.05989473  1
  Zn  Zn138  1  0.80669058  0.56379255  0.55849252  1
  Zn  Zn139  1  0.43668726  0.44222581  0.18939907  1
  Zn  Zn140  1  0.43468485  0.43679779  0.68920773  1
  Zn  Zn141  1  0.43642710  0.93738168  0.18976429  1
  Zn  Zn142  1  0.44237685  0.93774003  0.68619213  1
  Zn  Zn143  1  0.90929151  0.46396043  0.14787324  1
  Zn  Zn144  1  0.93768328  0.43584507  0.69131187  1
  Zn  Zn145  1  0.94082946  0.93393951  0.18651152  1
  Zn  Zn146  1  0.90771151  0.92047670  0.73849699  1
  Zn  Zn147  1  0.06197035  0.05994700  0.31192165  1
  Zn  Zn148  1  0.05537182  0.05890549  0.81421268  1
  Zn  Zn149  1  0.05846130  0.56927818  0.31922991  1
  Zn  Zn150  1  0.06227122  0.55810413  0.81721021  1
  Zn  Zn151  1  0.56309283  0.06412618  0.31488345  1
  Zn  Zn152  1  0.61321229  0.02236816  0.84996289  1
  Zn  Zn153  1  0.55934792  0.56298746  0.31018918  1
  Zn  Zn154  1  0.56215621  0.56104352  0.81176131  1
  Zn  Zn155  1  0.43312799  0.19217635  0.43413195  1
  Zn  Zn156  1  0.43330457  0.18774958  0.93935402  1
  Zn  Zn157  1  0.44318275  0.68800583  0.43795204  1
  Zn  Zn158  1  0.43318228  0.68605119  0.93619141  1
  Zn  Zn159  1  0.94419753  0.18754442  0.43614991  1
  Zn  Zn160  1  0.93840009  0.18562066  0.93683703  1
  Zn  Zn161  1  0.93525634  0.68269081  0.43564443  1
  Zn  Zn162  1  0.94240338  0.68246834  0.93584179  1
  Zn  Zn163  1  0.06707629  0.30494933  0.05764357  1
  Zn  Zn164  1  0.06810598  0.30899152  0.56015731  1
  Zn  Zn165  1  0.05654824  0.80456701  0.05737764  1
  Zn  Zn166  1  0.06843685  0.80758576  0.57137182  1
  Zn  Zn167  1  0.56402769  0.31390415  0.06375548  1
  Zn  Zn168  1  0.55973951  0.32730621  0.56235352  1
  Zn  Zn169  1  0.56498877  0.81368514  0.06474665  1
  Zn  Zn170  1  0.55989211  0.80615733  0.55810121  1
  O  O171  1  0.11005831  0.12494175  0.12538339  1
  O  O172  1  0.12059698  0.12251701  0.61891837  1
  O  O173  1  0.13068520  0.62649097  0.11382976  1
  O  O174  1  0.12109625  0.62275805  0.61650177  1
  O  O175  1  0.61800576  0.12026406  0.12355964  1
  O  O176  1  0.61727985  0.13204106  0.61829863  1
  O  O177  1  0.61797205  0.62167048  0.12068489  1
  O  O178  1  0.61945198  0.62207664  0.61916016  1
  O  O179  1  0.37816190  0.38108379  0.38079149  1
  O  O180  1  0.38481837  0.37732582  0.87611932  1
  O  O181  1  0.37462298  0.88824964  0.38185714  1
  O  O182  1  0.38707542  0.88577518  0.86568431  1
  O  O183  1  0.89136080  0.38998571  0.36353922  1
  O  O184  1  0.88453934  0.36892889  0.87531607  1
  O  O185  1  0.88561137  0.88249242  0.37678231  1
  O  O186  1  0.86825831  0.88509049  0.84436395  1
  O  O187  1  0.25596590  0.01003768  0.36903629  1
  O  O188  1  0.26910792  0.00929668  0.87522964  1
  O  O189  1  0.25732144  0.50600615  0.36629728  1
  O  O190  1  0.24997865  0.50459945  0.86436920  1
  O  O191  1  0.76154870  0.00406090  0.37234141  1
  O  O192  1  0.72316641  0.01665897  0.87373418  1
  O  O193  1  0.76060516  0.48981511  0.36245797  1
  O  O194  1  0.74613716  0.50809974  0.86750513  1
  O  O195  1  0.25134549  0.49243534  0.13846548  1
  O  O196  1  0.24876108  0.48856317  0.63739598  1
  O  O197  1  0.24685322  1.00464634  0.13253018  1
  O  O198  1  0.25854682  0.98706038  0.62363740  1
  O  O199  1  0.74201070  0.49549307  0.13034959  1
  O  O200  1  0.75371565  0.48855113  0.63126544  1
  O  O201  1  0.74532458  1.00063526  0.13512435  1
  O  O202  1  0.74210359  0.99376439  0.61084511  1
  O  O203  1  0.01375515  0.36760481  0.25386258  1
  O  O204  1  0.00585651  0.36814666  0.76052536  1
  O  O205  1  0.00033390  0.86555479  0.26089798  1
  O  O206  1  0.01161339  0.87113919  0.74197195  1
  O  O207  1  0.49828051  0.36868762  0.25827692  1
  O  O208  1  0.50044453  0.36465901  0.76568330  1
  O  O209  1  0.51100970  0.87644544  0.25490398  1
  O  O210  1  0.49940986  0.85862346  0.75121047  1
  O  O211  1  0.49247543  0.13169559  0.24817509  1
  O  O212  1  0.49023992  0.13981653  0.74317143  1
  O  O213  1  0.48934704  0.62808758  0.24146970  1
  O  O214  1  0.48980604  0.63351026  0.75570794  1
  O  O215  1  0.99484894  0.12866427  0.24343117  1
  O  O216  1  0.99222558  0.13166869  0.74704575  1
  O  O217  1  0.99248473  0.63821925  0.25561411  1
  O  O218  1  0.99148327  0.61929448  0.74435389  1
  O  O219  1  0.35819943  0.25491726  -0.00402897  1
  O  O220  1  0.36906953  0.26282792  0.50400953  1
  O  O221  1  0.37535186  0.74780226  0.01185227  1
  O  O222  1  0.37110224  0.75490223  0.50637588  1
  O  O223  1  0.86285857  0.24455076  0.00741851  1
  O  O224  1  0.87105003  0.24828999  0.50387275  1
  O  O225  1  0.87714259  0.74047253  0.01567842  1
  O  O226  1  0.86601268  0.73892032  0.50981296  1
  O  O227  1  0.12988864  0.23263478  0.50211503  1
  O  O228  1  0.14421122  0.24796380  0.99646596  1
  O  O229  1  0.13236600  0.74088984  0.50115010  1
  O  O230  1  0.12010773  0.73258280  0.99398532  1
  O  O231  1  0.63243090  0.24961278  0.49137666  1
  O  O232  1  0.63459959  0.24799102  0.99646011  1
  O  O233  1  0.62771141  0.73946027  0.49166262  1
  O  O234  1  0.62415636  0.73685768  0.99969481  1
  O  O235  1  0.50605065  0.24716360  0.13957639  1
  O  O236  1  0.49320245  0.25024707  0.63186118  1
  O  O237  1  0.49552048  0.74015726  0.12767182  1
  O  O238  1  0.48341166  0.75234306  0.63020808  1
  O  O239  1  0.99439696  0.24353716  0.12826949  1
  O  O240  1  0.99330612  0.25565486  0.63215365  1
  O  O241  1  0.98637747  0.75439608  0.13702459  1
  O  O242  1  0.99082824  0.73824102  0.62392299  1
  O  O243  1  -0.00530329  0.25990962  0.36286426  1
  O  O244  1  0.00302199  0.25715758  0.86850316  1
  O  O245  1  -0.00163858  0.75731969  0.37112441  1
  O  O246  1  -0.00145118  0.75550668  0.87025557  1
  O  O247  1  0.50470360  0.25663934  0.36491677  1
  O  O248  1  0.50358000  0.25517055  0.87014065  1
  O  O249  1  0.51119217  0.75507205  0.37176212  1
  O  O250  1  0.49703024  0.75402214  0.86645727  1
  O  O251  1  0.24720352  0.12949871  0.48612045  1
  O  O252  1  0.25748630  0.13365253  0.99125254  1
  O  O253  1  0.24345788  0.62767260  0.49838016  1
  O  O254  1  0.24208233  0.61898630  0.98570330  1
  O  O255  1  0.74661642  0.14103673  0.49262730  1
  O  O256  1  0.74135475  0.13752061  1.00213382  1
  O  O257  1  0.73510777  0.63762726  0.50652078  1
  O  O258  1  0.74269155  0.62660785  0.99144158  1
  O  O259  1  0.24939031  0.36706186  0.01133039  1
  O  O260  1  0.25310953  0.37559430  0.50875281  1
  O  O261  1  0.23889508  0.89459671  0.00942116  1
  O  O262  1  0.25388388  0.87138916  0.50889907  1
  O  O263  1  0.74447841  0.36979493  0.01340010  1
  O  O264  1  0.75026069  0.36665015  0.50292528  1
  O  O265  1  0.74652762  0.86896338  -0.00491881  1
  O  O266  1  0.74152468  0.85422804  0.50268996  1
  O  O267  1  0.13245668  0.49838816  0.25852136  1
  O  O268  1  0.13178610  0.49116577  0.74817206  1
  O  O269  1  0.13472839  0.99662959  0.25199732  1
  O  O270  1  0.11969504  0.98600799  0.74984703  1
  O  O271  1  0.63101077  0.50167672  0.24028336  1
  O  O272  1  0.63366643  0.48770329  0.75388891  1
  O  O273  1  0.63281868  0.99622210  0.24832750  1
  O  O274  1  0.60560309  0.97818377  0.74284552  1
  O  O275  1  0.36940163  0.00664669  0.25868293  1
  O  O276  1  0.38875843  0.01255720  0.75796266  1
  O  O277  1  0.36715076  0.51320267  0.25442262  1
  O  O278  1  0.36806537  0.50639418  0.75046159  1
  O  O279  1  0.86901927  0.00400715  0.25781204  1
  O  O280  1  0.86679821  0.02508538  0.73813001  1
  O  O281  1  0.86738359  0.50860142  0.24842550  1
  O  O282  1  0.86229729  0.50542921  0.74693419  1
  O  O283  1  0.11450417  0.37653396  0.37891084  1
  O  O284  1  0.12714460  0.37176069  0.86426950  1
  O  O285  1  0.10944105  0.87604318  0.37962084  1
  O  O286  1  0.12682121  0.87166855  0.85618133  1
  O  O287  1  0.61574140  0.37271319  0.37277115  1
  O  O288  1  0.61622792  0.36404732  0.88036659  1
  O  O289  1  0.62622651  0.87196495  0.36456032  1
  O  O290  1  0.60663476  0.86809584  0.85584418  1
  O  O291  1  0.38036001  0.12077715  0.14005765  1
  O  O292  1  0.37832608  0.13161335  0.62921589  1
  O  O293  1  0.38005905  0.63153272  0.13139899  1
  O  O294  1  0.36825650  0.63106628  0.63816807  1
  O  O295  1  0.87910346  0.13620664  0.13166905  1
  O  O296  1  0.88168867  0.13731545  0.63034703  1
  O  O297  1  0.87010416  0.63952640  0.14218432  1
  O  O298  1  0.87763848  0.62742449  0.63192822  1
  O  O299  1  0.25087387  0.25332663  0.11599376  1
  O  O300  1  0.25533416  0.26229143  0.62720870  1
  O  O301  1  0.26446839  0.75033598  0.12819726  1
  O  O302  1  0.26050662  0.75657238  0.62071146  1
  O  O303  1  0.75401094  0.25699225  0.12064271  1
  O  O304  1  0.76851590  0.25415246  0.61247143  1
  O  O305  1  0.76246831  0.75356895  0.12370729  1
  O  O306  1  0.75893894  0.75291897  0.61944170  1
  O  O307  1  0.25438485  0.23483469  0.37174089  1
  O  O308  1  0.24808161  0.24038368  0.88288329  1
  O  O309  1  0.24927223  0.74437328  0.38415640  1
  O  O310  1  0.25136901  0.73619963  0.87107190  1
  O  O311  1  0.74963079  0.25186004  0.37721087  1
  O  O312  1  0.74242235  0.25220030  0.88361908  1
  O  O313  1  0.74003594  0.75087044  0.38220024  1
  O  O314  1  0.74338551  0.73138459  0.87274824  1
  O  O315  1  -0.00783195  0.11032076  0.00576989  1
  O  O316  1  0.01185518  0.12549657  0.50583757  1
  O  O317  1  0.01158220  0.61926755  0.00125832  1
  O  O318  1  0.00717582  0.61457896  0.50402979  1
  O  O319  1  0.50313546  0.12413655  0.00881977  1
  O  O320  1  0.50302564  0.12358017  0.50162772  1
  O  O321  1  0.50585683  0.62299329  0.00676640  1
  O  O322  1  0.51421928  0.62593208  0.49983448  1
  O  O323  1  0.48870428  0.36969659  0.48301926  1
  O  O324  1  0.49737807  0.37471482  0.99347795  1
  O  O325  1  0.49308633  0.88564636  0.49897368  1
  O  O326  1  0.50776456  0.88260866  0.99080158  1
  O  O327  1  1.00475788  0.38488720  0.49500940  1
  O  O328  1  1.00670989  0.37111857  0.98420740  1
  O  O329  1  0.99699252  0.87382200  0.50162848  1
  O  O330  1  0.99367598  0.88989972  1.00325227  1
  O  O331  1  0.49013174  0.49039944  0.36617881  1
  O  O332  1  0.49975299  0.48893605  0.87737759  1
  O  O333  1  0.49138110  1.00260086  0.38421619  1
  O  O334  1  0.50068101  0.99193302  0.88487512  1
  O  O335  1  0.99656141  0.49289348  0.38288056  1
  O  O336  1  0.99750959  0.48187625  0.87432946  1
  O  O337  1  0.98707121  0.99404849  0.37221751  1
  O  O338  1  0.99991409  0.99586596  0.89286617  1
  O  O339  1  -0.01310461  0.00766298  0.11174057  1
  O  O340  1  -0.01500791  -0.01199521  0.61755510  1
  O  O341  1  0.02382270  0.48382623  0.14358300  1
  O  O342  1  -0.00079357  0.50245520  0.61782016  1
  O  O343  1  0.50257342  0.00550377  0.12096099  1
  O  O344  1  0.50065023  0.01009943  0.61192623  1
  O  O345  1  0.50699742  0.51220802  0.12718000  1
  O  O346  1  0.53556973  0.42825310  0.63893450  1
  O  O347  1  0.25030249  0.38385426  0.24406825  1
  O  O348  1  0.24460145  0.37939594  0.74689155  1
  O  O349  1  0.24826248  0.88882659  0.25632600  1
  O  O350  1  0.24422852  0.87540930  0.73879653  1
  O  O351  1  0.74812769  0.38465192  0.23755128  1
  O  O352  1  0.74706002  0.38144689  0.74131072  1
  O  O353  1  0.74554042  0.88829894  0.25307269  1
  O  O354  1  0.72810487  0.86505769  0.74319338  1
  O  O355  1  0.25551398  0.11818484  0.25827077  1
  O  O356  1  0.26409128  0.13313307  0.75526845  1
  O  O357  1  0.25451531  0.61997850  0.25564285  1
  O  O358  1  0.25446325  0.61630211  0.75529439  1
  O  O359  1  0.75513912  0.11569992  0.25615773  1
  O  O360  1  0.76185288  0.14538029  0.74729860  1
  O  O361  1  0.75478972  0.61413688  0.24890004  1
  O  O362  1  0.75429360  0.61472999  0.75423559  1
  O  O363  1  0.36765396  0.11692074  0.36816527  1
  O  O364  1  0.37168704  0.11941230  0.86538708  1
  O  O365  1  0.37091870  0.62297591  0.36911157  1
  O  O366  1  0.36230573  0.62189908  0.86549979  1
  O  O367  1  0.87224603  0.11771575  0.37109408  1
  O  O368  1  0.87264113  0.13550356  0.85630335  1
  O  O369  1  0.88032358  0.60939491  0.36274000  1
  O  O370  1  0.86757924  0.62608023  0.86248913  1
  O  O371  1  0.13543558  0.36989934  0.13179681  1
  O  O372  1  0.13193200  0.37405480  0.63725965  1
  O  O373  1  0.12289719  0.87317295  0.12561080  1
  O  O374  1  0.13998217  0.87311292  0.63371318  1
  O  O375  1  0.63013913  0.38581897  0.12817169  1
  O  O376  1  0.65324305  0.34532594  0.62893292  1
  O  O377  1  0.62800703  0.88170395  0.13871117  1
  O  O378  1  0.61687538  0.87019692  0.63478589  1
  O  O379  1  0.11479506  0.24043016  0.24756694  1
  O  O380  1  0.11331377  0.25466594  0.75156935  1
  O  O381  1  0.11560401  0.75321758  0.25568589  1
  O  O382  1  0.12236529  0.76081436  0.75017724  1
  O  O383  1  0.61829134  0.25269547  0.25820867  1
  O  O384  1  0.61447971  0.26340362  0.75672272  1
  O  O385  1  0.62642469  0.75801396  0.25637588  1
  O  O386  1  0.61336158  0.75171005  0.74775606  1
  O  O387  1  0.38440881  0.23964019  0.25668697  1
  O  O388  1  0.38156692  0.24655179  0.74430740  1
  O  O389  1  0.37556614  0.74053735  0.24870412  1
  O  O390  1  0.37766287  0.74179485  0.74330765  1
  O  O391  1  0.88421354  0.24313914  0.24290024  1
  O  O392  1  0.88608112  0.24814411  0.73962119  1
  O  O393  1  0.87895515  0.74413312  0.25049703  1
  O  O394  1  0.87542151  0.73618846  0.73578926  1
  O  O395  1  0.37062501  0.48876700  0.49672116  1
  O  O396  1  0.37648187  0.49486652  0.99921335  1
  O  O397  1  0.38160672  0.99955592  0.49237525  1
  O  O398  1  0.39058563  1.00748722  0.98916016  1
  O  O399  1  0.88310915  0.50576255  0.48891887  1
  O  O400  1  0.89179627  0.49584354  1.03973984  1
  O  O401  1  0.87549162  0.99679759  0.49732452  1
  O  O402  1  0.87295921  0.99994033  0.99308144  1
  O  O403  1  0.12250877  -0.00482692  0.00851493  1
  O  O404  1  0.13276409  0.02310904  0.49667699  1
  O  O405  1  0.11966655  0.51690932  -0.00546838  1
  O  O406  1  0.11766154  0.50719091  0.50438550  1
  O  O407  1  0.61038468  0.01262554  0.01073328  1
  O  O408  1  0.61534256  0.01167053  0.49374070  1
  O  O409  1  0.62357492  0.51019211  0.01221237  1
  O  O410  1  0.62913961  0.51576753  0.49767883  1
  O  O411  1  0.36417896  0.37585161  0.12877508  1
  O  O412  1  0.36644270  0.37301307  0.61735177  1
  O  O413  1  0.38137199  0.86019032  0.12840933  1
  O  O414  1  0.36601231  0.86918372  0.62218439  1
  O  O415  1  0.86460657  0.35770513  0.13338254  1
  O  O416  1  0.86869867  0.36771522  0.62667900  1
  O  O417  1  0.86991864  0.85871972  0.13452726  1
  O  O418  1  0.87688224  0.86935665  0.62728349  1
  O  O419  1  0.13583613  0.12414099  0.37659377  1
  O  O420  1  0.14116290  0.12093003  0.86464959  1
  O  O421  1  0.13106458  0.62710522  0.38917647  1
  O  O422  1  0.13828236  0.62698339  0.87071071  1
  O  O423  1  0.63391981  0.13372903  0.37852227  1
  O  O424  1  0.61883944  0.14348664  0.88305136  1
  O  O425  1  0.62273325  0.63449140  0.37225429  1
  O  O426  1  0.62994077  0.62296936  0.88378379  1
