# generated using pymatgen
data_V85Zn86O256
_symmetry_space_group_name_H-M   'P 1'
_cell_length_a   16.94193126
_cell_length_b   16.94458495
_cell_length_c   16.94092280
_cell_angle_alpha   89.91799894
_cell_angle_beta   89.96931814
_cell_angle_gamma   89.96416373
_symmetry_Int_Tables_number   1
_chemical_formula_structural   V85Zn86O256
_chemical_formula_sum   'V85 Zn86 O256'
_cell_volume   4863.29173215
_cell_formula_units_Z   1
loop_
 _symmetry_equiv_pos_site_id
 _symmetry_equiv_pos_as_xyz
  1  'x, y, z'
loop_
 _atom_site_type_symbol
 _atom_site_label
 _atom_site_symmetry_multiplicity
 _atom_site_fract_x
 _atom_site_fract_y
 _atom_site_fract_z
 _atom_site_occupancy
  V  V0  1  0.74883508  0.87590847  0.12164877  1
  V  V1  1  0.50593177  0.25719113  0.74833906  1
  V  V2  1  -0.00081128  0.00189901  -0.00176402  1
  V  V3  1  0.25006658  0.62561456  0.37188616  1
  V  V4  1  0.44274080  0.81566929  0.81836131  1
  V  V5  1  0.74679303  0.74687837  0.50133458  1
  V  V6  1  0.25649443  0.25320031  -0.00284302  1
  V  V7  1  0.24763266  0.37793276  0.62392072  1
  V  V8  1  0.48635329  0.13337904  0.12585808  1
  V  V9  1  0.73888695  0.00488118  0.74275105  1
  V  V10  1  0.24676020  0.86739887  0.63895834  1
  V  V11  1  -0.00172372  0.13132410  0.62200773  1
  V  V12  1  0.87840770  0.37183647  0.00468947  1
  V  V13  1  0.74735351  0.37939428  0.12682058  1
  V  V14  1  0.61754857  0.35985216  0.25237853  1
  V  V15  1  0.74548108  0.50898236  0.75416557  1
  V  V16  1  0.37238128  0.00884894  0.37519440  1
  V  V17  1  0.37805977  0.00052084  0.87429448  1
  V  V18  1  0.62612077  0.87501062  0.25004603  1
  V  V19  1  0.12530566  0.12807681  0.00670384  1
  V  V20  1  0.87375915  0.87384885  0.49822737  1
  V  V21  1  0.87767220  -0.00232494  0.87161692  1
  V  V22  1  0.73781787  0.50147884  0.24949141  1
  V  V23  1  0.63811208  0.62642270  -0.00210473  1
  V  V24  1  0.38136811  0.86998954  0.00053188  1
  V  V25  1  0.50233995  -0.00253261  -0.00395728  1
  V  V26  1  0.12601932  0.74926118  0.36822401  1
  V  V27  1  0.12486809  0.38054781  0.74968225  1
  V  V28  1  0.11863037  0.49248953  0.12748995  1
  V  V29  1  0.12429049  0.25304941  0.37001124  1
  V  V30  1  0.62227242  0.86787557  0.75364944  1
  V  V31  1  0.64479009  0.74831202  0.87858939  1
  V  V32  1  0.76898395  0.37392724  0.62963103  1
  V  V33  1  0.00021451  0.25382881  0.24293249  1
  V  V34  1  -0.00536519  0.37526494  0.37354023  1
  V  V35  1  0.25320109  0.37136615  0.13292443  1
  V  V36  1  0.86807734  0.74707376  0.11880611  1
  V  V37  1  0.88654722  0.74303785  0.62644020  1
  V  V38  1  0.87378507  0.12959890  0.74543201  1
  V  V39  1  0.24835499  0.24414065  0.49828455  1
  V  V40  1  0.00309201  0.00011557  0.49730633  1
  V  V41  1  0.25314577  0.87783042  0.11961673  1
  V  V42  1  0.11695923  0.62424122  0.49785470  1
  V  V43  1  0.50904414  -0.00192956  0.50845183  1
  V  V44  1  -0.00113868  0.87610887  0.37083094  1
  V  V45  1  0.11986910  0.50516647  0.62598919  1
  V  V46  1  -0.00821235  0.49687781  0.49953841  1
  V  V47  1  0.37787609  0.37450970  0.50008872  1
  V  V48  1  0.50602352  0.37802140  0.87595707  1
  V  V49  1  -0.00499746  0.25358412  0.74604136  1
  V  V50  1  0.12681569  0.12310369  0.49833368  1
  V  V51  1  0.38040930  0.49866039  0.37369609  1
  V  V52  1  0.25361611  0.00484471  0.25428191  1
  V  V53  1  0.08453482  -0.05128464  0.67910270  1
  V  V54  1  0.25161541  0.00517602  0.74432203  1
  V  V55  1  0.37593259  0.13213714  0.75096684  1
  V  V56  1  0.37168660  0.87294222  0.50397855  1
  V  V57  1  0.12810761  0.25421644  0.87390531  1
  V  V58  1  0.02390870  0.65498922  0.10034433  1
  V  V59  1  0.89022878  0.62668619  0.75420592  1
  V  V60  1  0.49799983  0.87391253  0.37425746  1
  V  V61  1  0.48745554  0.63160574  0.63932639  1
  V  V62  1  0.86950362  0.87241218  -0.00639740  1
  V  V63  1  0.61965073  0.62183494  0.50219951  1
  V  V64  1  0.24888209  0.62226870  0.90657849  1
  V  V65  1  0.74060116  0.87569580  0.62312835  1
  V  V66  1  0.62513475  0.12569830  0.00308631  1
  V  V67  1  0.62309221  0.48943665  0.62659625  1
  V  V68  1  0.00242810  0.49978638  0.00052137  1
  V  V69  1  0.25253187  0.74896248  0.50334610  1
  V  V70  1  0.24111475  0.49968246  0.25160372  1
  V  V71  1  0.62809848  0.25407932  0.87216490  1
  V  V72  1  0.87481261  0.12861651  0.24649667  1
  V  V73  1  0.37893324  0.37488917  0.00661100  1
  V  V74  1  0.12387129  0.87368900  0.24342633  1
  V  V75  1  0.74022688  0.12680959  0.37587769  1
  V  V76  1  0.75539287  0.26269028  0.49334196  1
  V  V77  1  0.75638617  0.25004234  0.00667388  1
  V  V78  1  0.50848738  0.50036272  0.00455335  1
  V  V79  1  0.37622322  0.25016546  0.62699540  1
  V  V80  1  0.50871876  0.62296781  0.12635819  1
  V  V81  1  0.75187687  0.12720693  0.87420195  1
  V  V82  1  0.37579420  0.74943747  0.12457565  1
  V  V83  1  0.87785955  0.62153600  0.24628440  1
  V  V84  1  0.37531140  0.62547861  0.25020960  1
  Zn  Zn85  1  -0.00852404  0.13047141  0.12259859  1
  Zn  Zn86  1  -0.00223643  0.37899583  0.87501478  1
  Zn  Zn87  1  -0.00589508  0.75143558  0.24859709  1
  Zn  Zn88  1  0.06926480  0.81810375  0.81367320  1
  Zn  Zn89  1  0.87451657  0.00221861  0.37199329  1
  Zn  Zn90  1  0.42156276  0.18940051  0.27773861  1
  Zn  Zn91  1  0.87157176  0.50534381  0.87913424  1
  Zn  Zn92  1  0.87182795  0.49800259  0.37618949  1
  Zn  Zn93  1  0.62439858  0.74754079  0.37560392  1
  Zn  Zn94  1  0.75021891  0.62287851  0.37519906  1
  Zn  Zn95  1  0.50123993  0.74995781  0.25128849  1
  Zn  Zn96  1  0.37843302  0.50741440  0.86944018  1
  Zn  Zn97  1  0.62370060  0.00037215  0.12594588  1
  Zn  Zn98  1  0.75245326  0.00070092  0.25012312  1
  Zn  Zn99  1  0.24874440  0.12523887  0.87465971  1
  Zn  Zn100  1  0.26165229  0.52929319  0.74839678  1
  Zn  Zn101  1  0.51237445  0.11794916  0.63315473  1
  Zn  Zn102  1  0.49931616  0.49735083  0.50183813  1
  Zn  Zn103  1  0.12172845  0.72119233  0.93099632  1
  Zn  Zn104  1  0.50531228  0.35041761  0.37402291  1
  Zn  Zn105  1  0.12429461  0.00495943  0.12608130  1
  Zn  Zn106  1  0.62993315  0.12707650  0.51134130  1
  Zn  Zn107  1  0.22509970  0.20556976  0.20802431  1
  Zn  Zn108  1  0.18324883  0.18851036  0.68352001  1
  Zn  Zn109  1  0.18033365  0.69700044  0.15627430  1
  Zn  Zn110  1  0.16695592  0.68769958  0.68717269  1
  Zn  Zn111  1  0.68868295  0.18751909  0.18563701  1
  Zn  Zn112  1  0.68680630  0.19392568  0.68082271  1
  Zn  Zn113  1  0.68902828  0.69084862  0.18717171  1
  Zn  Zn114  1  0.68249349  0.68492952  0.68508682  1
  Zn  Zn115  1  0.31247962  0.31531339  0.31810631  1
  Zn  Zn116  1  0.32443657  0.34414071  0.80285937  1
  Zn  Zn117  1  0.31288198  0.81511435  0.31109800  1
  Zn  Zn118  1  0.25950561  0.75441225  0.79193648  1
  Zn  Zn119  1  0.81481941  0.31184619  0.31178636  1
  Zn  Zn120  1  0.81357975  0.31975938  0.81420806  1
  Zn  Zn121  1  0.81101169  0.80939773  0.31146996  1
  Zn  Zn122  1  0.81459912  0.81229783  0.80739633  1
  Zn  Zn123  1  0.18531322  0.43473886  0.43620669  1
  Zn  Zn124  1  0.18830696  0.44412358  0.93716436  1
  Zn  Zn125  1  0.18603171  0.93584031  0.43692956  1
  Zn  Zn126  1  0.19023468  0.93438657  0.93090415  1
  Zn  Zn127  1  0.68641955  0.43592755  0.43456404  1
  Zn  Zn128  1  0.68915976  0.43947617  0.93838435  1
  Zn  Zn129  1  0.68848799  0.93801910  0.43243913  1
  Zn  Zn130  1  0.68788255  0.93705853  0.93248460  1
  Zn  Zn131  1  0.31072966  0.06105265  0.06054394  1
  Zn  Zn132  1  0.31410669  0.06050232  0.56526934  1
  Zn  Zn133  1  0.32240987  0.55276701  0.06906888  1
  Zn  Zn134  1  0.30890094  0.56238629  0.56124101  1
  Zn  Zn135  1  0.81201019  0.06162605  0.06485134  1
  Zn  Zn136  1  0.81367301  0.06450811  0.55979012  1
  Zn  Zn137  1  0.81696195  0.55863400  0.06667910  1
  Zn  Zn138  1  0.81005049  0.56403404  0.56697999  1
  Zn  Zn139  1  0.43940444  0.43816264  0.18801082  1
  Zn  Zn140  1  0.43826239  0.44289162  0.68857692  1
  Zn  Zn141  1  0.44047815  0.94446541  0.18634493  1
  Zn  Zn142  1  0.42961283  0.93573599  0.68393544  1
  Zn  Zn143  1  0.93457909  0.43341712  0.18794276  1
  Zn  Zn144  1  0.93942784  0.44523188  0.68901672  1
  Zn  Zn145  1  0.93646348  0.94192376  0.18233170  1
  Zn  Zn146  1  0.91963954  0.93676008  0.68484530  1
  Zn  Zn147  1  0.06469095  0.06563681  0.31230228  1
  Zn  Zn148  1  0.06011019  0.07176941  0.81929955  1
  Zn  Zn149  1  0.05764641  0.56431979  0.30768738  1
  Zn  Zn150  1  0.06634554  0.56828179  0.81998841  1
  Zn  Zn151  1  0.56189080  0.06000989  0.31217221  1
  Zn  Zn152  1  0.56363708  0.06502113  0.81345340  1
  Zn  Zn153  1  0.56343093  0.56167275  0.31447076  1
  Zn  Zn154  1  0.56570838  0.56648412  0.81376504  1
  Zn  Zn155  1  0.44124388  0.18367972  0.44810577  1
  Zn  Zn156  1  0.43842087  0.18867036  0.93740712  1
  Zn  Zn157  1  0.43826307  0.68763628  0.44173655  1
  Zn  Zn158  1  0.43477387  0.68026875  0.94005807  1
  Zn  Zn159  1  0.93051008  0.19046187  0.43391030  1
  Zn  Zn160  1  0.93900576  0.18976378  0.93293248  1
  Zn  Zn161  1  0.93551293  0.68708412  0.43252431  1
  Zn  Zn162  1  0.93542053  0.69489563  0.92868430  1
  Zn  Zn163  1  0.06872426  0.31546412  0.06448094  1
  Zn  Zn164  1  0.05847172  0.31531407  0.56044330  1
  Zn  Zn165  1  0.07580962  0.83362331  0.03268212  1
  Zn  Zn166  1  0.06260573  0.80856679  0.55497107  1
  Zn  Zn167  1  0.56822851  0.31142105  0.06708515  1
  Zn  Zn168  1  0.56851130  0.30923373  0.56049042  1
  Zn  Zn169  1  0.56372305  0.80891089  0.05999657  1
  Zn  Zn170  1  0.55868723  0.80778310  0.56634108  1
  O  O171  1  0.12713969  0.12634126  0.10989884  1
  O  O172  1  0.11079867  0.12750488  0.61328658  1
  O  O173  1  0.11679255  0.60430415  0.13930314  1
  O  O174  1  0.12344827  0.61748311  0.61129609  1
  O  O175  1  0.62450079  0.12294014  0.11214061  1
  O  O176  1  0.62587165  0.11956964  0.62700827  1
  O  O177  1  0.61388387  0.63731895  0.11643905  1
  O  O178  1  0.61681729  0.61413629  0.61916167  1
  O  O179  1  0.37533049  0.38352919  0.38353304  1
  O  O180  1  0.39298724  0.36978744  0.89226562  1
  O  O181  1  0.38138603  0.88103729  0.38297090  1
  O  O182  1  0.38561830  0.87940680  0.88358836  1
  O  O183  1  0.88835758  0.37815274  0.37280804  1
  O  O184  1  0.87652122  0.38006135  0.88981366  1
  O  O185  1  0.88016952  0.87471985  0.38104374  1
  O  O186  1  0.86952607  0.88432307  0.87950420  1
  O  O187  1  0.25823698  -0.01160989  0.36344253  1
  O  O188  1  0.25712657  -0.00036566  0.86175079  1
  O  O189  1  0.25742518  0.50282762  0.36928574  1
  O  O190  1  0.25591052  0.50910765  0.87457336  1
  O  O191  1  0.75354201  0.01189913  0.37314207  1
  O  O192  1  0.75724548  0.00825441  0.86662613  1
  O  O193  1  0.75352472  0.50111163  0.36477204  1
  O  O194  1  0.75138948  0.49467213  0.85781409  1
  O  O195  1  0.24530646  0.49083670  0.13339609  1
  O  O196  1  0.23796902  0.49629466  0.62757708  1
  O  O197  1  0.25071731  0.99455513  0.13611246  1
  O  O198  1  0.24830621  0.99584014  0.63758852  1
  O  O199  1  0.75367545  0.48716169  0.13338487  1
  O  O200  1  0.74452478  0.49138802  0.63047035  1
  O  O201  1  0.74638787  0.98816903  0.12704625  1
  O  O202  1  0.75734367  0.98920989  0.63337546  1
  O  O203  1  -0.00097932  0.36635000  0.25792484  1
  O  O204  1  0.00821463  0.37083185  0.74916762  1
  O  O205  1  0.00762279  0.87625243  0.25127188  1
  O  O206  1  0.01483390  0.89272947  0.73735990  1
  O  O207  1  0.51418372  0.37673585  0.24765953  1
  O  O208  1  0.49926969  0.36414347  0.76075847  1
  O  O209  1  0.50597121  0.87666055  0.25807742  1
  O  O210  1  0.50251524  0.87450847  0.75208711  1
  O  O211  1  0.49938418  0.11585595  0.23191133  1
  O  O212  1  0.49375042  0.13795711  0.75331855  1
  O  O213  1  0.49538288  0.62543638  0.24300290  1
  O  O214  1  0.49648051  0.61677570  0.73895191  1
  O  O215  1  0.99294812  0.13358280  0.24991182  1
  O  O216  1  0.99651360  0.13408574  0.74203390  1
  O  O217  1  0.99174589  0.62990816  0.23746830  1
  O  O218  1  0.98888958  0.61699031  0.74646602  1
  O  O219  1  0.36313077  0.25525856  -0.00381730  1
  O  O220  1  0.36666721  0.25304293  0.50829917  1
  O  O221  1  0.38452623  0.76327971  0.00787978  1
  O  O222  1  0.36374864  0.75973244  0.49209850  1
  O  O223  1  0.86606491  0.25568938  -0.00562770  1
  O  O224  1  0.85469160  0.24232982  0.50419544  1
  O  O225  1  0.87739373  0.76155364  0.00422152  1
  O  O226  1  0.86874714  0.75147861  0.50926465  1
  O  O227  1  0.13024828  0.24313547  0.49686357  1
  O  O228  1  0.13101338  0.24796321  0.99078560  1
  O  O229  1  0.13053570  0.74168738  0.49037116  1
  O  O230  1  0.10468895  0.72324887  1.05280425  1
  O  O231  1  0.64646223  0.24578175  0.50641523  1
  O  O232  1  0.63312490  0.24396773  0.99107343  1
  O  O233  1  0.63109186  0.74220787  0.50105865  1
  O  O234  1  0.62372166  0.74377755  0.98587479  1
  O  O235  1  0.50257553  0.23258475  0.11862700  1
  O  O236  1  0.49696672  0.25094523  0.63482893  1
  O  O237  1  0.49084887  0.74437035  0.12766577  1
  O  O238  1  0.50046049  0.73168990  0.62675856  1
  O  O239  1  1.01084595  0.24940270  0.13952739  1
  O  O240  1  1.00198280  0.24356781  0.63283844  1
  O  O241  1  0.98041639  0.75455957  0.12893577  1
  O  O242  1  0.98516036  0.75522184  0.62052525  1
  O  O243  1  0.00546411  0.25651532  0.37028507  1
  O  O244  1  0.01198816  0.25402083  0.86692916  1
  O  O245  1  0.00683325  0.75730397  0.36991132  1
  O  O246  1  0.02157443  0.73423520  0.87248508  1
  O  O247  1  0.47691785  0.24235996  0.36207413  1
  O  O248  1  0.50993358  0.25585092  0.87155239  1
  O  O249  1  0.49977235  0.76311614  0.37550510  1
  O  O250  1  0.49993491  0.75085091  0.87151141  1
  O  O251  1  0.23999480  0.13137413  0.50846674  1
  O  O252  1  0.24466717  0.13458986  0.99677507  1
  O  O253  1  0.24158536  0.63144085  0.49205358  1
  O  O254  1  0.25070302  0.61410208  1.00697690  1
  O  O255  1  0.75007710  0.12773793  0.48832947  1
  O  O256  1  0.74561131  0.13247016  0.99618236  1
  O  O257  1  0.73878264  0.63092370  0.50262636  1
  O  O258  1  0.73692292  0.61602324  1.00763563  1
  O  O259  1  0.26084193  0.37271483  0.00468945  1
  O  O260  1  0.25908363  0.36911707  0.50518188  1
  O  O261  1  0.26574647  0.88776996  0.01333194  1
  O  O262  1  0.25456357  0.86899256  0.50549014  1
  O  O263  1  0.75458840  0.37023118  0.00735911  1
  O  O264  1  0.75088999  0.36948297  0.50745106  1
  O  O265  1  0.76091206  0.88286058  0.00611550  1
  O  O266  1  0.75195433  0.86955781  0.50604842  1
  O  O267  1  0.13638117  0.49910090  0.25010630  1
  O  O268  1  0.12368001  0.49426440  0.74201668  1
  O  O269  1  0.13222698  0.98762241  0.25111282  1
  O  O270  1  0.13382921  1.00778377  0.75328128  1
  O  O271  1  0.63547050  0.49752216  0.24950193  1
  O  O272  1  0.63820390  0.50461131  0.74317823  1
  O  O273  1  0.62713308  0.98695496  0.24769363  1
  O  O274  1  0.63404258  0.98832323  0.76052249  1
  O  O275  1  0.36248336  -0.00645065  0.25811312  1
  O  O276  1  0.37145284  0.01188497  0.75400832  1
  O  O277  1  0.36794338  0.50499873  0.25695932  1
  O  O278  1  0.35658087  0.46160597  0.76231592  1
  O  O279  1  0.87366894  0.01015811  0.25158626  1
  O  O280  1  0.86289374  0.00598052  0.75624053  1
  O  O281  1  0.86790117  0.51131117  0.24605970  1
  O  O282  1  0.86754370  0.51396355  0.74852027  1
  O  O283  1  0.11328814  0.36289864  0.38174955  1
  O  O284  1  0.12305628  0.37201087  0.86632080  1
  O  O285  1  0.12023922  0.86807454  0.36421935  1
  O  O286  1  0.11783718  0.85080268  0.92031358  1
  O  O287  1  0.62098456  0.37828396  0.35861801  1
  O  O288  1  0.61518471  0.36751462  0.88301828  1
  O  O289  1  0.61671169  0.87290935  0.36787640  1
  O  O290  1  0.62781898  0.86035154  0.86887936  1
  O  O291  1  0.38714711  0.12431334  0.11749247  1
  O  O292  1  0.37962474  0.13069008  0.63757977  1
  O  O293  1  0.38498733  0.63259803  0.12910435  1
  O  O294  1  0.38895471  0.61577338  0.62014169  1
  O  O295  1  0.87125799  0.12527495  0.13974871  1
  O  O296  1  0.88882862  0.11785144  0.63158260  1
  O  O297  1  0.87974223  0.63499262  0.12659033  1
  O  O298  1  0.87358176  0.63747579  0.63211843  1
  O  O299  1  0.23715102  0.26629116  0.10979404  1
  O  O300  1  0.25290490  0.25598620  0.61572061  1
  O  O301  1  0.26763612  0.76138438  0.12552237  1
  O  O302  1  0.24331219  0.75501991  0.60896484  1
  O  O303  1  0.74562405  0.25837571  0.11199093  1
  O  O304  1  0.75179174  0.27005327  0.62274278  1
  O  O305  1  0.75837408  0.76215829  0.12478735  1
  O  O306  1  0.75370780  0.75498852  0.61589760  1
  O  O307  1  0.23985729  0.25635172  0.39198412  1
  O  O308  1  0.23877960  0.25561743  0.88037061  1
  O  O309  1  0.24413663  0.74741364  0.38087169  1
  O  O310  1  0.23948338  0.72890832  0.90198660  1
  O  O311  1  0.75237070  0.24385434  0.38510785  1
  O  O312  1  0.74457847  0.24817300  0.88113479  1
  O  O313  1  0.74965992  0.74853172  0.39070760  1
  O  O314  1  0.74332450  0.75028126  0.87565287  1
  O  O315  1  0.00480878  0.12040508  0.00007361  1
  O  O316  1  0.00082375  0.11893430  0.50513201  1
  O  O317  1  -0.00980446  0.61564666  0.00849112  1
  O  O318  1  0.01262147  0.61953945  0.48912184  1
  O  O319  1  0.50778929  0.12061960  0.00520393  1
  O  O320  1  0.50340149  0.10841515  0.50608035  1
  O  O321  1  0.50746956  0.61738257  0.00712463  1
  O  O322  1  0.50966297  0.62201463  0.50497051  1
  O  O323  1  0.48867875  0.37135839  0.49666491  1
  O  O324  1  0.49933399  0.38039292  1.00012543  1
  O  O325  1  0.49243328  0.88045352  0.49695372  1
  O  O326  1  0.49435625  0.88609295  1.00648462  1
  O  O327  1  1.00194687  0.38646845  0.49087919  1
  O  O328  1  0.99292723  0.37852277  1.00144278  1
  O  O329  1  0.99603274  0.88215775  0.49294083  1
  O  O330  1  0.98149395  0.89508387  1.00673934  1
  O  O331  1  0.48634191  0.50010855  0.37736054  1
  O  O332  1  0.50069954  0.49280540  0.88070855  1
  O  O333  1  0.49303341  0.99052491  0.38400943  1
  O  O334  1  0.49376011  1.00846380  0.88704967  1
  O  O335  1  1.00071172  0.49233923  0.38065599  1
  O  O336  1  0.99670909  0.49918639  0.88653003  1
  O  O337  1  0.99828586  0.99463689  0.38161458  1
  O  O338  1  0.98550800  1.00729392  0.87990647  1
  O  O339  1  0.00344383  0.00934603  0.11426327  1
  O  O340  1  0.00502291  0.00288453  0.62082061  1
  O  O341  1  0.00703561  0.49582674  0.12008824  1
  O  O342  1  0.01228888  0.49564965  0.61473688  1
  O  O343  1  0.50292982  0.00997356  0.11153701  1
  O  O344  1  0.49391769  -0.00353098  0.61134108  1
  O  O345  1  0.49753004  0.51139147  0.11742617  1
  O  O346  1  0.50838309  0.50295969  0.62297079  1
  O  O347  1  0.25522469  0.38672851  0.24168419  1
  O  O348  1  0.23050657  0.36252940  0.73953580  1
  O  O349  1  0.24431612  0.88031292  0.23866278  1
  O  O350  1  0.26591843  0.88867172  0.73762649  1
  O  O351  1  0.74455282  0.37969535  0.24433197  1
  O  O352  1  0.75871994  0.38840998  0.73728293  1
  O  O353  1  0.74300730  0.87557376  0.24279944  1
  O  O354  1  0.74120225  0.88140476  0.74262622  1
  O  O355  1  0.23605648  0.10172940  0.25315683  1
  O  O356  1  0.25697483  0.12326528  0.74928633  1
  O  O357  1  0.25730834  0.61753627  0.25367300  1
  O  O358  1  0.24216581  0.63901576  0.75957613  1
  O  O359  1  0.75421263  0.12774714  0.25954103  1
  O  O360  1  0.75406036  0.12071357  0.75215376  1
  O  O361  1  0.75499323  0.61667618  0.24730121  1
  O  O362  1  0.75636930  0.61131074  0.74019031  1
  O  O363  1  0.37732073  0.10984013  0.37660057  1
  O  O364  1  0.37146260  0.12380412  0.86458917  1
  O  O365  1  0.36966320  0.61826196  0.37252578  1
  O  O366  1  0.35797370  0.62148472  0.88325677  1
  O  O367  1  0.86492224  0.12453669  0.36383347  1
  O  O368  1  0.86919680  0.12012904  0.86622209  1
  O  O369  1  0.87235922  0.62257362  0.36185494  1
  O  O370  1  0.87327919  0.62600623  0.85780007  1
  O  O371  1  0.13633796  0.38523586  0.12772153  1
  O  O372  1  0.12757239  0.38323344  0.62917523  1
  O  O373  1  0.13608317  0.88178166  0.12597780  1
  O  O374  1  0.13328392  0.88389435  0.61062985  1
  O  O375  1  0.63499706  0.37338088  0.13739937  1
  O  O376  1  0.63088639  0.38719649  0.62248791  1
  O  O377  1  0.63169912  0.87374838  0.13016812  1
  O  O378  1  0.63336993  0.86792545  0.63437637  1
  O  O379  1  0.12417376  0.24153703  0.26606580  1
  O  O380  1  0.11446694  0.25494278  0.75509092  1
  O  O381  1  0.12613634  0.76240414  0.24554844  1
  O  O382  1  0.15566300  0.78497348  0.74234323  1
  O  O383  1  0.62751454  0.26137534  0.24960379  1
  O  O384  1  0.62054408  0.24786805  0.76389693  1
  O  O385  1  0.62300961  0.76153343  0.25341756  1
  O  O386  1  0.63078402  0.75842115  0.76164415  1
  O  O387  1  0.33122855  0.24043779  0.23921874  1
  O  O388  1  0.38215461  0.24942491  0.74717307  1
  O  O389  1  0.37763262  0.74377670  0.24369275  1
  O  O390  1  0.37488995  0.76708921  0.76616216  1
  O  O391  1  0.88823936  0.24319448  0.25338431  1
  O  O392  1  0.88806135  0.24794206  0.75746126  1
  O  O393  1  0.86955065  0.73748618  0.24091400  1
  O  O394  1  0.87160500  0.73933783  0.73755012  1
  O  O395  1  0.37324413  0.48971602  0.49243899  1
  O  O396  1  0.39074781  0.49016890  0.99800222  1
  O  O397  1  0.37945081  0.99214002  0.49375614  1
  O  O398  1  0.38197102  0.99302496  0.99361020  1
  O  O399  1  0.88936812  0.51320706  0.49942647  1
  O  O400  1  0.88515870  0.49179961  1.00135329  1
  O  O401  1  0.88733078  0.99237820  0.50024087  1
  O  O402  1  0.87804784  0.99955502  0.98967431  1
  O  O403  1  0.11565161  0.01097133  -0.00512087  1
  O  O404  1  0.11284902  0.00707754  0.49332149  1
  O  O405  1  0.11066041  0.49091417  0.01163783  1
  O  O406  1  0.11992292  0.50723843  0.50457861  1
  O  O407  1  0.61939499  0.00822605  -0.00306999  1
  O  O408  1  0.61002112  -0.00569939  0.49715395  1
  O  O409  1  0.61571987  0.50868211  -0.00544560  1
  O  O410  1  0.62342899  0.50521162  0.50724011  1
  O  O411  1  0.36952634  0.37913907  0.11500888  1
  O  O412  1  0.37020146  0.36989166  0.61653081  1
  O  O413  1  0.37384103  0.87006604  0.12073638  1
  O  O414  1  0.36239396  0.87567219  0.61179517  1
  O  O415  1  0.86530337  0.37429763  0.11355840  1
  O  O416  1  0.86697851  0.38272608  0.62264187  1
  O  O417  1  0.86568750  0.87058305  0.11801643  1
  O  O418  1  0.86182037  0.86179979  0.61977488  1
  O  O419  1  0.11726212  0.13514490  0.39092595  1
  O  O420  1  0.12844764  0.13720994  0.88454256  1
  O  O421  1  0.13072098  0.63010210  0.37620126  1
  O  O422  1  0.14163747  0.61059436  0.89139722  1
  O  O423  1  0.63746108  0.12055620  0.37671953  1
  O  O424  1  0.63127184  0.13271443  0.88509494  1
  O  O425  1  0.62686910  0.62701979  0.38566429  1
  O  O426  1  0.62400933  0.63972983  0.88177707  1
