# generated using pymatgen
data_V85Zn86O256
_symmetry_space_group_name_H-M   'P 1'
_cell_length_a   16.93435947
_cell_length_b   16.92402853
_cell_length_c   16.92711271
_cell_angle_alpha   89.99210666
_cell_angle_beta   89.93915983
_cell_angle_gamma   89.96047032
_symmetry_Int_Tables_number   1
_chemical_formula_structural   V85Zn86O256
_chemical_formula_sum   'V85 Zn86 O256'
_cell_volume   4851.26564934
_cell_formula_units_Z   1
loop_
 _symmetry_equiv_pos_site_id
 _symmetry_equiv_pos_as_xyz
  1  'x, y, z'
loop_
 _atom_site_type_symbol
 _atom_site_label
 _atom_site_symmetry_multiplicity
 _atom_site_fract_x
 _atom_site_fract_y
 _atom_site_fract_z
 _atom_site_occupancy
  V  V0  1  0.50008877  -0.00166131  -0.00017595  1
  V  V1  1  0.62417515  0.13166113  -0.00312093  1
  V  V2  1  0.12977677  0.25289804  0.87398581  1
  V  V3  1  0.24695144  -0.00254528  0.74393085  1
  V  V4  1  0.74418583  0.25175546  0.49727714  1
  V  V5  1  0.24488232  0.75066633  -0.00383794  1
  V  V6  1  0.26005151  0.50493741  0.74966134  1
  V  V7  1  0.62478826  -0.00768424  0.62878139  1
  V  V8  1  0.25024249  0.12464468  0.87477834  1
  V  V9  1  0.37427580  0.37342634  0.49622154  1
  V  V10  1  0.25022710  0.38102113  0.13386210  1
  V  V11  1  0.50244104  0.74086221  0.25111626  1
  V  V12  1  0.62268006  0.12723692  0.49254271  1
  V  V13  1  0.36963863  0.87010782  0.50375711  1
  V  V14  1  -0.00393868  0.50143853  0.00671089  1
  V  V15  1  0.37566025  0.24939146  0.12665958  1
  V  V16  1  0.11892038  0.62950336  -0.00047653  1
  V  V17  1  -0.00172494  0.37900659  0.87924396  1
  V  V18  1  0.87184330  0.74976334  0.62751924  1
  V  V19  1  0.00302294  0.63064990  0.62849020  1
  V  V20  1  0.37432833  -0.00141004  0.87317315  1
  V  V21  1  0.76014203  0.36514963  0.10937935  1
  V  V22  1  0.36854905  0.74505434  0.63401134  1
  V  V23  1  -0.00224752  0.36788229  0.37367070  1
  V  V24  1  0.25088486  0.86946768  0.12741772  1
  V  V25  1  0.50729398  0.87464848  0.86944252  1
  V  V26  1  0.50335605  0.25007660  0.74914498  1
  V  V27  1  0.87820595  0.13603682  0.24853307  1
  V  V28  1  0.24578170  0.12237935  0.37787525  1
  V  V29  1  0.25109797  0.62889253  0.87230214  1
  V  V30  1  0.62497232  0.39327298  0.74669979  1
  V  V31  1  0.11713549  0.73916081  0.38036242  1
  V  V32  1  0.61893715  0.62730386  0.00217231  1
  V  V33  1  0.49721094  0.50385961  0.00569007  1
  V  V34  1  0.75016121  0.49595862  0.24810141  1
  V  V35  1  0.87613928  0.87648548  0.00167066  1
  V  V36  1  0.88256083  0.74101531  0.12337334  1
  V  V37  1  0.37561481  0.86692341  0.00279938  1
  V  V38  1  0.12761881  0.86120398  0.74618004  1
  V  V39  1  0.74689846  0.62101884  0.86938583  1
  V  V40  1  0.50735828  0.37219978  0.37478022  1
  V  V41  1  0.50178483  -0.01069480  0.49621256  1
  V  V42  1  0.12020281  0.36998752  0.24987377  1
  V  V43  1  0.00275847  0.86375480  0.86549769  1
  V  V44  1  0.12101919  -0.00383391  0.12602672  1
  V  V45  1  0.00271275  0.50544902  0.49894904  1
  V  V46  1  0.12584312  0.37937110  0.75130649  1
  V  V47  1  0.87792051  0.62479720  0.75266496  1
  V  V48  1  0.50686733  0.24778179  0.25551489  1
  V  V49  1  0.50930770  0.74783470  0.74659449  1
  V  V50  1  0.36867510  0.50332604  0.36790758  1
  V  V51  1  0.11716570  0.87387733  0.26142807  1
  V  V52  1  0.62677917  -0.00704590  0.12618333  1
  V  V53  1  0.25228270  0.25183495  0.00150560  1
  V  V54  1  0.50298608  0.50117629  0.50334895  1
  V  V55  1  0.74470046  0.38912665  0.62612641  1
  V  V56  1  0.24006620  0.24765996  0.49866561  1
  V  V57  1  0.87194448  0.25240822  0.62426591  1
  V  V58  1  0.37670990  -0.01046031  0.37365055  1
  V  V59  1  0.87007484  0.12466968  0.74469275  1
  V  V60  1  0.74558640  0.75307048  0.49644162  1
  V  V61  1  0.12493078  0.50787395  0.13227745  1
  V  V62  1  0.79929260  0.18149531  0.93229932  1
  V  V63  1  -0.00067199  0.14024837  0.12967120  1
  V  V64  1  0.25024337  0.37570155  0.62356187  1
  V  V65  1  0.50028385  0.12332155  0.12616167  1
  V  V66  1  0.74007162  0.62616067  0.37307264  1
  V  V67  1  0.87326256  -0.00136668  0.87164612  1
  V  V68  1  0.61978893  0.86983001  0.27301406  1
  V  V69  1  0.37473443  0.37721178  0.00074053  1
  V  V70  1  0.49991492  0.12378145  0.62371088  1
  V  V71  1  0.12879203  0.12266649  0.00124270  1
  V  V72  1  0.62382471  0.50206588  0.12724020  1
  V  V73  1  0.87091420  0.49711772  0.87533978  1
  V  V74  1  0.36968343  0.62823731  0.23475530  1
  V  V75  1  0.00894930  0.12582406  0.61697219  1
  V  V76  1  0.37530841  0.12105139  0.25120164  1
  V  V77  1  0.74782274  0.74985435  0.00009871  1
  V  V78  1  0.12621779  0.50560585  0.62001642  1
  V  V79  1  0.25047242  0.74117493  0.49733690  1
  V  V80  1  0.62368384  0.62355353  0.50901903  1
  V  V81  1  0.50098710  0.37540705  0.87640893  1
  V  V82  1  0.87554040  0.50259115  0.37490893  1
  V  V83  1  0.75140679  0.12424055  0.37281013  1
  V  V84  1  0.74778764  -0.00538259  0.75170687  1
  Zn  Zn85  1  0.88648593  -0.00718357  0.36991742  1
  Zn  Zn86  1  0.11863713  0.24500003  0.37272092  1
  Zn  Zn87  1  0.37742726  0.50595469  0.87246086  1
  Zn  Zn88  1  0.88121538  0.87518203  0.48751738  1
  Zn  Zn89  1  -0.00029244  0.25242971  0.74819661  1
  Zn  Zn90  1  0.37503363  0.24887952  0.62375471  1
  Zn  Zn91  1  0.87807296  0.62146700  0.24273013  1
  Zn  Zn92  1  0.00126844  -0.00106730  -0.00290842  1
  Zn  Zn93  1  0.25130081  -0.00459060  0.25114159  1
  Zn  Zn94  1  0.62858539  0.24886123  0.87446181  1
  Zn  Zn95  1  0.87325955  0.37728250  0.50224817  1
  Zn  Zn96  1  0.00940029  -0.00770563  0.48861933  1
  Zn  Zn97  1  0.62791549  0.36979466  0.24913097  1
  Zn  Zn98  1  0.75362269  -0.00448547  0.25207194  1
  Zn  Zn99  1  0.62865696  0.75582511  0.87140435  1
  Zn  Zn100  1  0.74356776  0.86970006  0.63030077  1
  Zn  Zn101  1  0.24800763  0.62048458  0.37013933  1
  Zn  Zn102  1  0.13073920  -0.00236408  0.62117226  1
  Zn  Zn103  1  -0.00304926  0.74670260  0.25304969  1
  Zn  Zn104  1  0.74998669  0.87333268  0.12814430  1
  Zn  Zn105  1  0.49812477  0.61701431  0.63486177  1
  Zn  Zn106  1  0.37567723  0.12560837  0.74894090  1
  Zn  Zn107  1  0.18837937  0.18703164  0.19069790  1
  Zn  Zn108  1  0.19143970  0.19029610  0.68979054  1
  Zn  Zn109  1  0.18748467  0.68996502  0.18758034  1
  Zn  Zn110  1  0.18983809  0.68730589  0.68612985  1
  Zn  Zn111  1  0.68868438  0.18590601  0.18513825  1
  Zn  Zn112  1  0.68640425  0.18656195  0.68489799  1
  Zn  Zn113  1  0.68648703  0.68864398  0.18774589  1
  Zn  Zn114  1  0.68703618  0.68097917  0.68704249  1
  Zn  Zn115  1  0.31438916  0.31053503  0.31279508  1
  Zn  Zn116  1  0.31716952  0.31503042  0.81126036  1
  Zn  Zn117  1  0.31322098  0.80579782  0.31231935  1
  Zn  Zn118  1  0.31211681  0.81309936  0.81379212  1
  Zn  Zn119  1  0.81192285  0.31268537  0.31232683  1
  Zn  Zn120  1  0.81257127  0.32181438  0.80488767  1
  Zn  Zn121  1  0.80801087  0.81188498  0.31034408  1
  Zn  Zn122  1  0.81381131  0.81179309  0.81073594  1
  Zn  Zn123  1  0.18634199  0.43745042  0.43518505  1
  Zn  Zn124  1  0.18787569  0.44375512  0.94045489  1
  Zn  Zn125  1  0.18759516  0.93590265  0.44251017  1
  Zn  Zn126  1  0.18587543  0.93583267  0.93385339  1
  Zn  Zn127  1  0.68622223  0.43883317  0.43845838  1
  Zn  Zn128  1  0.68480911  0.43682132  0.93642627  1
  Zn  Zn129  1  0.69697561  0.93968567  0.44258461  1
  Zn  Zn130  1  0.68981274  0.94230438  0.93881846  1
  Zn  Zn131  1  0.31165199  0.05667174  0.06389786  1
  Zn  Zn132  1  0.31384781  0.06235951  0.55974883  1
  Zn  Zn133  1  0.30789840  0.56372708  0.06163607  1
  Zn  Zn134  1  0.31657172  0.56405058  0.56028795  1
  Zn  Zn135  1  0.81703096  0.05829686  0.07118999  1
  Zn  Zn136  1  0.81527934  0.05718225  0.55986676  1
  Zn  Zn137  1  0.80772540  0.55849473  0.05776003  1
  Zn  Zn138  1  0.81503470  0.56637917  0.55941940  1
  Zn  Zn139  1  0.43798116  0.43969381  0.18901996  1
  Zn  Zn140  1  0.43810595  0.43399451  0.68458973  1
  Zn  Zn141  1  0.44096044  0.92923434  0.18814933  1
  Zn  Zn142  1  0.43630330  0.93221573  0.68601236  1
  Zn  Zn143  1  0.93579045  0.43307780  0.18709398  1
  Zn  Zn144  1  0.93601600  0.44059119  0.68989386  1
  Zn  Zn145  1  0.93690629  0.93894094  0.19282030  1
  Zn  Zn146  1  0.95684454  0.92107118  0.65784406  1
  Zn  Zn147  1  0.06204043  0.06238373  0.31153430  1
  Zn  Zn148  1  0.05840474  0.06075543  0.80565181  1
  Zn  Zn149  1  0.05749747  0.56443932  0.30701346  1
  Zn  Zn150  1  0.06533346  0.56566808  0.81406679  1
  Zn  Zn151  1  0.56404702  0.05775453  0.31368002  1
  Zn  Zn152  1  0.56433067  0.06457690  0.81309890  1
  Zn  Zn153  1  0.55823878  0.56240111  0.31449150  1
  Zn  Zn154  1  0.55801313  0.56779314  0.81795572  1
  Zn  Zn155  1  0.43397388  0.18503549  0.43653599  1
  Zn  Zn156  1  0.43942867  0.18750261  0.93629593  1
  Zn  Zn157  1  0.44164834  0.68951684  0.42995923  1
  Zn  Zn158  1  0.43569096  0.68878762  0.93480004  1
  Zn  Zn159  1  0.93211686  0.18420775  0.43968890  1
  Zn  Zn160  1  0.96018612  0.18577828  0.93648085  1
  Zn  Zn161  1  0.93364382  0.68584592  0.43911545  1
  Zn  Zn162  1  0.93652917  0.68625244  0.93822583  1
  Zn  Zn163  1  0.06587992  0.31747083  0.05952980  1
  Zn  Zn164  1  0.05933154  0.31578268  0.56191499  1
  Zn  Zn165  1  0.06160964  0.81453075  0.05975910  1
  Zn  Zn166  1  0.06574690  0.81244232  0.56044359  1
  Zn  Zn167  1  0.56563121  0.31539144  0.06672934  1
  Zn  Zn168  1  0.56420156  0.31367898  0.56423668  1
  Zn  Zn169  1  0.55663993  0.80786945  0.06677099  1
  Zn  Zn170  1  0.56092433  0.80940036  0.55971013  1
  O  O171  1  0.11882752  0.11746649  0.12444195  1
  O  O172  1  0.11030939  0.13325670  0.63359169  1
  O  O173  1  0.13063923  0.61731796  0.11646428  1
  O  O174  1  0.11738032  0.61538600  0.63130451  1
  O  O175  1  0.61927084  0.11392457  0.12056766  1
  O  O176  1  0.61508567  0.11707802  0.61536421  1
  O  O177  1  0.63208972  0.61293138  0.11578699  1
  O  O178  1  0.61929816  0.62299744  0.61366552  1
  O  O179  1  0.38254106  0.38093997  0.37864072  1
  O  O180  1  0.38222757  0.37922472  0.88339490  1
  O  O181  1  0.37110372  0.88464592  0.37957115  1
  O  O182  1  0.38316269  0.88100195  0.88207012  1
  O  O183  1  0.88039502  0.38595393  0.37582244  1
  O  O184  1  0.88580538  0.38387803  0.86821703  1
  O  O185  1  0.86741894  0.87802630  0.37446471  1
  O  O186  1  0.88345038  0.88126121  0.87729653  1
  O  O187  1  0.25896344  0.00558342  0.37457824  1
  O  O188  1  0.25691222  0.00470849  0.86884819  1
  O  O189  1  0.26397042  0.49922449  0.37711592  1
  O  O190  1  0.25186916  0.50639098  0.86566199  1
  O  O191  1  0.74872656  0.01612503  0.37413664  1
  O  O192  1  0.76280503  -0.00105498  0.86907505  1
  O  O193  1  0.75655866  0.50293924  0.36825183  1
  O  O194  1  0.75910162  0.50794141  0.88262250  1
  O  O195  1  0.23824712  0.49070219  0.11866941  1
  O  O196  1  0.24425472  0.49867181  0.62944373  1
  O  O197  1  0.23839399  0.98936873  0.12549128  1
  O  O198  1  0.25466691  1.00523101  0.64058560  1
  O  O199  1  0.74392695  0.49357615  0.13138375  1
  O  O200  1  0.75527258  0.48787460  0.61781678  1
  O  O201  1  0.74070945  0.99631699  0.12877779  1
  O  O202  1  0.74125767  0.99891298  0.63209075  1
  O  O203  1  0.00750336  0.37986652  0.26036555  1
  O  O204  1  0.00967954  0.37734518  0.75860557  1
  O  O205  1  0.01475516  0.86609730  0.24324100  1
  O  O206  1  0.01203134  0.87831014  0.75733236  1
  O  O207  1  0.49977812  0.36604370  0.25720015  1
  O  O208  1  0.50547881  0.36895735  0.75351900  1
  O  O209  1  0.51644823  0.87288329  0.25211929  1
  O  O210  1  0.49545483  0.86243829  0.75810011  1
  O  O211  1  0.49490601  0.12906022  0.24754530  1
  O  O212  1  0.49915409  0.13132786  0.74163743  1
  O  O213  1  0.49458620  0.63345680  0.24984679  1
  O  O214  1  0.49765395  0.64151406  0.75264643  1
  O  O215  1  0.99741281  0.12716201  0.23642398  1
  O  O216  1  0.98533871  0.13290319  0.74777135  1
  O  O217  1  0.99021454  0.63325803  0.25256680  1
  O  O218  1  0.99183552  0.61842426  0.74177305  1
  O  O219  1  0.37194238  0.25590185  0.00677489  1
  O  O220  1  0.36905323  0.26222332  0.49829402  1
  O  O221  1  0.36812279  0.76172286  -0.00232874  1
  O  O222  1  0.37239521  0.75389694  0.50490918  1
  O  O223  1  0.86433216  0.23386625  -0.01536653  1
  O  O224  1  0.86589431  0.25276252  0.51105940  1
  O  O225  1  0.86797231  0.75510839  0.00587665  1
  O  O226  1  0.86353654  0.74761373  0.51023452  1
  O  O227  1  0.13717300  0.25811863  0.49633696  1
  O  O228  1  0.13344238  0.24497759  0.99389320  1
  O  O229  1  0.13430189  0.75672251  0.48779703  1
  O  O230  1  0.13079273  0.74141024  1.00273906  1
  O  O231  1  0.63151255  0.23961165  0.50540455  1
  O  O232  1  0.61832405  0.23606178  1.00148079  1
  O  O233  1  0.63535987  0.74112818  0.50345301  1
  O  O234  1  0.62974599  0.74379521  0.99978257  1
  O  O235  1  0.49405939  0.24425826  0.13203732  1
  O  O236  1  0.49907921  0.24166863  0.63018745  1
  O  O237  1  0.49542399  0.76215641  0.14853795  1
  O  O238  1  0.49348436  0.74878767  0.63605833  1
  O  O239  1  1.00670709  0.23841254  0.11839833  1
  O  O240  1  0.99096955  0.24570516  0.62636202  1
  O  O241  1  0.98414531  0.75138247  0.11892058  1
  O  O242  1  0.99272697  0.73454827  0.61969239  1
  O  O243  1  -0.00065959  0.26407021  0.38536294  1
  O  O244  1  0.01146359  0.26146021  0.87071742  1
  O  O245  1  0.01349111  0.74846346  0.38164741  1
  O  O246  1  -0.00751033  0.76535808  0.87348226  1
  O  O247  1  0.49178830  0.25814456  0.36695115  1
  O  O248  1  0.50131506  0.25698340  0.86673404  1
  O  O249  1  0.49515485  0.75554074  0.35412551  1
  O  O250  1  0.50005969  0.75723723  0.86394788  1
  O  O251  1  0.25775544  0.13562293  0.49082446  1
  O  O252  1  0.24721086  0.12991175  0.99570504  1
  O  O253  1  0.25456960  0.63664339  0.49578270  1
  O  O254  1  0.24135659  0.63340522  0.99593922  1
  O  O255  1  0.74153182  0.13120555  0.49567669  1
  O  O256  1  0.74454587  0.12381021  1.00037252  1
  O  O257  1  0.74140372  0.62825386  0.49367288  1
  O  O258  1  0.73990752  0.63102442  0.99114356  1
  O  O259  1  0.25417408  0.37104045  0.00885716  1
  O  O260  1  0.25674323  0.36975046  0.50291912  1
  O  O261  1  0.25414842  0.86891299  0.00248161  1
  O  O262  1  0.26390861  0.86221848  0.49550224  1
  O  O263  1  0.74740649  0.37670508  0.00982165  1
  O  O264  1  0.74839850  0.36750137  0.50560049  1
  O  O265  1  0.76129352  0.86739552  -0.00336329  1
  O  O266  1  0.75207366  0.86441332  0.50855428  1
  O  O267  1  0.12063941  0.49208764  0.23771427  1
  O  O268  1  0.13306774  0.49228733  0.74301056  1
  O  O269  1  0.12876597  0.98642518  0.24390764  1
  O  O270  1  0.13386870  0.99460479  0.74744201  1
  O  O271  1  0.62984448  0.50001482  0.24248465  1
  O  O272  1  0.61463809  0.49242301  0.75180960  1
  O  O273  1  0.62473167  0.98722642  0.24401268  1
  O  O274  1  0.63444125  1.00924199  0.74103251  1
  O  O275  1  0.37629215  0.00180363  0.25750753  1
  O  O276  1  0.36973575  -0.00320745  0.76052679  1
  O  O277  1  0.38424748  0.51465519  0.25667682  1
  O  O278  1  0.36379157  0.49602697  0.74917012  1
  O  O279  1  0.87118304  0.01324260  0.24870502  1
  O  O280  1  0.86847863  0.00914403  0.75619758  1
  O  O281  1  0.86669307  0.50072984  0.25642683  1
  O  O282  1  0.87740213  0.50981239  0.76382828  1
  O  O283  1  0.11628508  0.37660960  0.36616643  1
  O  O284  1  0.12138711  0.37589665  0.86859177  1
  O  O285  1  0.13161898  0.86604592  0.36331490  1
  O  O286  1  0.10848283  0.88048128  0.86841561  1
  O  O287  1  0.61087346  0.37821172  0.37251256  1
  O  O288  1  0.61836899  0.37205116  0.86619167  1
  O  O289  1  0.62653598  0.87887088  0.37081609  1
  O  O290  1  0.61091173  0.87630403  0.88299049  1
  O  O291  1  0.38073686  0.12628268  0.13043068  1
  O  O292  1  0.38879470  0.12525868  0.62472037  1
  O  O293  1  0.37435597  0.62023512  0.13586121  1
  O  O294  1  0.38059722  0.64077798  0.62031165  1
  O  O295  1  0.89227345  0.12316384  0.12902165  1
  O  O296  1  0.88105395  0.13337795  0.63010874  1
  O  O297  1  0.86766589  0.63827562  0.11908188  1
  O  O298  1  0.88048127  0.62854069  0.63379026  1
  O  O299  1  0.25603958  0.25675420  0.12039120  1
  O  O300  1  0.25330863  0.25600677  0.61701822  1
  O  O301  1  0.24583173  0.76208441  0.11324803  1
  O  O302  1  0.26224254  0.74672854  0.61811419  1
  O  O303  1  0.74252867  0.26696618  0.12721809  1
  O  O304  1  0.75460920  0.25536451  0.61553640  1
  O  O305  1  0.75497580  0.75150111  0.11202542  1
  O  O306  1  0.75506697  0.74511142  0.61820765  1
  O  O307  1  0.25079482  0.24247831  0.38237345  1
  O  O308  1  0.24874780  0.24630160  0.87991545  1
  O  O309  1  0.24099502  0.74552370  0.38140924  1
  O  O310  1  0.25204973  0.74532283  0.88690332  1
  O  O311  1  0.75387091  0.24222508  0.38889753  1
  O  O312  1  0.74883629  0.24867528  0.87279857  1
  O  O313  1  0.75391598  0.73656111  0.38364737  1
  O  O314  1  0.74948962  0.74395947  0.88490083  1
  O  O315  1  0.01065799  0.11904295  0.01237689  1
  O  O316  1  -0.00097706  0.12837874  0.51520335  1
  O  O317  1  0.01009377  0.61731013  -0.00597521  1
  O  O318  1  -0.00515657  0.61200806  0.50916993  1
  O  O319  1  0.50489580  0.11739936  0.00554963  1
  O  O320  1  0.50454190  0.11787064  0.50504208  1
  O  O321  1  0.50999497  0.62050857  -0.00479526  1
  O  O322  1  0.50789980  0.61771472  0.49615561  1
  O  O323  1  0.49363731  0.37854887  0.49375545  1
  O  O324  1  0.49623351  0.38259549  0.99686604  1
  O  O325  1  0.49172055  0.88393771  0.50205714  1
  O  O326  1  0.49147831  0.87877024  0.99444929  1
  O  O327  1  0.99735620  0.38773285  0.49397389  1
  O  O328  1  1.00608063  0.38439886  0.98725337  1
  O  O329  1  0.98419759  0.88675888  0.54357148  1
  O  O330  1  0.99079360  0.87664227  0.98770778  1
  O  O331  1  0.49009106  0.49141685  0.38308814  1
  O  O332  1  0.49785161  0.49553772  0.88791955  1
  O  O333  1  0.48999119  1.00641460  0.38657616  1
  O  O334  1  0.49273516  0.99420254  0.87762374  1
  O  O335  1  0.99370506  0.49582178  0.38202328  1
  O  O336  1  0.99565406  0.49547185  0.88279188  1
  O  O337  1  1.00162776  0.99831130  0.37482731  1
  O  O338  1  0.98659036  0.99582905  0.87444413  1
  O  O339  1  0.01271555  0.00123959  0.12325406  1
  O  O340  1  0.00453259  0.02266471  0.63594884  1
  O  O341  1  0.00669290  0.49290202  0.11287917  1
  O  O342  1  0.00685197  0.50555789  0.61909470  1
  O  O343  1  0.50502818  0.00412157  0.11883772  1
  O  O344  1  0.50408661  0.00539161  0.61923614  1
  O  O345  1  0.50810071  0.49548133  0.11363385  1
  O  O346  1  0.49068826  0.50132894  0.60871779  1
  O  O347  1  0.24620518  0.37278668  0.23892825  1
  O  O348  1  0.24513015  0.38273578  0.74435841  1
  O  O349  1  0.24213368  0.87177331  0.24146385  1
  O  O350  1  0.23572978  0.88362436  0.76318927  1
  O  O351  1  0.74659338  0.38603356  0.24956060  1
  O  O352  1  0.73671685  0.37482948  0.73909939  1
  O  O353  1  0.73076935  0.87279286  0.24629652  1
  O  O354  1  0.74919414  0.88957037  0.75251626  1
  O  O355  1  0.26059027  0.12104837  0.25450561  1
  O  O356  1  0.25413948  0.11894443  0.75809811  1
  O  O357  1  0.26477077  0.62912366  0.24949917  1
  O  O358  1  0.24445064  0.61671984  0.75905063  1
  O  O359  1  0.75516420  0.12562340  0.25762956  1
  O  O360  1  0.76187165  0.11807375  0.74322802  1
  O  O361  1  0.75128627  0.61442732  0.25592666  1
  O  O362  1  0.75340049  0.62466003  0.76348703  1
  O  O363  1  0.36694726  0.11487335  0.36967218  1
  O  O364  1  0.37070406  0.11489261  0.87446723  1
  O  O365  1  0.37442633  0.61578722  0.36743013  1
  O  O366  1  0.35785096  0.62278114  0.88233152  1
  O  O367  1  0.86724177  0.12465823  0.36656643  1
  O  O368  1  0.87059848  0.12343257  0.87231927  1
  O  O369  1  0.86398418  0.61266223  0.37716096  1
  O  O370  1  0.86822435  0.61969832  0.87042122  1
  O  O371  1  0.13144186  0.38206461  0.13072007  1
  O  O372  1  0.12962648  0.38329107  0.63241491  1
  O  O373  1  0.13053548  0.87895915  0.13099271  1
  O  O374  1  0.12524045  0.87366936  0.64309526  1
  O  O375  1  0.63241785  0.38841486  0.12704586  1
  O  O376  1  0.63190929  0.37498044  0.63378430  1
  O  O377  1  0.62548160  0.88787005  0.11628573  1
  O  O378  1  0.62172950  0.88862785  0.62174581  1
  O  O379  1  0.12843585  0.26529745  0.25087810  1
  O  O380  1  0.12840773  0.26585484  0.75537520  1
  O  O381  1  0.12450031  0.75720913  0.26214948  1
  O  O382  1  0.13142919  0.76211349  0.75295073  1
  O  O383  1  0.61051204  0.24882684  0.24630859  1
  O  O384  1  0.61332058  0.25225294  0.74959797  1
  O  O385  1  0.61794154  0.75994771  0.24960736  1
  O  O386  1  0.61339981  0.74999601  0.74979684  1
  O  O387  1  0.38314436  0.24196112  0.24429650  1
  O  O388  1  0.38861843  0.24959527  0.74671631  1
  O  O389  1  0.38222842  0.73519009  0.25062579  1
  O  O390  1  0.37904768  0.75482973  0.73748394  1
  O  O391  1  0.87218100  0.23671639  0.25178828  1
  O  O392  1  0.87250843  0.24543472  0.73843488  1
  O  O393  1  0.86963667  0.74974231  0.23074543  1
  O  O394  1  0.86877713  0.73272603  0.74627321  1
  O  O395  1  0.37885487  0.48931961  0.49192817  1
  O  O396  1  0.38240095  0.49580304  1.00170825  1
  O  O397  1  0.38111840  0.99014490  0.49550408  1
  O  O398  1  0.37789052  0.99170360  0.98936007  1
  O  O399  1  0.88234502  0.49787564  0.49206538  1
  O  O400  1  0.88534177  0.50758712  0.98849108  1
  O  O401  1  0.88166261  0.99807586  0.49383347  1
  O  O402  1  0.87534392  0.99166876  0.99299779  1
  O  O403  1  0.12607371  0.00518325  0.00749765  1
  O  O404  1  0.12392483  -0.00467593  0.50932381  1
  O  O405  1  0.11748126  0.50797584  0.00937148  1
  O  O406  1  0.11932294  0.49585109  0.51135018  1
  O  O407  1  0.62016996  0.00910511  0.00621830  1
  O  O408  1  0.61789608  0.00599531  0.50619679  1
  O  O409  1  0.61734462  0.50791375  0.00556854  1
  O  O410  1  0.61387131  0.50780456  0.49523475  1
  O  O411  1  0.36787350  0.37205503  0.12180066  1
  O  O412  1  0.36747081  0.37353663  0.61378281  1
  O  O413  1  0.36352106  0.88512142  0.11408733  1
  O  O414  1  0.37948374  0.85944531  0.61529699  1
  O  O415  1  0.85963999  0.37770624  0.12445394  1
  O  O416  1  0.86734072  0.36852058  0.62708954  1
  O  O417  1  0.87344485  0.86820269  0.11545490  1
  O  O418  1  0.86544210  0.85303536  0.64432377  1
  O  O419  1  0.14199486  0.12877593  0.36228216  1
  O  O420  1  0.12918913  0.13081925  0.87902673  1
  O  O421  1  0.12792607  0.63601960  0.37143214  1
  O  O422  1  0.13709481  0.61876593  0.88725378  1
  O  O423  1  0.62945163  0.12259880  0.38630903  1
  O  O424  1  0.62300526  0.12770613  0.88795045  1
  O  O425  1  0.63595499  0.61725054  0.38273202  1
  O  O426  1  0.63171506  0.62913879  0.88327491  1
