# generated using pymatgen
data_V85Zn86O256
_symmetry_space_group_name_H-M   'P 1'
_cell_length_a   16.93859818
_cell_length_b   16.94382014
_cell_length_c   16.94075914
_cell_angle_alpha   89.94217906
_cell_angle_beta   89.80286203
_cell_angle_gamma   90.03481112
_symmetry_Int_Tables_number   1
_chemical_formula_structural   V85Zn86O256
_chemical_formula_sum   'V85 Zn86 O256'
_cell_volume   4862.04297554
_cell_formula_units_Z   1
loop_
 _symmetry_equiv_pos_site_id
 _symmetry_equiv_pos_as_xyz
  1  'x, y, z'
loop_
 _atom_site_type_symbol
 _atom_site_label
 _atom_site_symmetry_multiplicity
 _atom_site_fract_x
 _atom_site_fract_y
 _atom_site_fract_z
 _atom_site_occupancy
  V  V0  1  0.62335007  0.87242152  0.25722679  1
  V  V1  1  0.50303476  0.49524240  0.50017494  1
  V  V2  1  -0.00666877  0.62411533  0.13031971  1
  V  V3  1  0.24869533  0.37714892  0.62410608  1
  V  V4  1  0.62628369  0.25176923  0.86846560  1
  V  V5  1  0.24285622  0.62381839  0.37606886  1
  V  V6  1  0.00454629  0.25860036  0.25000624  1
  V  V7  1  0.62494953  0.01201311  0.62338251  1
  V  V8  1  0.62283897  0.49577669  0.13861862  1
  V  V9  1  0.75406934  0.48768115  0.75377900  1
  V  V10  1  0.25908006  0.88306696  0.61550767  1
  V  V11  1  0.87601819  0.73907618  0.62549902  1
  V  V12  1  0.37718078  0.73808222  0.62227070  1
  V  V13  1  0.87376001  0.00023148  0.87563626  1
  V  V14  1  0.50576802  0.37782266  0.86845111  1
  V  V15  1  0.87607392  0.87485609  0.50227685  1
  V  V16  1  0.74496593  0.87371338  0.62795772  1
  V  V17  1  0.62114802  0.23987132  0.37322701  1
  V  V18  1  0.74207375  0.24687684  0.00129228  1
  V  V19  1  0.50600937  -0.00271742  0.49500606  1
  V  V20  1  0.87191040  0.37517753  -0.00639369  1
  V  V21  1  0.76044550  0.36861251  0.61392551  1
  V  V22  1  0.24749187  0.24939154  -0.00159081  1
  V  V23  1  -0.00064432  0.01577419  0.50098734  1
  V  V24  1  0.37597588  0.50486638  0.86107753  1
  V  V25  1  0.74755653  0.74827242  0.49864279  1
  V  V26  1  0.24727729  0.24989474  0.49739543  1
  V  V27  1  0.00204466  0.00017758  0.00100561  1
  V  V28  1  0.18423443  0.19218281  0.83014811  1
  V  V29  1  0.24723136  0.12504989  0.37926929  1
  V  V30  1  0.74654066  0.37388212  0.13568754  1
  V  V31  1  0.74752791  0.00344421  0.25364363  1
  V  V32  1  -0.00515811  0.50031719  -0.00357025  1
  V  V33  1  -0.00767798  0.74699727  0.25335044  1
  V  V34  1  0.50613732  0.12859456  0.11479070  1
  V  V35  1  0.87618545  0.87410888  0.00314514  1
  V  V36  1  0.87635640  0.50928300  0.37385767  1
  V  V37  1  0.75261891  0.74740171  0.00071611  1
  V  V38  1  0.87446663  0.25058220  0.12465324  1
  V  V39  1  -0.00177124  0.74353227  0.74648857  1
  V  V40  1  0.13208271  0.37465646  0.75566497  1
  V  V41  1  0.49854162  0.24182498  0.74966768  1
  V  V42  1  0.37607810  0.24903135  0.12528203  1
  V  V43  1  0.62482586  0.62258362  0.50330342  1
  V  V44  1  0.12779738  0.25730057  0.37284147  1
  V  V45  1  0.49810128  0.62232055  0.12983362  1
  V  V46  1  0.87279902  0.12721348  0.25420601  1
  V  V47  1  0.12414747  0.49305434  0.13057221  1
  V  V48  1  0.37500045  0.49571785  0.37440225  1
  V  V49  1  0.00130129  0.12593587  0.12580514  1
  V  V50  1  0.26444830  0.75469689  0.00691923  1
  V  V51  1  0.74974407  -0.00042102  0.75101287  1
  V  V52  1  0.00450681  0.37129405  0.87641071  1
  V  V53  1  0.36252933  0.00112250  0.86056250  1
  V  V54  1  0.37499782  0.24229055  0.62673561  1
  V  V55  1  0.74791842  0.22791311  0.49293925  1
  V  V56  1  0.25025340  0.00321841  0.24910284  1
  V  V57  1  0.00137221  0.50243144  0.51611842  1
  V  V58  1  0.75911579  0.61723439  0.87357326  1
  V  V59  1  0.11702222  0.00844350  0.61820648  1
  V  V60  1  0.12417237  0.62668494  0.00164754  1
  V  V61  1  0.25596630  0.62359416  0.87669858  1
  V  V62  1  0.60698277  0.75258914  0.37742949  1
  V  V63  1  0.62777237  0.48694524  0.63022652  1
  V  V64  1  0.62279069  0.75188486  0.86979678  1
  V  V65  1  -0.00325234  0.24604585  0.74705029  1
  V  V66  1  0.37352729  0.37885777  -0.00217744  1
  V  V67  1  0.62708234  0.00530179  0.11629105  1
  V  V68  1  0.12781587  -0.00112503  0.12562664  1
  V  V69  1  0.13043772  0.12445349  -0.00092221  1
  V  V70  1  0.00015472  0.87335714  0.87597037  1
  V  V71  1  0.75115009  0.87412032  0.12739248  1
  V  V72  1  0.86849616  0.00389441  0.37762990  1
  V  V73  1  0.37274275  0.62293681  0.24657350  1
  V  V74  1  0.12451466  0.87286265  0.25000858  1
  V  V75  1  0.49018296  -0.01327750  -0.00829186  1
  V  V76  1  0.62659305  0.62052852  0.00128182  1
  V  V77  1  0.19308841  0.54949606  0.69425537  1
  V  V78  1  0.74604175  0.12415970  0.87810842  1
  V  V79  1  -0.00737663  0.37559970  0.38276065  1
  V  V80  1  -0.00082001  0.87648215  0.37723234  1
  V  V81  1  0.12734007  0.87920212  0.74631535  1
  V  V82  1  0.44275537  0.79766655  0.19239610  1
  V  V83  1  0.12745399  0.75235707  0.87860370  1
  V  V84  1  0.37813902  -0.00999958  0.38160789  1
  Zn  Zn85  1  0.87780155  0.12341054  0.74428510  1
  Zn  Zn86  1  0.12219125  0.62373561  0.51524242  1
  Zn  Zn87  1  0.49837187  0.50047230  -0.00202257  1
  Zn  Zn88  1  0.24505299  0.37205633  0.12856183  1
  Zn  Zn89  1  0.88008834  0.61306206  0.74991113  1
  Zn  Zn90  1  0.48488894  0.74971170  0.75733048  1
  Zn  Zn91  1  0.75211674  0.62990402  0.36786977  1
  Zn  Zn92  1  0.51535476  0.38075068  0.36132395  1
  Zn  Zn93  1  0.49707684  0.61689716  0.63662414  1
  Zn  Zn94  1  0.49734908  0.12348383  0.62374110  1
  Zn  Zn95  1  0.61544615  0.87866051  0.75553166  1
  Zn  Zn96  1  0.88756038  0.24351230  0.60918116  1
  Zn  Zn97  1  0.24360920  0.49322603  0.25429107  1
  Zn  Zn98  1  0.37840922  0.37231994  0.49922439  1
  Zn  Zn99  1  0.51037557  0.25510596  0.24384991  1
  Zn  Zn100  1  0.75761048  0.50792400  0.25001735  1
  Zn  Zn101  1  0.38058842  0.12824804  0.25274802  1
  Zn  Zn102  1  0.26214934  0.87262980  0.12367169  1
  Zn  Zn103  1  0.86777885  0.73995919  0.13380374  1
  Zn  Zn104  1  0.12164619  0.74675941  0.38118904  1
  Zn  Zn105  1  0.24935396  0.01931816  0.74486632  1
  Zn  Zn106  1  0.24718418  0.75281786  0.49766471  1
  Zn  Zn107  1  0.18881515  0.18898820  0.18835899  1
  Zn  Zn108  1  0.17516613  0.19370160  0.66554678  1
  Zn  Zn109  1  0.18429345  0.68521259  0.18805806  1
  Zn  Zn110  1  0.19740698  0.71092542  0.69364125  1
  Zn  Zn111  1  0.68679081  0.18701129  0.19200092  1
  Zn  Zn112  1  0.69223368  0.19015305  0.69030237  1
  Zn  Zn113  1  0.68452307  0.68673585  0.19317430  1
  Zn  Zn114  1  0.68827786  0.67866142  0.68882093  1
  Zn  Zn115  1  0.31484665  0.31807578  0.30709135  1
  Zn  Zn116  1  0.32151714  0.31967604  0.80735395  1
  Zn  Zn117  1  0.30444733  0.81422552  0.31743080  1
  Zn  Zn118  1  0.31706381  0.82129709  0.81139542  1
  Zn  Zn119  1  0.81048412  0.31207569  0.32059295  1
  Zn  Zn120  1  0.81258424  0.31574805  0.81122221  1
  Zn  Zn121  1  0.81026152  0.81386025  0.31643476  1
  Zn  Zn122  1  0.80996601  0.81042585  0.81285910  1
  Zn  Zn123  1  0.18227447  0.43856635  0.43982112  1
  Zn  Zn124  1  0.18764350  0.44053513  0.93926155  1
  Zn  Zn125  1  0.18468016  0.94009402  0.43675227  1
  Zn  Zn126  1  0.19526583  0.93651777  0.93534399  1
  Zn  Zn127  1  0.68891723  0.43217108  0.43358111  1
  Zn  Zn128  1  0.68654566  0.43677013  0.94030116  1
  Zn  Zn129  1  0.68542547  0.93816379  0.43986030  1
  Zn  Zn130  1  0.68630467  0.93603420  0.94016385  1
  Zn  Zn131  1  0.31633708  0.06358120  0.05837135  1
  Zn  Zn132  1  0.31247837  0.06392811  0.55858967  1
  Zn  Zn133  1  0.31225076  0.56354972  0.06016548  1
  Zn  Zn134  1  0.31570933  0.56594515  0.55292768  1
  Zn  Zn135  1  0.81275437  0.06398653  0.06351361  1
  Zn  Zn136  1  0.81745184  0.06448214  0.56919564  1
  Zn  Zn137  1  0.81156279  0.55825910  0.06458634  1
  Zn  Zn138  1  0.81415064  0.55597261  0.55701212  1
  Zn  Zn139  1  0.43529750  0.43561865  0.18754244  1
  Zn  Zn140  1  0.43965113  0.42987861  0.68599433  1
  Zn  Zn141  1  0.44062191  0.95936323  0.19027265  1
  Zn  Zn142  1  0.44216857  0.93602091  0.69462370  1
  Zn  Zn143  1  0.93568623  0.43617636  0.18861006  1
  Zn  Zn144  1  0.93441803  0.42914261  0.69073836  1
  Zn  Zn145  1  0.93782700  0.93783074  0.18981872  1
  Zn  Zn146  1  0.93620840  0.93315573  0.68715367  1
  Zn  Zn147  1  0.06216766  0.06772318  0.31624921  1
  Zn  Zn148  1  0.05889885  0.05690463  0.80925950  1
  Zn  Zn149  1  0.05755291  0.56047960  0.31274400  1
  Zn  Zn150  1  0.05766998  0.56402658  0.82168569  1
  Zn  Zn151  1  0.56150790  0.06913609  0.30949016  1
  Zn  Zn152  1  0.56415870  0.06287066  0.81525405  1
  Zn  Zn153  1  0.56167469  0.56874263  0.31484012  1
  Zn  Zn154  1  0.56521296  0.56653970  0.80873358  1
  Zn  Zn155  1  0.43821558  0.18234636  0.43963128  1
  Zn  Zn156  1  0.43790339  0.18212993  0.93741133  1
  Zn  Zn157  1  0.43116120  0.68260764  0.44534903  1
  Zn  Zn158  1  0.44022044  0.68552305  0.93925038  1
  Zn  Zn159  1  0.93286773  0.19119580  0.43574787  1
  Zn  Zn160  1  0.93700937  0.18851436  0.93412031  1
  Zn  Zn161  1  0.94221889  0.68401950  0.44344100  1
  Zn  Zn162  1  0.93653707  0.68874782  0.93927968  1
  Zn  Zn163  1  0.06294126  0.31044975  0.05901683  1
  Zn  Zn164  1  0.06733731  0.31970099  0.56182047  1
  Zn  Zn165  1  0.06399422  0.80999965  0.06660422  1
  Zn  Zn166  1  0.06371975  0.81344189  0.56197547  1
  Zn  Zn167  1  0.56258418  0.31640696  0.05756552  1
  Zn  Zn168  1  0.56737017  0.30904629  0.55658713  1
  Zn  Zn169  1  0.57195986  0.81403142  0.05793002  1
  Zn  Zn170  1  0.55693803  0.81858188  0.56346606  1
  O  O171  1  0.12046827  0.11898844  0.11886571  1
  O  O172  1  0.11798080  0.10789534  0.62173657  1
  O  O173  1  0.11288834  0.61799202  0.11924093  1
  O  O174  1  0.14186850  0.61695826  0.63837556  1
  O  O175  1  0.62125144  0.11631048  0.12767731  1
  O  O176  1  0.62774482  0.11398653  0.62917160  1
  O  O177  1  0.61731965  0.61899666  0.12032712  1
  O  O178  1  0.62930959  0.61349193  0.61337140  1
  O  O179  1  0.37579349  0.38861497  0.37779486  1
  O  O180  1  0.38140650  0.38335168  0.88292340  1
  O  O181  1  0.36994549  0.89186277  0.37055619  1
  O  O182  1  0.37174375  0.89772386  0.87408912  1
  O  O183  1  0.88812422  0.37942856  0.37432108  1
  O  O184  1  0.88132039  0.37082900  0.88823065  1
  O  O185  1  0.87948165  0.88408226  0.38143971  1
  O  O186  1  0.87913122  0.87917948  0.88261363  1
  O  O187  1  0.25467926  0.00698572  0.37026938  1
  O  O188  1  0.25531079  0.00315875  0.86506813  1
  O  O189  1  0.25652324  0.50565180  0.37586232  1
  O  O190  1  0.25796433  0.51510671  0.88216953  1
  O  O191  1  0.76116204  -0.00532726  0.37043200  1
  O  O192  1  0.75225823  0.00660987  0.87381754  1
  O  O193  1  0.76684166  0.49771489  0.37743449  1
  O  O194  1  0.74423763  0.50386190  0.86650034  1
  O  O195  1  0.23076147  0.50407782  0.11888182  1
  O  O196  1  0.25580680  0.49631622  0.62904865  1
  O  O197  1  0.24867530  0.99598884  0.13244046  1
  O  O198  1  0.23795703  0.99686718  0.62437949  1
  O  O199  1  0.74182329  0.49085023  0.12733088  1
  O  O200  1  0.74832436  0.48647759  0.62835730  1
  O  O201  1  0.74456605  0.99454928  0.13099663  1
  O  O202  1  0.74472349  0.99174057  0.62914938  1
  O  O203  1  -0.00307263  0.36234649  0.25592481  1
  O  O204  1  0.01134234  0.36865030  0.75761968  1
  O  O205  1  0.00619080  0.87082387  0.25631364  1
  O  O206  1  0.00852501  0.86763668  0.75542387  1
  O  O207  1  0.49226834  0.36647397  0.25124901  1
  O  O208  1  0.49842778  0.36358827  0.76305125  1
  O  O209  1  0.50349232  0.86721885  0.24073404  1
  O  O210  1  0.50519515  0.86142818  0.74632803  1
  O  O211  1  0.49827629  0.13074901  0.23320205  1
  O  O212  1  0.50596238  0.13795897  0.74762781  1
  O  O213  1  0.49276542  0.62565264  0.23833220  1
  O  O214  1  0.50809251  0.63802899  0.74644625  1
  O  O215  1  0.99123240  0.13282833  0.24582941  1
  O  O216  1  1.00155561  0.14319302  0.75982068  1
  O  O217  1  1.00298908  0.63513603  0.24277439  1
  O  O218  1  0.99731813  0.63868450  0.75821847  1
  O  O219  1  0.36594814  0.25450576  0.00408182  1
  O  O220  1  0.36508077  0.25314001  0.50494332  1
  O  O221  1  0.36292487  0.74813483  -0.00110773  1
  O  O222  1  0.36619420  0.74797103  0.51470919  1
  O  O223  1  0.86757942  0.25578630  0.00563068  1
  O  O224  1  0.85618283  0.24824115  0.49611042  1
  O  O225  1  0.86984295  0.75729416  0.00688192  1
  O  O226  1  0.86841664  0.75332717  0.50678325  1
  O  O227  1  0.13862283  0.25471124  0.49294030  1
  O  O228  1  0.13793786  0.24319203  1.00068292  1
  O  O229  1  0.12572812  0.74189436  0.49990582  1
  O  O230  1  0.12774813  0.74413746  0.99422421  1
  O  O231  1  0.63868251  0.24620069  0.49267881  1
  O  O232  1  0.63757205  0.25302236  0.99109251  1
  O  O233  1  0.62947038  0.74452315  0.49916358  1
  O  O234  1  0.63338729  0.73834680  0.99477472  1
  O  O235  1  0.49422919  0.24494574  0.11761291  1
  O  O236  1  0.49363051  0.25057132  0.63072350  1
  O  O237  1  0.50114742  0.74470234  0.12439289  1
  O  O238  1  0.48311782  0.74868130  0.61819434  1
  O  O239  1  0.99676287  0.24641475  0.13199483  1
  O  O240  1  1.00591986  0.25946086  0.64279702  1
  O  O241  1  0.99715222  0.74084528  0.13377159  1
  O  O242  1  0.98875562  0.75773357  0.63535125  1
  O  O243  1  0.00693481  0.25586004  0.37042398  1
  O  O244  1  -0.00024293  0.26335254  0.86840017  1
  O  O245  1  0.00012632  0.75591272  0.36999160  1
  O  O246  1  0.00518515  0.75662472  0.87062142  1
  O  O247  1  0.51109198  0.24826843  0.37783547  1
  O  O248  1  0.50706912  0.25293976  0.87075667  1
  O  O249  1  0.50800333  0.74530856  0.38539374  1
  O  O250  1  0.51984680  0.74357122  0.87965248  1
  O  O251  1  0.25048674  0.13545908  0.49120670  1
  O  O252  1  0.23831524  0.13029031  1.00218749  1
  O  O253  1  0.24268192  0.62510740  0.48978594  1
  O  O254  1  0.24588864  0.63589637  0.99394849  1
  O  O255  1  0.74951254  0.12974062  0.50065906  1
  O  O256  1  0.75717391  0.13587932  0.99250911  1
  O  O257  1  0.74325147  0.63219509  0.49671845  1
  O  O258  1  0.74489844  0.62618759  0.99687758  1
  O  O259  1  0.25587760  0.36727352  0.00164313  1
  O  O260  1  0.25141952  0.37133156  0.50834005  1
  O  O261  1  0.24602304  0.85980975  0.00434879  1
  O  O262  1  0.24369413  0.87750165  0.51266238  1
  O  O263  1  0.75744644  0.36805410  0.00623287  1
  O  O264  1  0.75227802  0.37441065  0.51346496  1
  O  O265  1  0.75500628  0.87010960  0.00997782  1
  O  O266  1  0.75518834  0.86822053  0.50772202  1
  O  O267  1  0.12171358  0.50324367  0.23328094  1
  O  O268  1  0.12408303  0.49528113  0.75058429  1
  O  O269  1  0.13075173  0.99581624  0.24682635  1
  O  O270  1  0.12297909  0.99450674  0.73703374  1
  O  O271  1  0.62497427  0.50328907  0.24082337  1
  O  O272  1  0.63883722  0.50376621  0.73860179  1
  O  O273  1  0.62621525  0.99134266  0.24343718  1
  O  O274  1  0.63229266  0.99772204  0.74360023  1
  O  O275  1  0.36646557  0.00616958  0.26142373  1
  O  O276  1  0.36966982  0.00624503  0.75491620  1
  O  O277  1  0.37346696  0.50961876  0.25748479  1
  O  O278  1  0.37764231  0.49242801  0.76212960  1
  O  O279  1  0.87150002  0.00668319  0.25837152  1
  O  O280  1  0.86950678  -0.00216684  0.75848132  1
  O  O281  1  0.87865913  0.49615899  0.26778432  1
  O  O282  1  0.86186561  0.49730920  0.74776771  1
  O  O283  1  0.11616980  0.36326266  0.37608963  1
  O  O284  1  0.11906484  0.37973168  0.86832627  1
  O  O285  1  0.11945091  0.87608557  0.36372215  1
  O  O286  1  0.12103045  0.87307725  0.86681769  1
  O  O287  1  0.62620195  0.35601903  0.38202277  1
  O  O288  1  0.61656258  0.36563482  0.88189301  1
  O  O289  1  0.62548058  0.86955888  0.36629873  1
  O  O290  1  0.63504525  0.85548067  0.87729669  1
  O  O291  1  0.38355392  0.13411777  0.12270029  1
  O  O292  1  0.37040770  0.13879065  0.62499434  1
  O  O293  1  0.38055097  0.62012417  0.13681927  1
  O  O294  1  0.37339481  0.63456351  0.62600045  1
  O  O295  1  0.88301650  0.13115728  0.13041066  1
  O  O296  1  0.87736453  0.13248692  0.63165687  1
  O  O297  1  0.88862980  0.62261276  0.12083578  1
  O  O298  1  0.86678920  0.63680345  0.62669359  1
  O  O299  1  0.25708230  0.24930134  0.11474842  1
  O  O300  1  0.25465273  0.25814390  0.61591887  1
  O  O301  1  0.24623378  0.74965077  0.11135980  1
  O  O302  1  0.25902518  0.76742193  0.61976890  1
  O  O303  1  0.75224221  0.25490555  0.11789809  1
  O  O304  1  0.74535953  0.25783838  0.61314710  1
  O  O305  1  0.74902198  0.75777925  0.12061544  1
  O  O306  1  0.75265016  0.75460317  0.61713826  1
  O  O307  1  0.24614847  0.24725603  0.37784542  1
  O  O308  1  0.25486652  0.25271984  0.88022530  1
  O  O309  1  0.24479352  0.73989397  0.37679633  1
  O  O310  1  0.24787765  0.74281119  0.88088933  1
  O  O311  1  0.74302736  0.24750955  0.38668364  1
  O  O312  1  0.74544587  0.24518149  0.87987873  1
  O  O313  1  0.74400804  0.75296466  0.38972530  1
  O  O314  1  0.74636566  0.73977578  0.88354129  1
  O  O315  1  0.01065460  0.12310491  0.00407394  1
  O  O316  1  -0.00283416  0.11489029  0.49346521  1
  O  O317  1  0.00281482  0.61671752  0.00428662  1
  O  O318  1  0.00350302  0.60983557  0.50406778  1
  O  O319  1  0.50112116  0.11469192  0.01031587  1
  O  O320  1  0.49033291  0.10580304  0.50746337  1
  O  O321  1  0.50802784  0.62408088  0.01205800  1
  O  O322  1  0.50697615  0.61181667  0.50768105  1
  O  O323  1  0.49998826  0.38671133  0.49944417  1
  O  O324  1  0.49095697  0.37581123  0.98679036  1
  O  O325  1  0.49701478  0.89608598  0.50347679  1
  O  O326  1  0.50516431  0.88887910  1.00561746  1
  O  O327  1  1.00364799  0.38517453  0.49305966  1
  O  O328  1  0.99417754  0.37867836  0.99431858  1
  O  O329  1  0.99242670  0.88079607  0.49385038  1
  O  O330  1  0.99614940  0.87922207  0.99769303  1
  O  O331  1  0.49434049  0.50080702  0.38246724  1
  O  O332  1  0.49740145  0.49379795  0.87510583  1
  O  O333  1  0.48745859  1.00627073  0.38036544  1
  O  O334  1  0.50250929  1.00017361  0.88919408  1
  O  O335  1  0.99306246  0.49236111  0.37861455  1
  O  O336  1  0.99997786  0.48760119  0.88477791  1
  O  O337  1  0.99189469  0.99654858  0.38113425  1
  O  O338  1  0.99492411  0.99276654  0.88187329  1
  O  O339  1  0.00573727  0.00583043  0.11986640  1
  O  O340  1  0.00890820  -0.00810632  0.61623779  1
  O  O341  1  0.00665104  0.50418127  0.12030881  1
  O  O342  1  -0.00650527  0.49263552  0.61501730  1
  O  O343  1  0.50903737  0.00848511  0.11590201  1
  O  O344  1  0.50995288  0.00199348  0.61987013  1
  O  O345  1  0.50608907  0.50654215  0.12166206  1
  O  O346  1  0.51009664  0.49621046  0.62089453  1
  O  O347  1  0.25251332  0.38151526  0.24039502  1
  O  O348  1  0.23960778  0.37316328  0.74576581  1
  O  O349  1  0.24178783  0.88468578  0.24726193  1
  O  O350  1  0.23617581  0.87666192  0.73869713  1
  O  O351  1  0.75792047  0.37586186  0.23732783  1
  O  O352  1  0.75043759  0.37826145  0.73839255  1
  O  O353  1  0.74219024  0.88102165  0.24557857  1
  O  O354  1  0.74760424  0.88100048  0.74322350  1
  O  O355  1  0.24985225  0.11352367  0.25416176  1
  O  O356  1  0.23073304  0.13747768  0.75379194  1
  O  O357  1  0.25734133  0.62088717  0.25447826  1
  O  O358  1  0.24268268  0.61740353  0.75560614  1
  O  O359  1  0.76529236  0.11800877  0.24252897  1
  O  O360  1  0.75342658  0.11822714  0.76026073  1
  O  O361  1  0.74948130  0.62238613  0.25463925  1
  O  O362  1  0.75491971  0.61339661  0.75898760  1
  O  O363  1  0.36158975  0.12069276  0.37147914  1
  O  O364  1  0.37888660  0.10012837  0.88723050  1
  O  O365  1  0.36679801  0.61604831  0.36811940  1
  O  O366  1  0.36860593  0.61842646  0.87821614  1
  O  O367  1  0.87923905  0.11608132  0.36485049  1
  O  O368  1  0.86615887  0.11798949  0.87291251  1
  O  O369  1  0.87644687  0.61268379  0.37841531  1
  O  O370  1  0.86271188  0.62669365  0.87637025  1
  O  O371  1  0.12251948  0.39021927  0.11663999  1
  O  O372  1  0.14046399  0.37290850  0.63602556  1
  O  O373  1  0.12348442  0.88205410  0.13722087  1
  O  O374  1  0.13092685  0.88296395  0.63110032  1
  O  O375  1  0.63421128  0.38465250  0.11692632  1
  O  O376  1  0.63495506  0.38322336  0.62046508  1
  O  O377  1  0.63609033  0.88018272  0.13313208  1
  O  O378  1  0.63688513  0.88004402  0.62445404  1
  O  O379  1  0.11517665  0.24499367  0.25740779  1
  O  O380  1  0.12150519  0.25475518  0.75826634  1
  O  O381  1  0.11465922  0.75902575  0.25075828  1
  O  O382  1  0.11678576  0.75954411  0.75749007  1
  O  O383  1  0.62827657  0.24851676  0.26590442  1
  O  O384  1  0.62116746  0.24984515  0.76242597  1
  O  O385  1  0.62563629  0.76170919  0.26257377  1
  O  O386  1  0.63799852  0.74832566  0.76650098  1
  O  O387  1  0.37192741  0.24734990  0.23242601  1
  O  O388  1  0.38603384  0.25313394  0.74110808  1
  O  O389  1  0.37869953  0.74409326  0.25518224  1
  O  O390  1  0.36660496  0.75734112  0.72893764  1
  O  O391  1  0.88024702  0.24348783  0.24640496  1
  O  O392  1  0.89172705  0.25257729  0.75285243  1
  O  O393  1  0.88767737  0.75939015  0.25005182  1
  O  O394  1  0.88213639  0.75008132  0.74260186  1
  O  O395  1  0.38555926  0.49871714  0.49222872  1
  O  O396  1  0.37637149  0.49233220  0.99285229  1
  O  O397  1  0.37736029  1.00056833  0.48619389  1
  O  O398  1  0.38725682  0.99299997  1.00275559  1
  O  O399  1  0.88891667  0.50037849  0.48824699  1
  O  O400  1  0.88687023  0.48994541  1.00684203  1
  O  O401  1  0.87951333  0.99591048  0.49410740  1
  O  O402  1  0.88185132  0.99445676  0.99649325  1
  O  O403  1  0.12281518  0.00554899  0.00476665  1
  O  O404  1  0.11372798  -0.00435034  0.50977502  1
  O  O405  1  0.11281034  0.50637936  0.00624936  1
  O  O406  1  0.10821066  0.50309277  0.50023452  1
  O  O407  1  0.62134821  -0.00338837  0.01274728  1
  O  O408  1  0.61579251  -0.00069884  0.50662555  1
  O  O409  1  0.62465340  0.51131773  0.00786806  1
  O  O410  1  0.62172945  0.50547382  0.50403300  1
  O  O411  1  0.37527615  0.36871864  0.10903836  1
  O  O412  1  0.36366188  0.36535316  0.62497180  1
  O  O413  1  0.38297423  0.86378681  0.14257349  1
  O  O414  1  0.35894706  0.88497599  0.62542924  1
  O  O415  1  0.86920531  0.36878949  0.11560316  1
  O  O416  1  0.86350695  0.36273243  0.62660122  1
  O  O417  1  0.86259715  0.87724222  0.12398719  1
  O  O418  1  0.86276199  0.86716055  0.62112929  1
  O  O419  1  0.13813808  0.13676432  0.37058858  1
  O  O420  1  0.12193364  0.12349678  0.88314420  1
  O  O421  1  0.13655600  0.62272363  0.36843370  1
  O  O422  1  0.13339264  0.63068334  0.88215544  1
  O  O423  1  0.62557812  0.13761689  0.37420006  1
  O  O424  1  0.63871061  0.13302195  0.87509548  1
  O  O425  1  0.62584787  0.63333139  0.38781126  1
  O  O426  1  0.63673072  0.63024780  0.88492844  1
