# generated using pymatgen
data_V85Zn86O256
_symmetry_space_group_name_H-M   'P 1'
_cell_length_a   16.96388009
_cell_length_b   16.95783641
_cell_length_c   16.95163274
_cell_angle_alpha   89.95776531
_cell_angle_beta   89.98273752
_cell_angle_gamma   89.96998946
_symmetry_Int_Tables_number   1
_chemical_formula_structural   V85Zn86O256
_chemical_formula_sum   'V85 Zn86 O256'
_cell_volume   4876.48590151
_cell_formula_units_Z   1
loop_
 _symmetry_equiv_pos_site_id
 _symmetry_equiv_pos_as_xyz
  1  'x, y, z'
loop_
 _atom_site_type_symbol
 _atom_site_label
 _atom_site_symmetry_multiplicity
 _atom_site_fract_x
 _atom_site_fract_y
 _atom_site_fract_z
 _atom_site_occupancy
  V  V0  1  0.37434166  -0.00126272  0.37262319  1
  V  V1  1  0.13396578  0.87380117  0.24514627  1
  V  V2  1  0.62593370  0.86879969  0.24644343  1
  V  V3  1  0.74932260  0.12988326  0.89699298  1
  V  V4  1  0.74910289  0.74560506  -0.00011446  1
  V  V5  1  0.62919252  0.49585906  0.12008172  1
  V  V6  1  0.72618664  0.01822823  0.24213450  1
  V  V7  1  0.74899728  0.37357373  0.62956454  1
  V  V8  1  0.24959145  0.11944945  0.37312986  1
  V  V9  1  0.86778928  0.11735944  0.75382054  1
  V  V10  1  0.37620457  0.75013436  0.62658816  1
  V  V11  1  0.50153514  0.49792429  0.50038729  1
  V  V12  1  0.00046200  0.87668086  0.37415246  1
  V  V13  1  0.61065869  0.36435302  0.75682867  1
  V  V14  1  0.12560390  -0.00633644  0.11235013  1
  V  V15  1  -0.00415987  0.74315498  0.75416664  1
  V  V16  1  0.87220543  0.25042824  0.62426945  1
  V  V17  1  0.87368044  0.87725803  0.50209197  1
  V  V18  1  0.37526472  0.87417954  0.49934235  1
  V  V19  1  0.24709195  0.37438715  0.62544823  1
  V  V20  1  0.13164992  0.62918087  -0.00063427  1
  V  V21  1  0.00186528  0.49024593  -0.00363528  1
  V  V22  1  0.00052256  0.75071981  0.24774573  1
  V  V23  1  0.49374177  0.48649849  -0.00177172  1
  V  V24  1  0.25431992  0.62654670  0.87358254  1
  V  V25  1  0.61879151  0.24941608  0.89727596  1
  V  V26  1  0.37572654  0.49740405  0.37678775  1
  V  V27  1  0.62369421  0.74563262  0.37748815  1
  V  V28  1  0.25649412  0.12153531  0.85682162  1
  V  V29  1  0.74877563  0.88118547  0.12267166  1
  V  V30  1  0.87197905  0.74483305  0.63007011  1
  V  V31  1  -0.00513834  0.88819958  0.87908273  1
  V  V32  1  -0.00073822  0.62848551  0.11861464  1
  V  V33  1  0.50180412  0.62541590  0.62789182  1
  V  V34  1  0.50781908  0.00043980  0.49999447  1
  V  V35  1  0.24918386  0.88335101  0.62678073  1
  V  V36  1  0.50152291  0.75156708  0.75233873  1
  V  V37  1  0.51007236  0.00846968  0.01850286  1
  V  V38  1  0.13051184  0.75366302  0.87758124  1
  V  V39  1  0.50051060  0.88227709  0.88300771  1
  V  V40  1  0.62639649  0.49827325  0.62977434  1
  V  V41  1  0.24884024  0.24699649  0.50007008  1
  V  V42  1  0.12571547  0.50002279  0.12077691  1
  V  V43  1  0.49955442  0.74483608  0.24967863  1
  V  V44  1  0.74543402  0.88498617  0.62621872  1
  V  V45  1  0.75202803  0.62951335  0.37544785  1
  V  V46  1  0.50592264  0.12209483  0.63757694  1
  V  V47  1  0.24554546  0.74431719  0.50412766  1
  V  V48  1  0.12186656  0.24858759  0.87361952  1
  V  V49  1  0.62565940  0.74512732  0.88019891  1
  V  V50  1  0.88998805  0.12168020  0.25472172  1
  V  V51  1  -0.00047222  0.12578022  0.11122421  1
  V  V52  1  0.87696052  0.62953908  0.24706075  1
  V  V53  1  0.37222704  0.12132218  0.23358751  1
  V  V54  1  0.87759663  0.88802489  -0.00551823  1
  V  V55  1  -0.00228611  0.12286797  0.62314904  1
  V  V56  1  0.00467724  0.50836691  0.50006298  1
  V  V57  1  0.12214095  0.88171450  0.74717347  1
  V  V58  1  0.12459514  0.37434531  0.24792080  1
  V  V59  1  0.50488649  0.62923536  0.11158103  1
  V  V60  1  0.25050111  0.49823120  0.24876021  1
  V  V61  1  0.12300823  0.74395461  0.38006747  1
  V  V62  1  0.37736383  0.37053399  0.49792856  1
  V  V63  1  0.62216989  0.13427251  0.48901787  1
  V  V64  1  0.87648434  0.75248407  0.11898476  1
  V  V65  1  0.49130740  0.25370471  0.25992875  1
  V  V66  1  0.75785586  0.62584841  0.86784244  1
  V  V67  1  0.87717907  0.50315053  0.37532399  1
  V  V68  1  0.12645608  0.51183208  0.62348136  1
  V  V69  1  0.36393501  0.87321793  0.00832802  1
  V  V70  1  0.11994646  0.37695446  0.75265597  1
  V  V71  1  0.37904312  0.25736672  0.11686664  1
  V  V72  1  0.87555145  0.37645884  0.49685954  1
  V  V73  1  0.85775214  0.37094395  0.01243754  1
  V  V74  1  0.74982013  0.50171911  0.24566407  1
  V  V75  1  0.12332357  0.24881828  0.37312809  1
  V  V76  1  0.62574912  0.62303096  0.50195625  1
  V  V77  1  -0.00610015  0.25360383  0.75419882  1
  V  V78  1  0.37846749  0.62229612  0.24811264  1
  V  V79  1  0.88041008  0.49461399  0.86905468  1
  V  V80  1  0.24854953  0.62298176  0.37921873  1
  V  V81  1  0.62420144  0.88590818  0.75040174  1
  V  V82  1  0.37826262  0.24104655  0.63595841  1
  V  V83  1  0.50099383  0.87471439  0.37440737  1
  V  V84  1  0.25136175  0.24670042  -0.00132957  1
  Zn  Zn85  1  0.35814149  0.75099315  0.12547720  1
  Zn  Zn86  1  -0.00033017  0.00192624  0.49901110  1
  Zn  Zn87  1  0.74131665  0.26055335  0.48793121  1
  Zn  Zn88  1  0.51995582  0.36943735  0.37697477  1
  Zn  Zn89  1  0.12255834  0.12156340  0.49969716  1
  Zn  Zn90  1  -0.00174672  0.62713923  0.62633855  1
  Zn  Zn91  1  0.25127917  0.37546730  0.12045146  1
  Zn  Zn92  1  0.75201953  0.50227282  0.75102507  1
  Zn  Zn93  1  0.65271497  0.34786663  0.24692447  1
  Zn  Zn94  1  0.86803892  -0.00613522  0.36866717  1
  Zn  Zn95  1  -0.00046271  0.37456492  0.37419298  1
  Zn  Zn96  1  0.37798277  0.62230926  0.75599357  1
  Zn  Zn97  1  0.75400095  0.12831229  0.37612281  1
  Zn  Zn98  1  0.25580457  0.50254058  0.74995412  1
  Zn  Zn99  1  0.25163164  -0.00561408  0.23969585  1
  Zn  Zn100  1  0.12120078  0.11654408  -0.01069993  1
  Zn  Zn101  1  0.37732177  0.00816625  0.87028954  1
  Zn  Zn102  1  0.00268846  0.25332261  0.23887867  1
  Zn  Zn103  1  0.39924438  0.47115182  0.86400730  1
  Zn  Zn104  1  0.12776661  0.00385540  0.62333790  1
  Zn  Zn105  1  0.74678003  0.00561082  0.75763919  1
  Zn  Zn106  1  0.74782966  0.75354692  0.50406975  1
  Zn  Zn107  1  0.18676774  0.18208793  0.18235720  1
  Zn  Zn108  1  0.18353532  0.18926566  0.68607500  1
  Zn  Zn109  1  0.18524006  0.68217535  0.19345772  1
  Zn  Zn110  1  0.18805357  0.69447833  0.69451073  1
  Zn  Zn111  1  0.68742361  0.18398185  0.18879990  1
  Zn  Zn112  1  0.68533426  0.18819431  0.68309948  1
  Zn  Zn113  1  0.68644138  0.68514414  0.18293908  1
  Zn  Zn114  1  0.68768778  0.69261361  0.69038765  1
  Zn  Zn115  1  0.31082939  0.30954322  0.31025616  1
  Zn  Zn116  1  0.31074106  0.30834548  0.81123273  1
  Zn  Zn117  1  0.31245578  0.80747498  0.31310537  1
  Zn  Zn118  1  0.33019750  0.85038253  0.79634069  1
  Zn  Zn119  1  0.79865996  0.29030220  0.28475351  1
  Zn  Zn120  1  0.80742064  0.31057541  0.81911483  1
  Zn  Zn121  1  0.81156673  0.81524615  0.30941461  1
  Zn  Zn122  1  0.81251741  0.81613873  0.81183831  1
  Zn  Zn123  1  0.18646741  0.43589911  0.43887095  1
  Zn  Zn124  1  0.22721150  0.42139930  0.91905970  1
  Zn  Zn125  1  0.18416599  0.93593819  0.43986554  1
  Zn  Zn126  1  0.18681580  0.94079142  0.92873492  1
  Zn  Zn127  1  0.68934321  0.43593264  0.43138164  1
  Zn  Zn128  1  0.68536128  0.43814957  0.93735671  1
  Zn  Zn129  1  0.68750282  0.94117972  0.43167919  1
  Zn  Zn130  1  0.68710467  0.94215307  0.93875583  1
  Zn  Zn131  1  0.30929795  0.05927037  0.05190183  1
  Zn  Zn132  1  0.31637699  0.06286692  0.56023235  1
  Zn  Zn133  1  0.31434076  0.56445140  0.06053038  1
  Zn  Zn134  1  0.31482993  0.56260671  0.56632343  1
  Zn  Zn135  1  0.81673448  0.06370766  0.06794990  1
  Zn  Zn136  1  0.81021430  0.06253745  0.56216541  1
  Zn  Zn137  1  0.81286322  0.56028583  0.05449498  1
  Zn  Zn138  1  0.81120796  0.56200838  0.56270499  1
  Zn  Zn139  1  0.44008060  0.43660050  0.18258143  1
  Zn  Zn140  1  0.43575952  0.43630652  0.68482964  1
  Zn  Zn141  1  0.43821601  0.93555145  0.18587637  1
  Zn  Zn142  1  0.43902787  0.94541806  0.68904526  1
  Zn  Zn143  1  0.93818213  0.43953803  0.18731239  1
  Zn  Zn144  1  0.93828267  0.43927519  0.68616724  1
  Zn  Zn145  1  0.94124046  0.94082148  0.18289621  1
  Zn  Zn146  1  0.93615370  0.93683322  0.68991089  1
  Zn  Zn147  1  0.06660967  0.05739109  0.30888173  1
  Zn  Zn148  1  0.06135479  0.06566759  0.80630888  1
  Zn  Zn149  1  0.06181862  0.56211663  0.31131277  1
  Zn  Zn150  1  0.06432436  0.56270772  0.81362083  1
  Zn  Zn151  1  0.56328295  0.07001862  0.29541792  1
  Zn  Zn152  1  0.56716067  0.06815379  0.82482669  1
  Zn  Zn153  1  0.56362965  0.55424770  0.31201404  1
  Zn  Zn154  1  0.56868831  0.56262012  0.81509023  1
  Zn  Zn155  1  0.43381904  0.18287376  0.43882658  1
  Zn  Zn156  1  0.43916493  0.18623477  0.93584363  1
  Zn  Zn157  1  0.43627111  0.68542979  0.43919498  1
  Zn  Zn158  1  0.43269280  0.69640976  0.93870909  1
  Zn  Zn159  1  0.93485464  0.19017366  0.43564249  1
  Zn  Zn160  1  0.93141637  0.19167830  0.93720188  1
  Zn  Zn161  1  0.93620368  0.69114968  0.44244548  1
  Zn  Zn162  1  0.93885450  0.68927503  0.93562790  1
  Zn  Zn163  1  0.06543557  0.31012074  0.05867390  1
  Zn  Zn164  1  0.05991870  0.31315047  0.56281111  1
  Zn  Zn165  1  0.18561060  0.81175275  0.06097205  1
  Zn  Zn166  1  0.06010908  0.81178040  0.56331153  1
  Zn  Zn167  1  0.56040079  0.31444180  0.07145398  1
  Zn  Zn168  1  0.56013715  0.30892298  0.56799120  1
  Zn  Zn169  1  0.56166393  0.81545091  0.06195378  1
  Zn  Zn170  1  0.56504965  0.81431841  0.56410377  1
  O  O171  1  0.11575109  0.11265233  0.11987156  1
  O  O172  1  0.11327978  0.12478619  0.62389853  1
  O  O173  1  0.11690817  0.62096684  0.11837270  1
  O  O174  1  0.12758787  0.61407506  0.62988893  1
  O  O175  1  0.64578748  0.08376795  0.20442785  1
  O  O176  1  0.60915870  0.12928854  0.61407635  1
  O  O177  1  0.61062722  0.61780018  0.12636174  1
  O  O178  1  0.62152068  0.61992244  0.62319376  1
  O  O179  1  0.36485609  0.37948109  0.38974625  1
  O  O180  1  0.33343399  0.38560581  0.88567130  1
  O  O181  1  0.38145052  0.87630144  0.37920725  1
  O  O182  1  0.39023817  0.86431999  0.89374182  1
  O  O183  1  0.87839058  0.38421124  0.38954046  1
  O  O184  1  0.86702906  0.39155775  0.88248787  1
  O  O185  1  0.88215187  0.87299393  0.38163188  1
  O  O186  1  0.88549948  0.87480146  0.87879795  1
  O  O187  1  0.25456595  0.00517063  0.37396208  1
  O  O188  1  0.24813556  0.01898669  0.87538330  1
  O  O189  1  0.25485258  0.50529200  0.37226012  1
  O  O190  1  0.23246168  0.52227758  0.86660278  1
  O  O191  1  0.74774602  0.00769167  0.35748080  1
  O  O192  1  0.74122751  0.02324488  0.87610334  1
  O  O193  1  0.75735536  0.51746089  0.37090398  1
  O  O194  1  0.75843770  0.50990680  0.87578653  1
  O  O195  1  0.24403519  0.49971917  0.12961964  1
  O  O196  1  0.24347303  0.49188653  0.62531272  1
  O  O197  1  0.23158207  1.00627074  0.12347361  1
  O  O198  1  0.25136293  0.98643054  0.61809805  1
  O  O199  1  0.73682526  0.51248198  0.12877040  1
  O  O200  1  0.74312843  0.49433618  0.62816020  1
  O  O201  1  0.75354655  0.98801860  0.13208877  1
  O  O202  1  0.75390709  0.98759754  0.63059639  1
  O  O203  1  0.00951059  0.37437001  0.25317450  1
  O  O204  1  0.00788298  0.36536524  0.74216518  1
  O  O205  1  0.00799613  0.86819075  0.25549858  1
  O  O206  1  0.00371940  0.86733852  0.75683117  1
  O  O207  1  0.48281516  0.36032810  0.25637139  1
  O  O208  1  0.51223870  0.37760192  0.74925089  1
  O  O209  1  0.50423312  0.86262659  0.25358026  1
  O  O210  1  0.50883580  0.86881615  0.75859568  1
  O  O211  1  0.47664753  0.13572791  0.25963333  1
  O  O212  1  0.50547410  0.11537999  0.73635788  1
  O  O213  1  0.49342194  0.62576534  0.24514803  1
  O  O214  1  0.50192034  0.63449996  0.74725177  1
  O  O215  1  1.00021422  0.12175738  0.24047960  1
  O  O216  1  0.98943279  0.13387820  0.74326756  1
  O  O217  1  0.99665521  0.63098864  0.24098699  1
  O  O218  1  1.00313790  0.63929193  0.74919882  1
  O  O219  1  0.36841002  0.24291373  0.01099924  1
  O  O220  1  0.36823510  0.25532670  0.50685323  1
  O  O221  1  0.37984701  0.76732114  0.01006109  1
  O  O222  1  0.36881301  0.75535531  0.50508817  1
  O  O223  1  0.87854788  0.27358148  -0.00604435  1
  O  O224  1  0.87884808  0.26222762  0.50795236  1
  O  O225  1  0.86820979  0.75896970  0.00245397  1
  O  O226  1  0.87144229  0.76239516  0.50810098  1
  O  O227  1  0.13194711  0.25027605  0.49207561  1
  O  O228  1  0.12436152  0.24403442  0.98291086  1
  O  O229  1  0.13315401  0.75306703  0.49238388  1
  O  O230  1  0.12215800  0.74272760  0.99004076  1
  O  O231  1  0.62135630  0.23849206  0.49825985  1
  O  O232  1  0.62478514  0.25892862  0.99660066  1
  O  O233  1  0.62560858  0.74088102  0.49523654  1
  O  O234  1  0.63575799  0.75824647  0.99122706  1
  O  O235  1  0.48251844  0.25096436  0.13291843  1
  O  O236  1  0.48700322  0.23630730  0.62156270  1
  O  O237  1  0.50205830  0.73948862  0.13212914  1
  O  O238  1  0.49786671  0.74625719  0.63344116  1
  O  O239  1  1.01234545  0.23036375  0.12341139  1
  O  O240  1  0.99374987  0.24184526  0.63304854  1
  O  O241  1  0.99411764  0.73683811  0.12826892  1
  O  O242  1  0.99099688  0.74910841  0.63295483  1
  O  O243  1  0.01598893  0.25160952  0.37570830  1
  O  O244  1  0.00571212  0.24511340  0.86167887  1
  O  O245  1  0.00601865  0.75696268  0.37271921  1
  O  O246  1  0.00603935  0.75774893  0.86800137  1
  O  O247  1  0.48078358  0.25609443  0.36491056  1
  O  O248  1  0.51911927  0.24529217  0.87868077  1
  O  O249  1  0.50450985  0.75191871  0.36983833  1
  O  O250  1  0.50871684  0.75653503  0.87087333  1
  O  O251  1  0.24826054  0.12988383  0.49158209  1
  O  O252  1  0.24251624  0.13480484  0.99115028  1
  O  O253  1  0.25688833  0.63674379  0.49629948  1
  O  O254  1  0.23775743  0.62210675  0.99344046  1
  O  O255  1  0.72985471  0.12028247  0.50152885  1
  O  O256  1  0.75770644  0.12990563  0.99609716  1
  O  O257  1  0.74417255  0.62849894  0.49178486  1
  O  O258  1  0.75435299  0.64004902  0.99117275  1
  O  O259  1  0.23083406  0.35115473  0.00778493  1
  O  O260  1  0.25460848  0.36935296  0.51020584  1
  O  O261  1  0.25957025  0.87666354  -0.00623514  1
  O  O262  1  0.25387116  0.86291161  0.50543092  1
  O  O263  1  0.75802771  0.38259490  0.00567933  1
  O  O264  1  0.75743760  0.38019868  0.50979983  1
  O  O265  1  0.75579873  0.86904797  0.00514115  1
  O  O266  1  0.75424702  0.87620466  0.50625996  1
  O  O267  1  0.12983003  0.49403626  0.24366555  1
  O  O268  1  0.12232747  0.49179077  0.74032004  1
  O  O269  1  0.12854567  0.98732654  0.24117396  1
  O  O270  1  0.11999107  0.98577850  0.74398106  1
  O  O271  1  0.63749056  0.51125728  0.23706215  1
  O  O272  1  0.62901241  0.48844013  0.74648090  1
  O  O273  1  0.62072892  0.96872625  0.27495211  1
  O  O274  1  0.62298827  0.98843048  0.75611757  1
  O  O275  1  0.37129715  0.00480524  0.25351492  1
  O  O276  1  0.36517564  -0.04118859  0.76807345  1
  O  O277  1  0.37243875  0.50759236  0.25267318  1
  O  O278  1  0.37520181  0.50279855  0.75398377  1
  O  O279  1  0.87427569  0.00715625  0.24919511  1
  O  O280  1  0.87334652  0.01475379  0.75002074  1
  O  O281  1  0.87648755  0.51432261  0.25619656  1
  O  O282  1  0.87466315  0.49685062  0.76433043  1
  O  O283  1  0.12681284  0.36767543  0.36433238  1
  O  O284  1  0.13486857  0.36647495  0.85797496  1
  O  O285  1  0.11908602  0.86354060  0.36880138  1
  O  O286  1  0.11583372  0.87073899  0.86784823  1
  O  O287  1  0.62943681  0.38358706  0.35453245  1
  O  O288  1  0.63288129  0.36266812  0.86400183  1
  O  O289  1  0.62010974  0.85881253  0.37587387  1
  O  O290  1  0.62025487  0.86651111  0.86995803  1
  O  O291  1  0.36587537  0.12936673  0.13097989  1
  O  O292  1  0.38353079  0.13478219  0.62137509  1
  O  O293  1  0.38661946  0.62605240  0.13247770  1
  O  O294  1  0.38447825  0.63290277  0.62851098  1
  O  O295  1  0.89471381  0.11696457  0.13387930  1
  O  O296  1  0.87805294  0.13196677  0.63020211  1
  O  O297  1  0.88136384  0.62971223  0.12512343  1
  O  O298  1  0.87217581  0.64119902  0.62048412  1
  O  O299  1  0.25852742  0.24706095  0.11686126  1
  O  O300  1  0.25836741  0.25433516  0.62024909  1
  O  O301  1  0.24554285  0.74669878  0.12820901  1
  O  O302  1  0.25509757  0.75428375  0.61796680  1
  O  O303  1  0.73119681  0.28117648  0.19099848  1
  O  O304  1  0.75410983  0.25934060  0.61530645  1
  O  O305  1  0.75516244  0.75694691  0.11756173  1
  O  O306  1  0.75640903  0.76194707  0.62670827  1
  O  O307  1  0.24102806  0.24179521  0.37827008  1
  O  O308  1  0.24089175  0.23798543  0.87715165  1
  O  O309  1  0.24248963  0.74345107  0.38342979  1
  O  O310  1  0.23244762  0.74329185  0.86791827  1
  O  O311  1  0.76373549  0.24117162  0.37996430  1
  O  O312  1  0.73655189  0.23830503  0.87275007  1
  O  O313  1  0.74480102  0.74193328  0.37533595  1
  O  O314  1  0.74636932  0.74667171  0.88054841  1
  O  O315  1  -0.00165507  0.12423394  0.00757219  1
  O  O316  1  -0.00097914  0.12513370  0.50941506  1
  O  O317  1  0.00789008  0.62031533  0.00460027  1
  O  O318  1  -0.00368583  0.61309172  0.50263928  1
  O  O319  1  0.49403697  0.10595178  -0.00362428  1
  O  O320  1  0.50691052  0.11865127  0.50327800  1
  O  O321  1  0.49804547  0.62820939  0.01099117  1
  O  O322  1  0.50600660  0.61918488  0.50689678  1
  O  O323  1  0.49259616  0.37707469  0.49795577  1
  O  O324  1  0.49754990  0.38799017  1.00569876  1
  O  O325  1  0.49633763  0.88120107  0.49627718  1
  O  O326  1  0.49440150  0.88359808  0.99776070  1
  O  O327  1  0.99221528  0.38745515  0.50140448  1
  O  O328  1  1.00392258  0.38911337  1.00208051  1
  O  O329  1  0.99070304  0.87373819  0.49195967  1
  O  O330  1  0.99092795  0.87319685  0.98117795  1
  O  O331  1  0.49229453  0.49587860  0.38253326  1
  O  O332  1  0.50619212  0.50469718  0.89280064  1
  O  O333  1  0.49287616  0.99312901  0.37998050  1
  O  O334  1  0.50016124  0.98930763  0.87851225  1
  O  O335  1  0.99538071  0.49994750  0.38224616  1
  O  O336  1  0.98832409  0.50520539  0.88139260  1
  O  O337  1  1.00307967  0.98345381  0.37448234  1
  O  O338  1  1.00344367  0.98683883  0.86855500  1
  O  O339  1  0.01578258  0.00949253  0.12647024  1
  O  O340  1  -0.00406298  0.01386536  0.62569015  1
  O  O341  1  0.00449650  0.51210455  0.11811798  1
  O  O342  1  0.00758137  0.50536675  0.61892769  1
  O  O343  1  0.50008186  0.00191614  0.11903552  1
  O  O344  1  0.49156570  0.01357060  0.61448729  1
  O  O345  1  0.50554920  0.51041163  0.11703057  1
  O  O346  1  0.50709082  0.50479476  0.61947243  1
  O  O347  1  0.24236240  0.38196628  0.24786862  1
  O  O348  1  0.24166066  0.37439738  0.73485888  1
  O  O349  1  0.23722045  0.87241875  0.25624383  1
  O  O350  1  0.23387329  0.85984807  0.73507634  1
  O  O351  1  0.77044236  0.40486405  0.26217929  1
  O  O352  1  0.74701357  0.37547036  0.73744739  1
  O  O353  1  0.74257965  0.87964755  0.24096949  1
  O  O354  1  0.74141043  0.87950389  0.74580575  1
  O  O355  1  0.25619634  0.12090353  0.25695859  1
  O  O356  1  0.24949138  0.12891094  0.75768602  1
  O  O357  1  0.25822658  0.61683250  0.25886257  1
  O  O358  1  0.25517418  0.62734107  0.75797482  1
  O  O359  1  0.77725456  0.11953307  0.24922034  1
  O  O360  1  0.75667670  0.12517102  0.74550035  1
  O  O361  1  0.75778119  0.62420007  0.25567427  1
  O  O362  1  0.74822738  0.62632779  0.76357668  1
  O  O363  1  0.36102822  0.11928623  0.37092860  1
  O  O364  1  0.36118327  0.12705622  0.87231936  1
  O  O365  1  0.37110531  0.61705954  0.36850463  1
  O  O366  1  0.36157184  0.63268245  0.87676007  1
  O  O367  1  0.88591320  0.11326843  0.36515389  1
  O  O368  1  0.85796563  0.13530058  0.86682679  1
  O  O369  1  0.86849150  0.62677328  0.37051664  1
  O  O370  1  0.86819163  0.61211383  0.88205762  1
  O  O371  1  0.12438588  0.37956982  0.13567760  1
  O  O372  1  0.13179800  0.37957037  0.63084039  1
  O  O373  1  0.12299005  0.88451719  0.13061125  1
  O  O374  1  0.13087286  0.87461106  0.63037264  1
  O  O375  1  0.61256729  0.39530627  0.13881433  1
  O  O376  1  0.63014163  0.37851977  0.63176911  1
  O  O377  1  0.63620879  0.86617534  0.13532897  1
  O  O378  1  0.63338485  0.87011345  0.63692680  1
  O  O379  1  0.12680568  0.25735202  0.25520334  1
  O  O380  1  0.11531277  0.25625291  0.75451191  1
  O  O381  1  0.11748904  0.75475269  0.25836852  1
  O  O382  1  0.11292818  0.75988249  0.75610100  1
  O  O383  1  0.59054903  0.24076941  0.24893825  1
  O  O384  1  0.62405587  0.26416818  0.74541012  1
  O  O385  1  0.62182241  0.75224448  0.25754119  1
  O  O386  1  0.61600331  0.75839289  0.75752021  1
  O  O387  1  0.37187168  0.24163487  0.23670552  1
  O  O388  1  0.37410939  0.25443587  0.73387241  1
  O  O389  1  0.37860711  0.73556173  0.24963599  1
  O  O390  1  0.39033462  0.75584546  0.74591090  1
  O  O391  1  0.89130337  0.22787978  0.25383506  1
  O  O392  1  0.87937283  0.24841288  0.74443784  1
  O  O393  1  0.88108264  0.74838326  0.24130649  1
  O  O394  1  0.88299756  0.75722339  0.74173223  1
  O  O395  1  0.38145738  0.49094847  0.49914295  1
  O  O396  1  0.39213668  0.50516241  0.99969460  1
  O  O397  1  0.38329416  0.99298626  0.49219486  1
  O  O398  1  0.38117183  0.98690092  0.99520477  1
  O  O399  1  0.88145079  0.49667365  0.49560326  1
  O  O400  1  0.88354846  0.49291872  0.99139166  1
  O  O401  1  0.87555018  0.98806191  0.49617848  1
  O  O402  1  0.87135335  0.98679955  1.00263670  1
  O  O403  1  0.12375709  -0.00369066  0.00854249  1
  O  O404  1  0.11879425  0.00190308  0.50457023  1
  O  O405  1  0.11676619  0.51030388  0.00653867  1
  O  O406  1  0.11677988  0.49431764  0.51002071  1
  O  O407  1  0.60954428  -0.00603681  0.00329812  1
  O  O408  1  0.61150057  0.00449261  0.49563384  1
  O  O409  1  0.61623169  0.49821227  0.01315297  1
  O  O410  1  0.62084656  0.50457742  0.50689805  1
  O  O411  1  0.36976523  0.36077480  0.12553127  1
  O  O412  1  0.36961942  0.36592946  0.61516901  1
  O  O413  1  0.37297478  0.87464073  0.11353447  1
  O  O414  1  0.36799697  0.86797916  0.61773703  1
  O  O415  1  0.87876363  0.38298761  0.11104604  1
  O  O416  1  0.86720243  0.37395373  0.61740909  1
  O  O417  1  0.87014715  0.86967304  0.11733094  1
  O  O418  1  0.86893652  0.86920906  0.61867148  1
  O  O419  1  0.13461454  0.13006238  0.37316957  1
  O  O420  1  0.13088769  0.13260024  0.86901093  1
  O  O421  1  0.12930769  0.63717204  0.37004623  1
  O  O422  1  0.12506014  0.63551923  0.88292674  1
  O  O423  1  0.61980594  0.12261869  0.38792392  1
  O  O424  1  0.63596291  0.13997517  0.87919278  1
  O  O425  1  0.63162621  0.62852779  0.37918698  1
  O  O426  1  0.63423304  0.63971786  0.87326549  1
