# generated using pymatgen
data_V85Zn86O256
_symmetry_space_group_name_H-M   'P 1'
_cell_length_a   16.92126656
_cell_length_b   16.91694081
_cell_length_c   16.92639409
_cell_angle_alpha   89.98211541
_cell_angle_beta   89.98303927
_cell_angle_gamma   90.01084119
_symmetry_Int_Tables_number   1
_chemical_formula_structural   V85Zn86O256
_chemical_formula_sum   'V85 Zn86 O256'
_cell_volume   4845.28243024
_cell_formula_units_Z   1
loop_
 _symmetry_equiv_pos_site_id
 _symmetry_equiv_pos_as_xyz
  1  'x, y, z'
loop_
 _atom_site_type_symbol
 _atom_site_label
 _atom_site_symmetry_multiplicity
 _atom_site_fract_x
 _atom_site_fract_y
 _atom_site_fract_z
 _atom_site_occupancy
  V  V0  1  -0.00519511  0.24562132  0.75483811  1
  V  V1  1  0.38241731  0.36473851  0.50079156  1
  V  V2  1  0.12408325  0.87364116  0.75919208  1
  V  V3  1  0.62394745  0.75215919  0.37044405  1
  V  V4  1  0.51438156  0.38374666  0.87609099  1
  V  V5  1  0.25233931  0.62496747  0.37455502  1
  V  V6  1  0.12488962  0.00148098  0.63009025  1
  V  V7  1  0.24602297  0.49625027  0.25192559  1
  V  V8  1  0.61335920  0.62291693  0.00487158  1
  V  V9  1  -0.00937014  0.12201124  0.62932134  1
  V  V10  1  0.00506207  0.35889063  0.36775961  1
  V  V11  1  0.74562168  0.37620591  0.12178212  1
  V  V12  1  0.62260040  0.37504356  0.26236742  1
  V  V13  1  0.87155656  0.74668643  0.62861094  1
  V  V14  1  0.37476458  0.87553454  0.50097953  1
  V  V15  1  -0.01093370  -0.00540387  0.00086861  1
  V  V16  1  0.62335301  0.62516123  0.49658623  1
  V  V17  1  0.25250956  0.86611982  0.12302303  1
  V  V18  1  0.38723730  0.87547070  -0.00143050  1
  V  V19  1  0.75953404  0.87727070  0.12035796  1
  V  V20  1  -0.00063207  0.62289921  0.62608449  1
  V  V21  1  0.74941921  0.61926704  0.87320296  1
  V  V22  1  0.00291210  0.13051623  0.12733040  1
  V  V23  1  0.87846173  0.87264180  0.49501635  1
  V  V24  1  0.49501134  0.74639420  0.23662038  1
  V  V25  1  0.49674803  0.76035793  0.75633000  1
  V  V26  1  0.73931950  0.12961813  0.86816171  1
  V  V27  1  0.24211836  0.24987091  0.50503484  1
  V  V28  1  -0.00021001  0.49185108  -0.00288739  1
  V  V29  1  0.49892473  0.87330065  0.37322949  1
  V  V30  1  0.61888069  0.00060226  0.11230410  1
  V  V31  1  0.24614131  0.75258323  -0.01010148  1
  V  V32  1  0.00005244  0.75383560  0.25639526  1
  V  V33  1  0.25029425  0.11063490  0.86938814  1
  V  V34  1  0.87639608  0.62482794  0.24751032  1
  V  V35  1  0.37071781  0.62529957  0.75155208  1
  V  V36  1  0.74899603  0.87415281  0.62828369  1
  V  V37  1  0.24974188  0.88076290  0.63095571  1
  V  V38  1  0.24121428  0.13092084  0.37365619  1
  V  V39  1  0.00101491  -0.00388204  0.49094469  1
  V  V40  1  0.13192884  0.12201814  -0.00068867  1
  V  V41  1  0.73990955  0.25320653  0.49914406  1
  V  V42  1  0.87744886  0.49669363  0.37137410  1
  V  V43  1  0.62938785  0.00244049  0.62484000  1
  V  V44  1  0.49661548  0.13042316  0.62698069  1
  V  V45  1  0.25038428  0.75041332  0.50071349  1
  V  V46  1  0.74464305  0.12895076  0.37637287  1
  V  V47  1  0.74701369  0.37847665  0.64132552  1
  V  V48  1  0.38119333  0.12596221  0.24647336  1
  V  V49  1  0.00259977  0.74787489  0.75764841  1
  V  V50  1  0.37460379  0.62716037  0.23565953  1
  V  V51  1  0.50129635  0.00069886  0.49975295  1
  V  V52  1  0.74790333  -0.00138629  0.25126055  1
  V  V53  1  0.00145193  0.49569516  0.49907318  1
  V  V54  1  0.62229532  0.75545942  0.87879582  1
  V  V55  1  0.13043699  -0.00242037  0.12650144  1
  V  V56  1  0.12903526  0.49608873  0.62624980  1
  V  V57  1  0.37706994  0.74949101  0.62645924  1
  V  V58  1  0.86815728  0.00316179  0.85168464  1
  V  V59  1  0.24922376  0.37344281  0.12223551  1
  V  V60  1  0.37486776  0.00105225  0.37390572  1
  V  V61  1  0.39381455  -0.00494761  0.86958895  1
  V  V62  1  0.75914341  0.75261485  -0.00169549  1
  V  V63  1  0.38310596  0.25338129  0.12325419  1
  V  V64  1  0.49845239  0.49827483  0.49532443  1
  V  V65  1  0.51293379  0.62115239  0.63627356  1
  V  V66  1  0.37351931  0.49955155  0.88185071  1
  V  V67  1  0.12218480  0.62871117  -0.00826400  1
  V  V68  1  0.75222757  0.62475510  0.37287420  1
  V  V69  1  0.00055421  0.62377489  0.12491189  1
  V  V70  1  0.12362159  0.25039229  0.87619649  1
  V  V71  1  0.37227781  0.13361399  0.75126799  1
  V  V72  1  0.50496188  0.25244427  0.26641215  1
  V  V73  1  0.51265117  0.26144171  0.74811170  1
  V  V74  1  0.87484793  0.36769850  -0.00395004  1
  V  V75  1  0.87914288  0.12740937  0.25268494  1
  V  V76  1  0.25052329  -0.00023288  0.24839569  1
  V  V77  1  0.12210307  0.87775223  0.25844089  1
  V  V78  1  0.12682468  0.62398787  0.50044361  1
  V  V79  1  0.60891802  0.50277467  0.12513878  1
  V  V80  1  0.87362615  0.36989483  0.50225439  1
  V  V81  1  0.62656409  0.87958065  0.75431725  1
  V  V82  1  0.12274793  0.37304977  0.75504661  1
  V  V83  1  0.86988284  0.24680285  0.12370372  1
  V  V84  1  0.87286703  0.49366320  0.86994671  1
  Zn  Zn85  1  0.86973546  0.24504615  0.63368549  1
  Zn  Zn86  1  0.70802433  0.23052709  -0.00089029  1
  Zn  Zn87  1  0.12508890  0.35736464  0.25000601  1
  Zn  Zn88  1  0.24415749  0.62682478  0.87233723  1
  Zn  Zn89  1  0.25453689  0.36572023  0.62942760  1
  Zn  Zn90  1  0.87760664  -0.00464985  0.37341542  1
  Zn  Zn91  1  0.25962829  0.24977845  -0.00618010  1
  Zn  Zn92  1  0.87166720  0.61536035  0.74796043  1
  Zn  Zn93  1  0.11997957  0.12669767  0.49908717  1
  Zn  Zn94  1  0.37913304  0.37992552  -0.00022501  1
  Zn  Zn95  1  0.54357285  0.15280035  0.07664519  1
  Zn  Zn96  1  0.62360519  0.87508942  0.24686046  1
  Zn  Zn97  1  0.25040489  0.49614489  0.75137506  1
  Zn  Zn98  1  0.74969413  0.74893046  0.50002670  1
  Zn  Zn99  1  0.37792585  0.49568336  0.37432801  1
  Zn  Zn100  1  0.74813662  0.50015201  0.24547944  1
  Zn  Zn101  1  -0.00806304  0.86997921  0.88268730  1
  Zn  Zn102  1  0.87950017  0.75525188  0.12091696  1
  Zn  Zn103  1  0.12274367  0.49489785  0.12497955  1
  Zn  Zn104  1  0.12176045  0.75439078  0.37914112  1
  Zn  Zn105  1  0.62552530  0.49029991  0.63459339  1
  Zn  Zn106  1  0.62069310  0.12951815  0.49520809  1
  Zn  Zn107  1  0.19603103  0.18703558  0.18316432  1
  Zn  Zn108  1  0.18482901  0.18401411  0.68786922  1
  Zn  Zn109  1  0.18437768  0.68757564  0.18526715  1
  Zn  Zn110  1  0.18618370  0.69020457  0.68670927  1
  Zn  Zn111  1  0.68872468  0.18836082  0.19135294  1
  Zn  Zn112  1  0.69005798  0.18645986  0.68955466  1
  Zn  Zn113  1  0.68859217  0.68847475  0.18472740  1
  Zn  Zn114  1  0.68067276  0.67635356  0.69506936  1
  Zn  Zn115  1  0.31395261  0.31219112  0.31702420  1
  Zn  Zn116  1  0.31090225  0.31030360  0.81401893  1
  Zn  Zn117  1  0.31268886  0.80981837  0.31123648  1
  Zn  Zn118  1  0.31013255  0.81745874  0.81479334  1
  Zn  Zn119  1  0.81064246  0.31104605  0.31040332  1
  Zn  Zn120  1  0.80729255  0.30296016  0.81912803  1
  Zn  Zn121  1  0.81248588  0.81159900  0.30996040  1
  Zn  Zn122  1  0.81319670  0.81617625  0.81404933  1
  Zn  Zn123  1  0.18899453  0.43300383  0.43743333  1
  Zn  Zn124  1  0.18860269  0.43789099  0.93756673  1
  Zn  Zn125  1  0.18816926  0.94192755  0.43998217  1
  Zn  Zn126  1  0.18700271  0.93781627  0.93889479  1
  Zn  Zn127  1  0.68995457  0.44214565  0.44215897  1
  Zn  Zn128  1  0.68895649  0.43977430  0.94314436  1
  Zn  Zn129  1  0.68967952  0.93715411  0.43806011  1
  Zn  Zn130  1  0.69493484  0.94250091  0.93599010  1
  Zn  Zn131  1  0.35699768  0.08434218  0.03704310  1
  Zn  Zn132  1  0.31279839  0.06482377  0.56440535  1
  Zn  Zn133  1  0.30734116  0.56222856  0.06125528  1
  Zn  Zn134  1  0.31712478  0.55983812  0.56439616  1
  Zn  Zn135  1  0.80599885  0.06593530  0.06097369  1
  Zn  Zn136  1  0.81176973  0.06066093  0.56235776  1
  Zn  Zn137  1  0.81030520  0.56116755  0.05894683  1
  Zn  Zn138  1  0.80965650  0.55789753  0.56139355  1
  Zn  Zn139  1  0.43480207  0.43544126  0.19493411  1
  Zn  Zn140  1  0.43457293  0.43850054  0.68351383  1
  Zn  Zn141  1  0.43719110  0.93372571  0.18400430  1
  Zn  Zn142  1  0.43860501  0.94210439  0.68835240  1
  Zn  Zn143  1  0.93671957  0.43410985  0.18556960  1
  Zn  Zn144  1  0.94040749  0.42994320  0.68781030  1
  Zn  Zn145  1  0.93962948  0.94127605  0.18841783  1
  Zn  Zn146  1  0.94099504  0.93278016  0.68353254  1
  Zn  Zn147  1  0.06210838  0.18102485  0.31268408  1
  Zn  Zn148  1  0.05861971  0.05949838  0.81405482  1
  Zn  Zn149  1  0.06490181  0.56079721  0.31297060  1
  Zn  Zn150  1  0.05744262  0.55803259  0.81353982  1
  Zn  Zn151  1  0.56372796  0.06341577  0.30831629  1
  Zn  Zn152  1  0.56322160  0.06485251  0.80782346  1
  Zn  Zn153  1  0.55977369  0.56265263  0.30929366  1
  Zn  Zn154  1  0.55896121  0.56768690  0.81425528  1
  Zn  Zn155  1  0.43260432  0.18663159  0.43828178  1
  Zn  Zn156  1  0.47376226  0.20267265  0.94286630  1
  Zn  Zn157  1  0.43780986  0.68474524  0.43513169  1
  Zn  Zn158  1  0.43401127  0.69221041  0.93819946  1
  Zn  Zn159  1  0.92936518  0.18234479  0.44515696  1
  Zn  Zn160  1  0.93555928  0.17959918  0.93751081  1
  Zn  Zn161  1  0.93818615  0.68638368  0.43888216  1
  Zn  Zn162  1  0.93607766  0.68166976  0.93637933  1
  Zn  Zn163  1  0.06377760  0.30908757  0.06319852  1
  Zn  Zn164  1  0.06186342  0.30986261  0.56568255  1
  Zn  Zn165  1  0.06409848  0.81134913  0.06606691  1
  Zn  Zn166  1  0.06174002  0.81172957  0.56715944  1
  Zn  Zn167  1  0.55728335  0.32625229  0.06422579  1
  Zn  Zn168  1  0.56283235  0.31346946  0.56636175  1
  Zn  Zn169  1  0.57067603  0.81685549  0.06250628  1
  Zn  Zn170  1  0.56287768  0.80922191  0.56264051  1
  O  O171  1  0.12211411  0.11740580  0.11895424  1
  O  O172  1  0.11648465  0.11568014  0.62238520  1
  O  O173  1  0.11324926  0.62112362  0.11773516  1
  O  O174  1  0.11968312  0.61710500  0.62014727  1
  O  O175  1  0.63156651  0.10731626  0.13167130  1
  O  O176  1  0.61620243  0.11757441  0.62510493  1
  O  O177  1  0.62955612  0.61876968  0.11327283  1
  O  O178  1  0.62232845  0.65777821  0.59671568  1
  O  O179  1  0.36954361  0.37865336  0.39456329  1
  O  O180  1  0.37651073  0.38898218  0.87240293  1
  O  O181  1  0.37804447  0.88078399  0.38032953  1
  O  O182  1  0.37459444  0.88633451  0.87976256  1
  O  O183  1  0.88324197  0.37820165  0.37946100  1
  O  O184  1  0.86702304  0.37676789  0.88984950  1
  O  O185  1  0.86946785  0.87186342  0.39108790  1
  O  O186  1  0.87571951  0.89387974  0.87095850  1
  O  O187  1  0.25753511  0.00734277  0.37094469  1
  O  O188  1  0.24871997  0.00851153  0.87195483  1
  O  O189  1  0.24909354  0.50647823  0.36870929  1
  O  O190  1  0.25937784  0.50457334  0.87117203  1
  O  O191  1  0.75519809  0.00513176  0.36843552  1
  O  O192  1  0.76265683  0.00701565  0.87001504  1
  O  O193  1  0.76385166  0.50412254  0.37298775  1
  O  O194  1  0.75893244  0.50726600  0.88173130  1
  O  O195  1  0.24927053  0.48841868  0.13205391  1
  O  O196  1  0.23708825  0.50165037  0.62741126  1
  O  O197  1  0.23824620  0.99025586  0.12651094  1
  O  O198  1  0.24089479  0.99088838  0.61951617  1
  O  O199  1  0.74369618  0.49049694  0.12471629  1
  O  O200  1  0.74927602  0.48432941  0.62591513  1
  O  O201  1  0.74586799  0.99428069  0.13183194  1
  O  O202  1  0.73701384  0.99261327  0.62050186  1
  O  O203  1  -0.00110244  0.37467767  0.26490024  1
  O  O204  1  0.01506347  0.36353656  0.74617246  1
  O  O205  1  0.00956497  0.86711101  0.24469879  1
  O  O206  1  0.00749300  0.86443260  0.74930453  1
  O  O207  1  0.50666957  0.36317298  0.25304996  1
  O  O208  1  0.49701416  0.36755056  0.75118628  1
  O  O209  1  0.49827272  0.86556070  0.25744345  1
  O  O210  1  0.50740255  0.86591288  0.74506821  1
  O  O211  1  0.49366015  0.13709270  0.25283500  1
  O  O212  1  0.49515161  0.13679476  0.74541483  1
  O  O213  1  0.48677260  0.63348214  0.25504550  1
  O  O214  1  0.48275456  0.64316597  0.75505169  1
  O  O215  1  0.98748421  0.12135670  0.24397464  1
  O  O216  1  1.00706452  0.13290376  0.74147591  1
  O  O217  1  0.99762210  0.62895756  0.24292929  1
  O  O218  1  0.99679725  0.62978649  0.74371140  1
  O  O219  1  0.37885186  0.25733042  0.01015707  1
  O  O220  1  0.36795473  0.25955921  0.50107243  1
  O  O221  1  0.36450342  0.76641487  -0.00712533  1
  O  O222  1  0.37202730  0.75552646  0.50598482  1
  O  O223  1  0.88333514  0.25445618  0.01167024  1
  O  O224  1  0.86690539  0.26039691  0.50444424  1
  O  O225  1  0.86367398  0.74607118  0.00000222  1
  O  O226  1  0.87621216  0.75381445  0.51167149  1
  O  O227  1  0.13740954  0.24802078  0.50006445  1
  O  O228  1  0.12620911  0.23610848  0.99490875  1
  O  O229  1  0.13008882  0.74317834  0.50088373  1
  O  O230  1  0.13095981  0.74072835  1.00401395  1
  O  O231  1  0.63585262  0.24985740  0.50196604  1
  O  O232  1  0.59414187  0.23574713  1.00859155  1
  O  O233  1  0.62418956  0.74961203  0.48111520  1
  O  O234  1  0.63354497  0.74347462  0.99525489  1
  O  O235  1  0.49013884  0.25215529  0.13745703  1
  O  O236  1  0.50042591  0.24365251  0.63573694  1
  O  O237  1  0.50823375  0.75554798  0.13832627  1
  O  O238  1  0.49433985  0.74599051  0.63558699  1
  O  O239  1  0.99447195  0.23496484  0.12241240  1
  O  O240  1  0.99877213  0.23964476  0.63346274  1
  O  O241  1  0.99886800  0.74154067  0.13449857  1
  O  O242  1  0.99157024  0.74196276  0.63299991  1
  O  O243  1  -0.00442819  0.25509035  0.37881080  1
  O  O244  1  0.01427153  0.23792728  0.86998830  1
  O  O245  1  0.00261918  0.74329146  0.36125671  1
  O  O246  1  -0.00881243  0.75070547  0.86245995  1
  O  O247  1  0.49941895  0.24760494  0.36548970  1
  O  O248  1  0.49730039  0.27265537  0.86042984  1
  O  O249  1  0.50614853  0.75448609  0.36865870  1
  O  O250  1  0.51288949  0.75046561  0.87078298  1
  O  O251  1  0.25183675  0.13469640  0.49312691  1
  O  O252  1  0.24757553  0.12564171  0.99114958  1
  O  O253  1  0.24766465  0.62897132  0.49465583  1
  O  O254  1  0.23976636  0.63411943  1.00047814  1
  O  O255  1  0.75026327  0.13414537  0.49398898  1
  O  O256  1  0.75449354  0.12460163  0.98309380  1
  O  O257  1  0.74345981  0.62556414  0.49079041  1
  O  O258  1  0.74312932  0.63308122  0.99188286  1
  O  O259  1  0.25361793  0.37247140  0.00886859  1
  O  O260  1  0.25434446  0.36145204  0.50165529  1
  O  O261  1  0.24891882  0.86782216  0.00570073  1
  O  O262  1  0.25469903  0.87032711  0.50903845  1
  O  O263  1  0.75289714  0.36891623  0.01060038  1
  O  O264  1  0.75749979  0.36955223  0.50339797  1
  O  O265  1  0.74663682  0.86537190  0.00770533  1
  O  O266  1  0.75604722  0.87113350  0.51149480  1
  O  O267  1  0.13694766  0.49762116  0.24771209  1
  O  O268  1  0.12404274  0.49142181  0.74443504  1
  O  O269  1  0.13293252  0.99195420  0.24066099  1
  O  O270  1  0.11695460  0.99049542  0.73766629  1
  O  O271  1  0.62595185  0.49474658  0.24287898  1
  O  O272  1  0.60605350  0.57192155  0.71153751  1
  O  O273  1  0.63897501  0.99785409  0.24849995  1
  O  O274  1  0.61804684  0.98654822  0.74031768  1
  O  O275  1  0.37183386  0.00742904  0.25161810  1
  O  O276  1  0.38012607  0.00668070  0.76248721  1
  O  O277  1  0.36373730  0.50695285  0.25448578  1
  O  O278  1  0.37191512  0.51084133  0.75458923  1
  O  O279  1  0.86606990  0.00794013  0.25065953  1
  O  O280  1  0.88026304  0.00161330  0.75321500  1
  O  O281  1  0.87473661  0.50428893  0.25669129  1
  O  O282  1  0.88509013  0.49430801  0.76623137  1
  O  O283  1  0.10723864  0.37690120  0.37451152  1
  O  O284  1  0.12919575  0.36338312  0.86920373  1
  O  O285  1  0.13297541  0.87531228  0.36208485  1
  O  O286  1  0.11962134  0.88191291  0.86179439  1
  O  O287  1  0.63481664  0.38269677  0.36102795  1
  O  O288  1  0.61332154  0.39160119  0.87018807  1
  O  O289  1  0.62012737  0.86805942  0.37061185  1
  O  O290  1  0.63405161  0.86844648  0.86574449  1
  O  O291  1  0.36493662  0.13699017  0.14088225  1
  O  O292  1  0.38885156  0.11497815  0.63588709  1
  O  O293  1  0.36805141  0.62300997  0.13632426  1
  O  O294  1  0.38378540  0.62982897  0.63415822  1
  O  O295  1  0.88124641  0.12891033  0.13073270  1
  O  O296  1  0.88602563  0.12565211  0.62242145  1
  O  O297  1  0.88573702  0.62461315  0.12761114  1
  O  O298  1  0.87787345  0.62879576  0.62605946  1
  O  O299  1  0.26338518  0.26039613  0.12346292  1
  O  O300  1  0.24885989  0.24473318  0.60970691  1
  O  O301  1  0.24543054  0.76178116  0.11788259  1
  O  O302  1  0.25705169  0.75736442  0.61892568  1
  O  O303  1  0.75380238  0.25359396  0.11747152  1
  O  O304  1  0.75202786  0.25935948  0.61869447  1
  O  O305  1  0.75213336  0.75841936  0.11663078  1
  O  O306  1  0.75693967  0.75421852  0.62457006  1
  O  O307  1  0.25649846  0.24016255  0.38818403  1
  O  O308  1  0.23892965  0.23838191  0.87560425  1
  O  O309  1  0.24761398  0.74252813  0.38248402  1
  O  O310  1  0.24732294  0.74908037  0.88546618  1
  O  O311  1  0.75672127  0.24153482  0.38505546  1
  O  O312  1  0.74671558  0.23678936  0.88562686  1
  O  O313  1  0.74202728  0.74309807  0.37439411  1
  O  O314  1  0.74218111  0.74573131  0.88142732  1
  O  O315  1  0.00985479  0.11364751  0.00799512  1
  O  O316  1  0.00027872  0.11579886  0.50853811  1
  O  O317  1  0.00401530  0.61861911  0.00732371  1
  O  O318  1  0.00585427  0.61608775  0.50531407  1
  O  O319  1  0.46481977  0.11428774  0.00695375  1
  O  O320  1  0.49942918  0.12148293  0.50831583  1
  O  O321  1  0.51490845  0.63368844  -0.00213972  1
  O  O322  1  0.50597153  0.61848311  0.50607227  1
  O  O323  1  0.49025905  0.37925964  0.50408176  1
  O  O324  1  0.49820986  0.38199096  0.98005538  1
  O  O325  1  0.49406520  0.87894452  0.49445758  1
  O  O326  1  0.48581538  0.86991123  1.00390321  1
  O  O327  1  0.99333729  0.37569506  0.49195570  1
  O  O328  1  0.98951888  0.38135792  1.00855846  1
  O  O329  1  0.99025729  0.88188135  0.50939752  1
  O  O330  1  1.00879678  0.89008309  1.00109162  1
  O  O331  1  0.49982757  0.50585745  0.39012353  1
  O  O332  1  0.48821870  0.49178137  0.86298612  1
  O  O333  1  0.49526936  0.99478746  0.37838887  1
  O  O334  1  0.49196273  0.99899999  0.87294964  1
  O  O335  1  0.99124059  0.49345685  0.37953345  1
  O  O336  1  0.99049399  0.50154739  0.88998409  1
  O  O337  1  0.99723263  1.00072735  0.39169744  1
  O  O338  1  0.98927410  0.99987944  0.88769201  1
  O  O339  1  0.01050110  0.00715293  0.11887414  1
  O  O340  1  0.00610833  0.00541834  0.61946353  1
  O  O341  1  -0.00095575  0.50546970  0.11632012  1
  O  O342  1  0.00943520  0.50126437  0.61968086  1
  O  O343  1  0.51990548  -0.00663166  0.13232556  1
  O  O344  1  0.51011387  0.00601845  0.61963575  1
  O  O345  1  0.50927660  0.49558584  0.12925674  1
  O  O346  1  0.50205578  0.50407184  0.61315034  1
  O  O347  1  0.25004159  0.38132163  0.24582538  1
  O  O348  1  0.23881525  0.37330721  0.74676593  1
  O  O349  1  0.24741508  0.87928671  0.24172151  1
  O  O350  1  0.24077488  0.86891658  0.73820184  1
  O  O351  1  0.74276190  0.37324702  0.23758880  1
  O  O352  1  0.75603441  0.36982074  0.73944299  1
  O  O353  1  0.74998165  0.88307383  0.24369494  1
  O  O354  1  0.74103809  0.86905154  0.73656392  1
  O  O355  1  0.25790129  0.11820527  0.25766878  1
  O  O356  1  0.25892629  0.12837858  0.75631165  1
  O  O357  1  0.25255187  0.62021241  0.25625509  1
  O  O358  1  0.25979269  0.62888617  0.75082696  1
  O  O359  1  0.75935674  0.12001693  0.25656147  1
  O  O360  1  0.75572601  0.13465892  0.76563296  1
  O  O361  1  0.75833290  0.62352554  0.25443719  1
  O  O362  1  0.75540765  0.63077321  0.76834203  1
  O  O363  1  0.36830944  0.11982306  0.36491272  1
  O  O364  1  0.36744135  0.11080779  0.86666182  1
  O  O365  1  0.36154784  0.62322450  0.37054238  1
  O  O366  1  0.37280376  0.61719572  0.86967634  1
  O  O367  1  0.86691475  0.12218470  0.36745997  1
  O  O368  1  0.87269565  0.10736084  0.87663296  1
  O  O369  1  0.87342909  0.61571263  0.37037401  1
  O  O370  1  0.86697593  0.61171294  0.87597428  1
  O  O371  1  0.13399414  0.37393944  0.12848000  1
  O  O372  1  0.12828591  0.38122479  0.63128427  1
  O  O373  1  0.13181147  0.88033532  0.13373090  1
  O  O374  1  0.13224517  0.88078421  0.63180074  1
  O  O375  1  0.62970740  0.38535989  0.13125775  1
  O  O376  1  0.64091128  0.37556510  0.62615091  1
  O  O377  1  0.63859239  0.88438671  0.12872622  1
  O  O378  1  0.63120095  0.87906451  0.62915528  1
  O  O379  1  0.12818392  0.24424468  0.24988055  1
  O  O380  1  0.11940411  0.25390353  0.75757990  1
  O  O381  1  0.11840691  0.75880112  0.25132059  1
  O  O382  1  0.11367978  0.75863078  0.74380617  1
  O  O383  1  0.61249128  0.25742955  0.24709946  1
  O  O384  1  0.61054329  0.24995395  0.74826710  1
  O  O385  1  0.61802857  0.74791218  0.25811350  1
  O  O386  1  0.61671049  0.75796051  0.75849393  1
  O  O387  1  0.38542543  0.24599515  0.24888424  1
  O  O388  1  0.38278528  0.23753704  0.75515830  1
  O  O389  1  0.38266388  0.74059045  0.25164607  1
  O  O390  1  0.37915915  0.74983823  0.74777780  1
  O  O391  1  0.86909933  0.24193829  0.23480079  1
  O  O392  1  0.89154999  0.25734706  0.75332482  1
  O  O393  1  0.88301430  0.74319354  0.24720651  1
  O  O394  1  0.88069315  0.74957739  0.73933945  1
  O  O395  1  0.38266490  0.49281557  0.49707366  1
  O  O396  1  0.37263225  0.50337025  0.98535887  1
  O  O397  1  0.38108277  0.99483419  0.49527583  1
  O  O398  1  0.36632358  0.98371693  0.98169924  1
  O  O399  1  0.87946519  0.48786566  0.49276531  1
  O  O400  1  0.88016482  0.48903767  0.99472427  1
  O  O401  1  0.88206852  0.98922013  0.50206196  1
  O  O402  1  0.89016429  1.00014118  1.00984673  1
  O  O403  1  0.12028842  0.00850707  0.00570111  1
  O  O404  1  0.11705718  -0.00132279  0.51128780  1
  O  O405  1  0.11590688  0.50475539  0.00232410  1
  O  O406  1  0.12141890  0.50187200  0.50712989  1
  O  O407  1  0.62645600  -0.00480175  0.01297097  1
  O  O408  1  0.61815708  0.00164207  0.50674000  1
  O  O409  1  0.62577064  0.51530294  0.00772936  1
  O  O410  1  0.61978501  0.51053098  0.50544701  1
  O  O411  1  0.36936071  0.37024944  0.12472129  1
  O  O412  1  0.36786860  0.38251436  0.60705300  1
  O  O413  1  0.36511791  0.88343576  0.10835427  1
  O  O414  1  0.36774623  0.87269837  0.62243049  1
  O  O415  1  0.86618248  0.36677171  0.11943466  1
  O  O416  1  0.86659255  0.37308195  0.61745889  1
  O  O417  1  0.86438788  0.87498153  0.12940494  1
  O  O418  1  0.86695353  0.86674796  0.61933632  1
  O  O419  1  0.13771453  0.11972857  0.37912640  1
  O  O420  1  0.13145557  0.12505479  0.88177262  1
  O  O421  1  0.13588306  0.62562435  0.38176685  1
  O  O422  1  0.12285275  0.62000914  0.88741376  1
  O  O423  1  0.63990568  0.12026880  0.37570567  1
  O  O424  1  0.63911304  0.11553591  0.87235403  1
  O  O425  1  0.62925007  0.63067670  0.38009290  1
  O  O426  1  0.63046913  0.63127188  0.88604154  1
