# generated using pymatgen
data_V85Zn86O256
_symmetry_space_group_name_H-M   'P 1'
_cell_length_a   16.93902130
_cell_length_b   16.93356519
_cell_length_c   16.93348145
_cell_angle_alpha   89.97152728
_cell_angle_beta   90.03785015
_cell_angle_gamma   90.07703969
_symmetry_Int_Tables_number   1
_chemical_formula_structural   V85Zn86O256
_chemical_formula_sum   'V85 Zn86 O256'
_cell_volume   4857.16026537
_cell_formula_units_Z   1
loop_
 _symmetry_equiv_pos_site_id
 _symmetry_equiv_pos_as_xyz
  1  'x, y, z'
loop_
 _atom_site_type_symbol
 _atom_site_label
 _atom_site_symmetry_multiplicity
 _atom_site_fract_x
 _atom_site_fract_y
 _atom_site_fract_z
 _atom_site_occupancy
  V  V0  1  0.74128546  0.50020370  0.24183407  1
  V  V1  1  0.87569995  0.87021882  0.50130404  1
  V  V2  1  0.74626929  0.12969631  0.37455283  1
  V  V3  1  0.25391573  0.00631441  0.74919472  1
  V  V4  1  0.24893435  0.37535379  0.62220545  1
  V  V5  1  0.37526560  0.62284540  0.25318228  1
  V  V6  1  0.00377536  0.63426409  0.12756119  1
  V  V7  1  0.12053802  0.49371217  0.62302522  1
  V  V8  1  0.00397582  0.25864488  0.74966681  1
  V  V9  1  0.11733650  0.87712805  0.75334059  1
  V  V10  1  0.49223040  0.12349055  0.63003879  1
  V  V11  1  -0.00410290  0.50407468  -0.00157013  1
  V  V12  1  0.50169171  0.37815157  0.86991316  1
  V  V13  1  0.24548937  0.12396891  0.37813204  1
  V  V14  1  -0.00731352  0.49339655  0.49868384  1
  V  V15  1  0.49505463  0.74632256  0.74895151  1
  V  V16  1  0.75196983  0.86959818  0.11591748  1
  V  V17  1  0.88220376  -0.00734097  0.87280631  1
  V  V18  1  0.49533761  0.24997600  0.74971915  1
  V  V19  1  0.25543232  0.24949219  0.01653295  1
  V  V20  1  0.37587988  0.00238318  0.87204127  1
  V  V21  1  0.24697274  0.62402843  0.37719061  1
  V  V22  1  0.74431853  0.62784378  0.37326614  1
  V  V23  1  0.36790658  0.86744635  0.00016323  1
  V  V24  1  0.00018090  0.13156020  0.12563999  1
  V  V25  1  0.75543640  0.49648605  0.75432239  1
  V  V26  1  0.24321087  0.75454519  0.48938685  1
  V  V27  1  0.24937128  0.87866563  0.62298808  1
  V  V28  1  0.62585840  0.25350864  0.87063550  1
  V  V29  1  0.62510841  0.87311323  0.75116464  1
  V  V30  1  0.74472048  0.75125071  0.49624737  1
  V  V31  1  0.14211348  0.62920958  -0.00282533  1
  V  V32  1  0.00157433  -0.00638144  -0.00304277  1
  V  V33  1  0.87162459  0.25869315  0.61964491  1
  V  V34  1  -0.00440873  0.37080278  0.36904511  1
  V  V35  1  0.37715042  0.49843945  0.38969642  1
  V  V36  1  0.00285218  0.00673482  0.49597164  1
  V  V37  1  0.12080546  0.62869219  0.49445157  1
  V  V38  1  0.12431278  0.00912730  0.61951181  1
  V  V39  1  0.75352526  0.86618094  0.62707819  1
  V  V40  1  0.25817289  0.12985381  0.87289498  1
  V  V41  1  -0.00808229  0.38239957  0.87345261  1
  V  V42  1  0.13000404  0.25085146  0.87207219  1
  V  V43  1  0.50216319  0.00061899  0.49917229  1
  V  V44  1  0.37701767  0.00692122  0.36953553  1
  V  V45  1  0.37769899  0.37096830  0.01603959  1
  V  V46  1  0.62202263  0.62259802  0.49958252  1
  V  V47  1  0.62397095  0.36806904  0.24036062  1
  V  V48  1  0.49956795  0.74787894  0.25444569  1
  V  V49  1  0.87573775  -0.00069342  0.37182309  1
  V  V50  1  0.00117102  0.86050030  0.37064243  1
  V  V51  1  0.50874752  0.49788949  0.00460517  1
  V  V52  1  0.11977158  0.24527746  0.38138161  1
  V  V53  1  0.87849213  0.12822010  0.74875747  1
  V  V54  1  0.18524868  0.43492553  0.79818915  1
  V  V55  1  0.87807061  0.13379545  0.24906931  1
  V  V56  1  0.37791179  0.37061739  0.50186458  1
  V  V57  1  0.62650119  0.00055520  0.62467999  1
  V  V58  1  0.50088939  0.87446540  0.87560616  1
  V  V59  1  0.25190211  0.00041633  0.24713150  1
  V  V60  1  0.48512941  0.12717751  0.12901422  1
  V  V61  1  0.13334356  0.74896835  0.87439979  1
  V  V62  1  0.62714088  0.87202684  0.25225155  1
  V  V63  1  0.12155186  0.85834841  0.25187614  1
  V  V64  1  0.62574084  0.74597386  0.88671655  1
  V  V65  1  0.61966378  0.49264696  0.63139421  1
  V  V66  1  0.12234149  -0.00329557  0.12684110  1
  V  V67  1  0.12787594  0.49787202  0.12883211  1
  V  V68  1  -0.00915948  0.63458563  0.62372393  1
  V  V69  1  0.62597894  0.13566210  0.49953671  1
  V  V70  1  0.50757642  0.61995493  0.12728794  1
  V  V71  1  0.48761612  0.24548142  0.25216019  1
  V  V72  1  0.25120268  0.49225334  0.25089442  1
  V  V73  1  0.87915662  0.63142984  0.25026679  1
  V  V74  1  0.86897002  0.49424107  0.37530060  1
  V  V75  1  0.75048858  0.12587669  0.87750380  1
  V  V76  1  0.76040386  0.62749085  0.88057893  1
  V  V77  1  0.12399069  0.36534890  0.24684675  1
  V  V78  1  0.37536155  0.87240719  0.49959909  1
  V  V79  1  0.50364605  0.87171418  0.37541375  1
  V  V80  1  0.62586378  0.00406998  0.12552764  1
  V  V81  1  0.49909297  0.00180574  0.00033310  1
  V  V82  1  0.50165713  0.62489716  0.62490927  1
  V  V83  1  0.75186855  -0.00025099  0.74876122  1
  V  V84  1  0.50876401  0.37326496  0.37940977  1
  Zn  Zn85  1  0.87382727  0.25484263  0.12215956  1
  Zn  Zn86  1  0.87698093  0.86656505  -0.00862482  1
  Zn  Zn87  1  0.75237642  0.25588933  0.00041459  1
  Zn  Zn88  1  0.37259378  0.49983475  0.87500148  1
  Zn  Zn89  1  0.37120413  0.74272371  0.11967836  1
  Zn  Zn90  1  0.24552945  0.86703318  0.12071295  1
  Zn  Zn91  1  0.24629793  0.24335840  0.50212449  1
  Zn  Zn92  1  0.37000202  0.24543869  0.62845442  1
  Zn  Zn93  1  0.63058013  0.62273734  0.00615824  1
  Zn  Zn94  1  0.35636283  0.73162875  0.63214924  1
  Zn  Zn95  1  0.75080375  0.26251147  0.49179688  1
  Zn  Zn96  1  0.62506058  0.12775330  0.00224306  1
  Zn  Zn97  1  0.87132105  0.63304062  0.74544974  1
  Zn  Zn98  1  0.87389187  0.37613368  0.00176124  1
  Zn  Zn99  1  0.12670167  0.12538316  0.00033448  1
  Zn  Zn100  1  0.00351056  0.13090653  0.61970564  1
  Zn  Zn101  1  0.74898221  0.37815227  0.62185030  1
  Zn  Zn102  1  0.75121251  0.00022773  0.24832245  1
  Zn  Zn103  1  0.75132746  0.37613656  0.11866103  1
  Zn  Zn104  1  -0.00844276  0.75957418  0.75470503  1
  Zn  Zn105  1  0.87491071  0.74864821  0.11937519  1
  Zn  Zn106  1  0.33748448  0.61348123  0.77014925  1
  Zn  Zn107  1  0.18540207  0.18114070  0.19388748  1
  Zn  Zn108  1  0.18823204  0.18923542  0.69004532  1
  Zn  Zn109  1  0.19333701  0.68529533  0.18536071  1
  Zn  Zn110  1  0.17689742  0.69155123  0.68097219  1
  Zn  Zn111  1  0.68766108  0.19080861  0.18873871  1
  Zn  Zn112  1  0.68552597  0.18859522  0.68952590  1
  Zn  Zn113  1  0.68653447  0.69138613  0.19070671  1
  Zn  Zn114  1  0.68597650  0.68598220  0.69292230  1
  Zn  Zn115  1  0.31120966  0.31198139  0.31506346  1
  Zn  Zn116  1  0.32409249  0.31162347  0.81700690  1
  Zn  Zn117  1  0.31278555  0.81438866  0.30836084  1
  Zn  Zn118  1  0.30974570  0.81397513  0.81166550  1
  Zn  Zn119  1  0.80974230  0.31209499  0.30840449  1
  Zn  Zn120  1  0.81231917  0.31439794  0.81123220  1
  Zn  Zn121  1  0.81089926  0.81157859  0.31111621  1
  Zn  Zn122  1  0.81349042  0.80549674  0.81190244  1
  Zn  Zn123  1  0.18584367  0.43498135  0.43850081  1
  Zn  Zn124  1  0.18669498  0.43127821  0.96347175  1
  Zn  Zn125  1  0.18333184  0.93833707  0.43222990  1
  Zn  Zn126  1  0.18592028  0.93743269  0.93441625  1
  Zn  Zn127  1  0.68715882  0.43887101  0.44248892  1
  Zn  Zn128  1  0.68746662  0.43831091  0.93486849  1
  Zn  Zn129  1  0.68763801  0.94206790  0.43700690  1
  Zn  Zn130  1  0.68711343  0.94067948  0.93732910  1
  Zn  Zn131  1  0.30994399  0.05831611  0.05939874  1
  Zn  Zn132  1  0.31373876  0.06099865  0.55628770  1
  Zn  Zn133  1  0.32044863  0.55528846  0.06672589  1
  Zn  Zn134  1  0.30069700  0.57115729  0.58508953  1
  Zn  Zn135  1  0.81470199  0.06049449  0.06119731  1
  Zn  Zn136  1  0.81361077  0.06330359  0.56148109  1
  Zn  Zn137  1  0.81569303  0.56297092  0.06267491  1
  Zn  Zn138  1  0.80766342  0.55729117  0.56102992  1
  Zn  Zn139  1  0.44122453  0.43930231  0.19275787  1
  Zn  Zn140  1  0.43229770  0.44197749  0.69357578  1
  Zn  Zn141  1  0.43765697  0.93731599  0.18585449  1
  Zn  Zn142  1  0.43595457  0.93517470  0.68682502  1
  Zn  Zn143  1  0.93715477  0.44185913  0.18733487  1
  Zn  Zn144  1  0.93587170  0.44084536  0.69106376  1
  Zn  Zn145  1  0.93884113  0.93773550  0.18845951  1
  Zn  Zn146  1  0.93732180  0.93991360  0.68279503  1
  Zn  Zn147  1  0.06127839  0.05951098  0.30941176  1
  Zn  Zn148  1  0.06542554  0.06735649  0.81133452  1
  Zn  Zn149  1  0.06043828  0.56016634  0.31212923  1
  Zn  Zn150  1  0.05780649  0.57535605  0.81720539  1
  Zn  Zn151  1  0.56405723  0.06404995  0.31173268  1
  Zn  Zn152  1  0.56431783  0.06438938  0.81133325  1
  Zn  Zn153  1  0.56243535  0.55645086  0.31565472  1
  Zn  Zn154  1  0.56267945  0.56301980  0.81238013  1
  Zn  Zn155  1  0.43695136  0.18928398  0.43747795  1
  Zn  Zn156  1  0.43861571  0.18941457  0.94057999  1
  Zn  Zn157  1  0.43415407  0.68918610  0.44084643  1
  Zn  Zn158  1  0.43564763  0.68110811  0.93368164  1
  Zn  Zn159  1  0.93599366  0.18825295  0.43505448  1
  Zn  Zn160  1  0.93970831  0.18728689  0.93961141  1
  Zn  Zn161  1  0.92982317  0.68466132  0.44100207  1
  Zn  Zn162  1  0.94545008  0.69285306  0.93896413  1
  Zn  Zn163  1  0.06340948  0.31337502  0.05954391  1
  Zn  Zn164  1  0.05910531  0.31396231  0.55897715  1
  Zn  Zn165  1  0.06448360  0.80991345  0.05856276  1
  Zn  Zn166  1  0.06472120  0.81755658  0.55953616  1
  Zn  Zn167  1  0.56302296  0.30668812  0.06156084  1
  Zn  Zn168  1  0.56040413  0.31343646  0.56510280  1
  Zn  Zn169  1  0.55727125  0.81325048  0.06698398  1
  Zn  Zn170  1  0.56498697  0.80977263  0.56354104  1
  O  O171  1  0.11764091  0.11461433  0.12519961  1
  O  O172  1  0.12445005  0.11343912  0.62876258  1
  O  O173  1  0.12093224  0.61879238  0.12090771  1
  O  O174  1  0.11338110  0.61354512  0.61258977  1
  O  O175  1  0.62053054  0.11301323  0.12770598  1
  O  O176  1  0.61888209  0.11877343  0.61873282  1
  O  O177  1  0.61265051  0.63226292  0.12523176  1
  O  O178  1  0.61877303  0.62094012  0.61919033  1
  O  O179  1  0.38050188  0.37928580  0.38365641  1
  O  O180  1  0.38944216  0.37503738  0.88737419  1
  O  O181  1  0.38630869  0.88227173  0.37893803  1
  O  O182  1  0.37953900  0.87995918  0.88216565  1
  O  O183  1  0.88189795  0.38295444  0.36535437  1
  O  O184  1  0.88960697  0.37509279  0.87420756  1
  O  O185  1  0.87832429  0.88185468  0.37920108  1
  O  O186  1  0.86811725  0.88969041  0.87196169  1
  O  O187  1  0.25638488  0.00369762  0.36852098  1
  O  O188  1  0.25304431  0.00891646  0.86671550  1
  O  O189  1  0.25545032  0.50373068  0.37121899  1
  O  O190  1  0.23806503  0.48361235  0.86887745  1
  O  O191  1  0.76001049  0.00866398  0.37484854  1
  O  O192  1  0.75679815  0.00733150  0.86741153  1
  O  O193  1  0.75452803  0.50601481  0.36821445  1
  O  O194  1  0.74104260  0.51225481  0.86073191  1
  O  O195  1  0.23859803  0.50297281  0.13629993  1
  O  O196  1  0.23636772  0.48377829  0.61982947  1
  O  O197  1  0.24173836  0.99490102  0.13115105  1
  O  O198  1  0.24521967  0.99676517  0.62784198  1
  O  O199  1  0.75204661  0.50140675  0.13922052  1
  O  O200  1  0.73997622  0.50285475  0.63678009  1
  O  O201  1  0.74148414  0.99273048  0.12637665  1
  O  O202  1  0.74672463  0.99250640  0.63008654  1
  O  O203  1  0.01017326  0.38420884  0.26179592  1
  O  O204  1  -0.00053918  0.36712969  0.75595168  1
  O  O205  1  0.00894216  0.87691519  0.25775893  1
  O  O206  1  0.01350973  0.88024549  0.74370209  1
  O  O207  1  0.50812069  0.36701403  0.25616545  1
  O  O208  1  0.49684835  0.36572696  0.75895915  1
  O  O209  1  0.50428497  0.86784794  0.25586293  1
  O  O210  1  0.50555529  0.87004104  0.75576330  1
  O  O211  1  0.50235112  0.13808778  0.24767418  1
  O  O212  1  0.50427495  0.13065701  0.73885266  1
  O  O213  1  0.49860430  0.63042409  0.24915796  1
  O  O214  1  0.50185460  0.63420584  0.74022622  1
  O  O215  1  0.99017517  0.11724998  0.23894904  1
  O  O216  1  0.99414343  0.13862918  0.74949631  1
  O  O217  1  0.99062468  0.61823164  0.24253957  1
  O  O218  1  0.99778024  0.62145391  0.73058922  1
  O  O219  1  0.37028341  0.26077306  0.00107581  1
  O  O220  1  0.36934116  0.25674888  0.50400431  1
  O  O221  1  0.38481092  0.76532132  -0.00139896  1
  O  O222  1  0.36238666  0.75626181  0.50497253  1
  O  O223  1  0.87390450  0.25399369  0.00068222  1
  O  O224  1  0.87376949  0.24130962  0.51762975  1
  O  O225  1  0.88278177  0.75544562  0.00537331  1
  O  O226  1  0.86322562  0.76297107  0.49819807  1
  O  O227  1  0.12548710  0.25249987  0.48596469  1
  O  O228  1  0.13642844  0.25424569  0.98715016  1
  O  O229  1  0.13019927  0.74194554  0.49986222  1
  O  O230  1  0.12834412  0.73791217  0.99282732  1
  O  O231  1  0.62725133  0.23841722  0.50598905  1
  O  O232  1  0.62625939  0.24540030  0.98563798  1
  O  O233  1  0.63836293  0.74416866  0.50217614  1
  O  O234  1  0.61690196  0.75026314  0.98943440  1
  O  O235  1  0.50611001  0.23942886  0.13943426  1
  O  O236  1  0.50045862  0.24111833  0.63349232  1
  O  O237  1  0.49409362  0.74492302  0.13905987  1
  O  O238  1  0.50167101  0.74342935  0.63412821  1
  O  O239  1  1.00279571  0.23455929  0.11850899  1
  O  O240  1  0.99235118  0.25043237  0.63138019  1
  O  O241  1  1.00349793  0.73719036  0.12555631  1
  O  O242  1  1.00606698  0.73580805  0.61975523  1
  O  O243  1  0.00433436  0.25926887  0.37696246  1
  O  O244  1  0.01124560  0.25990307  0.87007458  1
  O  O245  1  -0.00841074  0.76175493  0.38174525  1
  O  O246  1  0.02346033  0.73214413  0.86505500  1
  O  O247  1  0.49608012  0.25763685  0.36350298  1
  O  O248  1  0.50566543  0.25346106  0.86858026  1
  O  O249  1  0.49607844  0.75858765  0.36576513  1
  O  O250  1  0.50644817  0.75409523  0.86773104  1
  O  O251  1  0.24967014  0.12256030  0.48414275  1
  O  O252  1  0.24912618  0.13199321  0.99187683  1
  O  O253  1  0.23953852  0.63431574  0.49790414  1
  O  O254  1  0.23938282  0.61869324  1.01133407  1
  O  O255  1  0.74213532  0.12591871  0.49404543  1
  O  O256  1  0.75054542  0.12256489  0.98548605  1
  O  O257  1  0.74496643  0.63282704  0.49417908  1
  O  O258  1  0.74705171  0.61411149  0.98539145  1
  O  O259  1  0.26748570  0.36467984  0.00288052  1
  O  O260  1  0.25803738  0.37026350  0.50579424  1
  O  O261  1  0.26488458  0.87944221  -0.00242207  1
  O  O262  1  0.25225081  0.87258797  0.50037058  1
  O  O263  1  0.75447763  0.37712282  -0.00027615  1
  O  O264  1  0.74932441  0.37378864  0.50683744  1
  O  O265  1  0.75131366  0.88099390  0.01333823  1
  O  O266  1  0.75383204  0.86988907  0.50422102  1
  O  O267  1  0.13170278  0.49180263  0.24676090  1
  O  O268  1  0.12725255  0.50309010  0.74437690  1
  O  O269  1  0.12961291  0.99317042  0.23910294  1
  O  O270  1  0.13494990  0.99643785  0.74468989  1
  O  O271  1  0.63078239  0.48534830  0.25527120  1
  O  O272  1  0.63504366  0.50776414  0.73721763  1
  O  O273  1  0.62334495  0.98909446  0.24229597  1
  O  O274  1  0.63215337  0.99332010  0.74523112  1
  O  O275  1  0.36538616  -0.00967771  0.25832762  1
  O  O276  1  0.36153085  -0.00631618  0.75499145  1
  O  O277  1  0.36701891  0.50204021  0.25972360  1
  O  O278  1  0.36499081  0.50019049  0.75873086  1
  O  O279  1  0.87433767  0.00476005  0.26145288  1
  O  O280  1  0.87348879  0.00879524  0.75385825  1
  O  O281  1  0.86583160  0.51006940  0.25991109  1
  O  O282  1  0.85911382  0.50965753  0.74398190  1
  O  O283  1  0.11674191  0.36795672  0.36846943  1
  O  O284  1  0.12697912  0.37455775  0.86615873  1
  O  O285  1  0.11334381  0.87825626  0.36375226  1
  O  O286  1  0.13012160  0.86643910  0.86433777  1
  O  O287  1  0.61124511  0.38044691  0.37274906  1
  O  O288  1  0.61227642  0.36639192  0.87805549  1
  O  O289  1  0.61229746  0.88333103  0.36794553  1
  O  O290  1  0.62162857  0.86895876  0.87064344  1
  O  O291  1  0.38612385  0.11501154  0.12518916  1
  O  O292  1  0.38820776  0.12391131  0.61754331  1
  O  O293  1  0.38694736  0.62249503  0.13616119  1
  O  O294  1  0.40249062  0.62309867  0.59589598  1
  O  O295  1  0.88289175  0.12143890  0.13293796  1
  O  O296  1  0.87654461  0.13125209  0.63709244  1
  O  O297  1  0.88489752  0.62425753  0.13308014  1
  O  O298  1  0.88897573  0.62194086  0.61631707  1
  O  O299  1  0.24349733  0.24063412  0.11496326  1
  O  O300  1  0.24763059  0.26099000  0.62371870  1
  O  O301  1  0.26047487  0.75578755  0.13287376  1
  O  O302  1  0.24020797  0.77090533  0.60973832  1
  O  O303  1  0.75163126  0.25347242  0.12069678  1
  O  O304  1  0.76348010  0.25153933  0.63071016  1
  O  O305  1  0.74697453  0.76659645  0.12650996  1
  O  O306  1  0.74402540  0.76175530  0.61991708  1
  O  O307  1  0.24111902  0.23992480  0.37366384  1
  O  O308  1  0.24801616  0.24470301  0.87779454  1
  O  O309  1  0.25389449  0.74531708  0.38382377  1
  O  O310  1  0.23476078  0.74246940  0.85711758  1
  O  O311  1  0.75777804  0.23464111  0.37682736  1
  O  O312  1  0.74299062  0.24323537  0.87120251  1
  O  O313  1  0.75215798  0.74066076  0.38289035  1
  O  O314  1  0.73997194  0.73624648  0.87242286  1
  O  O315  1  0.00446254  0.11343764  0.00685898  1
  O  O316  1  -0.00623316  0.11086485  0.49963065  1
  O  O317  1  0.01281845  0.61858874  0.00863665  1
  O  O318  1  0.00250518  0.61638556  0.50490518  1
  O  O319  1  0.50113764  0.11950099  0.01015126  1
  O  O320  1  0.50775488  0.12022532  0.50468725  1
  O  O321  1  0.50004695  0.61549770  0.01080592  1
  O  O322  1  0.51885354  0.63625326  0.49943108  1
  O  O323  1  0.48796730  0.36869645  0.49394672  1
  O  O324  1  0.49402465  0.37781539  0.99743294  1
  O  O325  1  0.49862772  0.87797974  0.49296616  1
  O  O326  1  0.49384906  0.88273437  0.99381496  1
  O  O327  1  1.00108354  0.38677542  0.48786616  1
  O  O328  1  1.00646553  0.38585562  0.98903354  1
  O  O329  1  0.99134852  0.88260960  0.49440430  1
  O  O330  1  1.00017891  0.88929637  1.00366460  1
  O  O331  1  0.48735418  0.48791100  0.37178599  1
  O  O332  1  0.50219415  0.49172598  0.88303197  1
  O  O333  1  0.49325933  0.99522702  0.37762658  1
  O  O334  1  0.49578459  0.99560094  0.87793373  1
  O  O335  1  0.99011670  0.49406669  0.38082536  1
  O  O336  1  1.00967873  0.49373954  0.88353391  1
  O  O337  1  0.99285134  0.99256184  0.38012891  1
  O  O338  1  0.99310455  1.00791767  0.88137962  1
  O  O339  1  0.00627789  0.00555929  0.11854682  1
  O  O340  1  0.00760380  0.00417622  0.61526322  1
  O  O341  1  0.01190682  0.50917516  0.12060976  1
  O  O342  1  0.00247747  0.50236791  0.61593014  1
  O  O343  1  0.50770651  0.00600447  0.12218159  1
  O  O344  1  0.50491545  0.00532755  0.62075047  1
  O  O345  1  0.49784162  0.50828375  0.11982321  1
  O  O346  1  0.51313250  0.50676773  0.63293888  1
  O  O347  1  0.24132211  0.38538203  0.25768860  1
  O  O348  1  0.24738831  0.37060348  0.74559512  1
  O  O349  1  0.23866472  0.88575193  0.25391746  1
  O  O350  1  0.24221997  0.88343971  0.73878904  1
  O  O351  1  0.73628494  0.38123193  0.25178829  1
  O  O352  1  0.75273241  0.39217913  0.74848693  1
  O  O353  1  0.74103201  0.87818214  0.24428608  1
  O  O354  1  0.74604587  0.87873783  0.74244565  1
  O  O355  1  0.24688318  0.10852988  0.25984080  1
  O  O356  1  0.24912450  0.11749834  0.75793960  1
  O  O357  1  0.25277780  0.61258762  0.25999194  1
  O  O358  1  0.27757611  0.64228339  0.68179198  1
  O  O359  1  0.75574636  0.12063242  0.25753790  1
  O  O360  1  0.75764079  0.12052246  0.75792806  1
  O  O361  1  0.75051376  0.61897123  0.25686311  1
  O  O362  1  0.75033021  0.61886010  0.76047610  1
  O  O363  1  0.36937634  0.11208527  0.37756189  1
  O  O364  1  0.36545434  0.11976931  0.87989099  1
  O  O365  1  0.36988668  0.61562558  0.37408767  1
  O  O366  1  0.36779597  0.61626624  0.87635512  1
  O  O367  1  0.87123609  0.11726765  0.36827697  1
  O  O368  1  0.87078109  0.12016190  0.86394869  1
  O  O369  1  0.86398116  0.61821569  0.36984733  1
  O  O370  1  0.86208784  0.62894944  0.87526624  1
  O  O371  1  0.11877854  0.38387436  0.13474548  1
  O  O372  1  0.12757878  0.38542341  0.62097662  1
  O  O373  1  0.12401576  0.87982756  0.13282762  1
  O  O374  1  0.13061791  0.88904997  0.62916607  1
  O  O375  1  0.62331931  0.37313452  0.13812463  1
  O  O376  1  0.62314063  0.38991089  0.62509190  1
  O  O377  1  0.63182582  0.88287551  0.13060049  1
  O  O378  1  0.63276283  0.88127546  0.62977631  1
  O  O379  1  0.12916082  0.26130398  0.25769503  1
  O  O380  1  0.11791331  0.24772471  0.76168388  1
  O  O381  1  0.12905295  0.75970881  0.25010133  1
  O  O382  1  0.11937224  0.76165914  0.74916037  1
  O  O383  1  0.61841293  0.26399629  0.25418171  1
  O  O384  1  0.61491830  0.24500650  0.76200249  1
  O  O385  1  0.61672940  0.76424227  0.24949641  1
  O  O386  1  0.61546866  0.75621675  0.75792698  1
  O  O387  1  0.38875197  0.25646216  0.24962563  1
  O  O388  1  0.38898143  0.24749029  0.74749468  1
  O  O389  1  0.38351844  0.73999725  0.25467891  1
  O  O390  1  0.38791911  0.75637770  0.74658916  1
  O  O391  1  0.87478513  0.23660050  0.24778771  1
  O  O392  1  0.88307482  0.24513285  0.74439907  1
  O  O393  1  0.86726483  0.73497685  0.24541993  1
  O  O394  1  0.88008701  0.74725169  0.74618734  1
  O  O395  1  0.36585919  0.49169222  0.49206899  1
  O  O396  1  0.38351373  0.48524452  0.99909954  1
  O  O397  1  0.38309576  0.99222020  0.49082027  1
  O  O398  1  0.38053613  0.99165545  0.99124692  1
  O  O399  1  0.87980863  0.50471252  0.48581780  1
  O  O400  1  0.89292792  0.50026351  1.00362003  1
  O  O401  1  0.87929952  0.99149683  0.49031104  1
  O  O402  1  0.88373852  0.99744490  0.98931758  1
  O  O403  1  0.12199738  -0.00041761  0.01025177  1
  O  O404  1  0.11493554  -0.00548093  0.50704115  1
  O  O405  1  0.12058472  0.50900187  0.01137974  1
  O  O406  1  0.11467717  0.50459253  0.50551959  1
  O  O407  1  0.61700599  0.00238801  0.00801629  1
  O  O408  1  0.61905207  0.00646175  0.50674819  1
  O  O409  1  0.61181878  0.49981982  -0.00013511  1
  O  O410  1  0.63100326  0.51212853  0.51773778  1
  O  O411  1  0.38276910  0.37569494  0.11496304  1
  O  O412  1  0.36652145  0.37444683  0.61751182  1
  O  O413  1  0.37664242  0.87759329  0.10759348  1
  O  O414  1  0.36376773  0.87657317  0.61677071  1
  O  O415  1  0.87407487  0.37406190  0.12467965  1
  O  O416  1  0.87615916  0.36094772  0.63011403  1
  O  O417  1  0.85915551  0.87703077  0.12900462  1
  O  O418  1  0.86495523  0.88309889  0.61323995  1
  O  O419  1  0.13031511  0.13336084  0.36650776  1
  O  O420  1  0.13664380  0.13479936  0.87755508  1
  O  O421  1  0.12777981  0.61702900  0.38795377  1
  O  O422  1  0.13246741  0.62473080  0.89151724  1
  O  O423  1  0.63481090  0.11674986  0.38584117  1
  O  O424  1  0.63551576  0.12988183  0.87551207  1
  O  O425  1  0.63687066  0.61649136  0.38267447  1
  O  O426  1  0.63023611  0.63336665  0.87872145  1
