# generated using pymatgen
data_V85Zn86O256
_symmetry_space_group_name_H-M   'P 1'
_cell_length_a   16.90681160
_cell_length_b   16.91243258
_cell_length_c   16.90760075
_cell_angle_alpha   89.99207795
_cell_angle_beta   89.94429114
_cell_angle_gamma   89.96000283
_symmetry_Int_Tables_number   1
_chemical_formula_structural   V85Zn86O256
_chemical_formula_sum   'V85 Zn86 O256'
_cell_volume   4834.47657518
_cell_formula_units_Z   1
loop_
 _symmetry_equiv_pos_site_id
 _symmetry_equiv_pos_as_xyz
  1  'x, y, z'
loop_
 _atom_site_type_symbol
 _atom_site_label
 _atom_site_symmetry_multiplicity
 _atom_site_fract_x
 _atom_site_fract_y
 _atom_site_fract_z
 _atom_site_occupancy
  V  V0  1  0.49243082  0.49532161  0.49921836  1
  V  V1  1  0.75212344  0.50240111  0.25027434  1
  V  V2  1  0.74649552  0.12359583  0.87841535  1
  V  V3  1  0.37415406  -0.00066035  0.38328239  1
  V  V4  1  0.37637913  0.50807244  0.86518805  1
  V  V5  1  0.37472655  0.12182027  0.74431524  1
  V  V6  1  0.37287242  0.25026537  0.12628853  1
  V  V7  1  0.61819145  0.12470837  0.50340021  1
  V  V8  1  0.25598438  0.12872167  0.37017012  1
  V  V9  1  0.12410184  0.75556113  0.37962441  1
  V  V10  1  0.23956512  0.25200265  -0.00545379  1
  V  V11  1  0.50168442  0.87808563  0.87312109  1
  V  V12  1  0.12684702  0.75243725  0.87534192  1
  V  V13  1  -0.00481846  0.75544714  0.25562272  1
  V  V14  1  0.62638384  0.87800274  0.24803827  1
  V  V15  1  0.74473398  0.87400959  0.62844900  1
  V  V16  1  0.63781862  0.49568549  0.62850665  1
  V  V17  1  0.00193143  0.75024188  0.74887986  1
  V  V18  1  0.37587368  0.25035029  0.61653531  1
  V  V19  1  0.24221631  0.12778589  0.86983175  1
  V  V20  1  0.87255145  0.75349130  0.10786093  1
  V  V21  1  0.75889618  0.12375578  0.37306673  1
  V  V22  1  0.12479287  0.00972549  0.12430659  1
  V  V23  1  0.12386014  0.38391230  0.25013653  1
  V  V24  1  0.00088246  0.50131527  0.00300520  1
  V  V25  1  0.74938481  0.25268107  0.50762672  1
  V  V26  1  0.24703563  0.61481260  0.37793502  1
  V  V27  1  0.74860383  0.75072250  0.50257290  1
  V  V28  1  0.12764806  0.62553635  0.00012581  1
  V  V29  1  0.87039480  0.37764319  0.50858177  1
  V  V30  1  0.62216542  0.62371908  0.50405318  1
  V  V31  1  0.74739507  0.87419448  0.11270471  1
  V  V32  1  0.01456273  0.62118832  0.62366400  1
  V  V33  1  0.37502728  0.37550202  -0.00376193  1
  V  V34  1  0.24202879  0.37022597  0.62160384  1
  V  V35  1  -0.00084004  0.23808799  0.24854177  1
  V  V36  1  0.43190852  0.08188829  0.19129164  1
  V  V37  1  0.36913010  0.61414586  0.25559424  1
  V  V38  1  0.12639683  0.87512280  0.24493601  1
  V  V39  1  0.61736972  0.00080908  0.62826693  1
  V  V40  1  0.87614899  0.74958030  0.62529109  1
  V  V41  1  0.62945318  0.75574761  0.87009579  1
  V  V42  1  0.88060453  0.87845559  0.49447352  1
  V  V43  1  0.49636841  0.87605968  0.38444528  1
  V  V44  1  0.62599516  0.25020404  0.37369356  1
  V  V45  1  0.87551090  0.50201751  0.37736393  1
  V  V46  1  0.24773550  0.75551027  0.00757302  1
  V  V47  1  0.49931207  0.25022370  0.24356100  1
  V  V48  1  0.87377477  -0.01045110  0.87772446  1
  V  V49  1  0.00742003  0.36880777  0.87708888  1
  V  V50  1  0.62511696  0.24966497  0.87514724  1
  V  V51  1  0.87391103  0.12305815  0.75020996  1
  V  V52  1  0.62275808  0.75054547  0.37625343  1
  V  V53  1  0.37401545  0.74299943  0.62739893  1
  V  V54  1  0.87412110  0.37276977  0.00509956  1
  V  V55  1  0.00739343  0.24644382  0.75485373  1
  V  V56  1  0.12741478  0.25030332  0.37634794  1
  V  V57  1  0.75628919  -0.00071309  0.24755079  1
  V  V58  1  0.24883112  0.38401901  0.12726113  1
  V  V59  1  0.50007109  0.24666529  0.74326929  1
  V  V60  1  0.75273736  0.62764659  0.87832325  1
  V  V61  1  0.49473426  0.74464604  0.75336888  1
  V  V62  1  0.37186013  0.87596409  0.00548185  1
  V  V63  1  0.87074869  0.49682734  0.87218231  1
  V  V64  1  0.74310065  -0.00529657  0.75166836  1
  V  V65  1  0.25957520  0.88055535  0.62092147  1
  V  V66  1  0.49726377  0.62828791  0.12563333  1
  V  V67  1  0.13134663  0.12800447  0.49916839  1
  V  V68  1  0.01139068  0.50205884  0.50407956  1
  V  V69  1  0.61612782  0.12225015  0.01442268  1
  V  V70  1  0.13066600  0.87870781  0.74952335  1
  V  V71  1  0.87173820  0.61998788  0.74719555  1
  V  V72  1  0.25155309  -0.00117478  0.24370241  1
  V  V73  1  0.62457840  0.37680306  0.24995080  1
  V  V74  1  0.25633466  0.75370988  0.49570193  1
  V  V75  1  0.36976675  0.00145277  0.87295010  1
  V  V76  1  0.50019238  0.37617028  0.87024183  1
  V  V77  1  0.64101628  0.37650509  0.74808727  1
  V  V78  1  0.13030399  0.00091359  0.62760909  1
  V  V79  1  0.24506014  0.50621881  0.74273639  1
  V  V80  1  0.62816195  0.63071674  -0.00047337  1
  V  V81  1  0.62634697  0.50197424  0.12287738  1
  V  V82  1  -0.00796886  -0.00042604  0.00897038  1
  V  V83  1  -0.00228426  0.12444856  0.62221137  1
  V  V84  1  0.87690408  0.23548515  0.12969130  1
  Zn  Zn85  1  0.49610444  0.74786978  0.25315174  1
  Zn  Zn86  1  0.49720780  0.00359694  0.01380409  1
  Zn  Zn87  1  0.12469371  0.37522172  0.75116677  1
  Zn  Zn88  1  0.87582011  0.62851035  0.24907874  1
  Zn  Zn89  1  0.87157281  0.25404251  0.62908606  1
  Zn  Zn90  1  0.48754072  0.38178134  0.36855157  1
  Zn  Zn91  1  0.75249584  0.37439118  0.12579424  1
  Zn  Zn92  1  0.36646125  0.37368392  0.49282764  1
  Zn  Zn93  1  0.88528321  0.00039232  0.36621153  1
  Zn  Zn94  1  0.00471267  -0.00409563  0.49404079  1
  Zn  Zn95  1  0.36798198  0.74959202  0.12929110  1
  Zn  Zn96  1  0.49468864  0.00152169  0.50771982  1
  Zn  Zn97  1  -0.00085816  0.62875835  0.12676091  1
  Zn  Zn98  1  -0.00157664  0.87433275  0.87897234  1
  Zn  Zn99  1  0.74933148  0.62606234  0.37551713  1
  Zn  Zn100  1  0.25627331  0.62883685  0.87038806  1
  Zn  Zn101  1  0.49470652  0.61760858  0.63330949  1
  Zn  Zn102  1  0.74930012  0.24784767  0.00444647  1
  Zn  Zn103  1  0.50030020  0.50131473  -0.00367250  1
  Zn  Zn104  1  0.12758199  0.50547166  0.13019434  1
  Zn  Zn105  1  -0.00118301  0.37475434  0.37495887  1
  Zn  Zn106  1  0.11751294  0.12938529  -0.00212501  1
  Zn  Zn107  1  0.18859713  0.18926739  0.18912000  1
  Zn  Zn108  1  0.18946402  0.18929648  0.68788387  1
  Zn  Zn109  1  0.18656503  0.68611255  0.19068724  1
  Zn  Zn110  1  0.19150735  0.69005508  0.68717632  1
  Zn  Zn111  1  0.69290385  0.18754077  0.18952409  1
  Zn  Zn112  1  0.68552056  0.18430734  0.68792669  1
  Zn  Zn113  1  0.68975036  0.69100610  0.18766641  1
  Zn  Zn114  1  0.68574775  0.68444233  0.69182562  1
  Zn  Zn115  1  0.31177293  0.31535497  0.30987484  1
  Zn  Zn116  1  0.31223538  0.31368024  0.80740220  1
  Zn  Zn117  1  0.31298791  0.81215686  0.30986327  1
  Zn  Zn118  1  0.31145209  0.81434493  0.81321870  1
  Zn  Zn119  1  0.81431843  0.31466168  0.31528626  1
  Zn  Zn120  1  0.81879094  0.30751759  0.81640045  1
  Zn  Zn121  1  0.80979580  0.81250568  0.31248288  1
  Zn  Zn122  1  0.81096289  0.80996951  0.81142470  1
  Zn  Zn123  1  0.18739910  0.43415810  0.43682777  1
  Zn  Zn124  1  0.19010153  0.44074261  0.93486118  1
  Zn  Zn125  1  0.18730555  0.93696455  0.43648737  1
  Zn  Zn126  1  0.18639040  0.94053029  0.93910214  1
  Zn  Zn127  1  0.68563513  0.43699778  0.43672334  1
  Zn  Zn128  1  0.68964073  0.43927800  0.93691040  1
  Zn  Zn129  1  0.68961993  0.93899853  0.43838005  1
  Zn  Zn130  1  0.67957720  0.94207435  0.94043094  1
  Zn  Zn131  1  0.30346588  0.06021227  0.05436795  1
  Zn  Zn132  1  0.31043213  0.06689886  0.56203511  1
  Zn  Zn133  1  0.31516019  0.56341090  0.05781152  1
  Zn  Zn134  1  0.30709698  0.56390699  0.56216080  1
  Zn  Zn135  1  0.80701063  0.05763473  0.06274930  1
  Zn  Zn136  1  0.80833644  0.06244632  0.56187109  1
  Zn  Zn137  1  0.81365581  0.56544735  0.06304522  1
  Zn  Zn138  1  0.81383817  0.56440613  0.56188450  1
  Zn  Zn139  1  0.43804472  0.43954928  0.18462094  1
  Zn  Zn140  1  0.43690607  0.43549561  0.68381578  1
  Zn  Zn141  1  0.43478076  0.91916731  0.19426343  1
  Zn  Zn142  1  0.43652427  0.93328145  0.69363701  1
  Zn  Zn143  1  0.93993760  0.43453107  0.18887171  1
  Zn  Zn144  1  0.93948310  0.43677046  0.68755108  1
  Zn  Zn145  1  0.93659357  0.93182069  0.18558903  1
  Zn  Zn146  1  0.93793670  0.93785319  0.68622012  1
  Zn  Zn147  1  0.06264943  0.05946062  0.31498958  1
  Zn  Zn148  1  0.06031115  0.05859220  0.81336370  1
  Zn  Zn149  1  0.06146132  0.56917182  0.31612393  1
  Zn  Zn150  1  0.06276191  0.56166545  0.81428646  1
  Zn  Zn151  1  0.57106999  0.05875151  0.31837441  1
  Zn  Zn152  1  0.55909869  0.06252584  0.81431120  1
  Zn  Zn153  1  0.56048570  0.56399092  0.31411067  1
  Zn  Zn154  1  0.56604094  0.56262779  0.80987491  1
  Zn  Zn155  1  0.43919915  0.18962676  0.43009602  1
  Zn  Zn156  1  0.43490766  0.18859399  0.93574073  1
  Zn  Zn157  1  0.43483953  0.68461055  0.43991819  1
  Zn  Zn158  1  0.43879762  0.68927237  0.94014981  1
  Zn  Zn159  1  0.93972367  0.18866030  0.43843543  1
  Zn  Zn160  1  0.93546403  0.18257029  0.93989827  1
  Zn  Zn161  1  0.93974154  0.68628440  0.43834078  1
  Zn  Zn162  1  0.94144882  0.68668960  0.93486609  1
  Zn  Zn163  1  0.06014164  0.31244124  0.06751493  1
  Zn  Zn164  1  0.05988831  0.31189868  0.56139710  1
  Zn  Zn165  1  0.05978628  0.81874475  0.06591027  1
  Zn  Zn166  1  0.06645276  0.80986189  0.56270042  1
  Zn  Zn167  1  0.56268672  0.31112126  0.06147734  1
  Zn  Zn168  1  0.56396276  0.31606151  0.56423740  1
  Zn  Zn169  1  0.56257710  0.81174455  0.05921775  1
  Zn  Zn170  1  0.55975951  0.81367369  0.56638203  1
  O  O171  1  0.12733602  0.11398206  0.12405933  1
  O  O172  1  0.12243656  0.12075427  0.61900797  1
  O  O173  1  0.12267886  0.62451675  0.11374386  1
  O  O174  1  0.11391929  0.62852792  0.62886510  1
  O  O175  1  0.62643457  0.13190344  0.11253153  1
  O  O176  1  0.62879688  0.11391009  0.61660658  1
  O  O177  1  0.62106597  0.62408027  0.11765818  1
  O  O178  1  0.62204033  0.61450661  0.62166332  1
  O  O179  1  0.37537449  0.36993880  0.38044745  1
  O  O180  1  0.38360014  0.38118165  0.87562499  1
  O  O181  1  0.38445537  0.88644854  0.36695799  1
  O  O182  1  0.37912371  0.88321708  0.88215738  1
  O  O183  1  0.87699430  0.38680241  0.38396269  1
  O  O184  1  0.88311060  0.38072411  0.88291978  1
  O  O185  1  0.86853411  0.87411365  0.39242926  1
  O  O186  1  0.87352437  0.88609520  0.87116113  1
  O  O187  1  0.25788827  0.00546151  0.36828724  1
  O  O188  1  0.26215327  0.00974169  0.88015931  1
  O  O189  1  0.24397860  0.51572570  0.37929495  1
  O  O190  1  0.25934076  0.50030545  0.86246166  1
  O  O191  1  0.75425401  0.00645944  0.36790333  1
  O  O192  1  0.75179085  0.00299399  0.86966850  1
  O  O193  1  0.75615238  0.50185890  0.36833943  1
  O  O194  1  0.76426978  0.50677109  0.87755947  1
  O  O195  1  0.24858908  0.48795448  0.11729642  1
  O  O196  1  0.25432781  0.49048527  0.63630009  1
  O  O197  1  0.24121930  1.00252029  0.13205240  1
  O  O198  1  0.24352465  0.99253076  0.62119743  1
  O  O199  1  0.74545534  0.49900429  0.13266269  1
  O  O200  1  0.73691810  0.50292338  0.62257768  1
  O  O201  1  0.75137107  0.98389408  0.13141906  1
  O  O202  1  0.74226998  0.99361445  0.63343923  1
  O  O203  1  0.00814822  0.36558957  0.25278076  1
  O  O204  1  0.00025119  0.36608400  0.75845773  1
  O  O205  1  0.00809243  0.86378856  0.24846442  1
  O  O206  1  0.01173057  0.86897914  0.74708611  1
  O  O207  1  0.50736646  0.36975822  0.24816247  1
  O  O208  1  0.50735527  0.36864425  0.75764575  1
  O  O209  1  0.51002372  0.86853382  0.26198620  1
  O  O210  1  0.49634054  0.86421153  0.76575007  1
  O  O211  1  0.50384909  0.13134112  0.25181662  1
  O  O212  1  0.49010639  0.13624641  0.75585730  1
  O  O213  1  0.49008744  0.62613405  0.24519678  1
  O  O214  1  0.50241573  0.63858379  0.75092022  1
  O  O215  1  1.00564589  0.13890763  0.25086629  1
  O  O216  1  0.99443260  0.12812254  0.74476232  1
  O  O217  1  0.99968227  0.63920880  0.24641388  1
  O  O218  1  0.99238028  0.62785671  0.74464819  1
  O  O219  1  0.36909608  0.25582711  0.00886272  1
  O  O220  1  0.38382158  0.24690800  0.51349690  1
  O  O221  1  0.36506382  0.75713659  -0.00071619  1
  O  O222  1  0.36515178  0.75016119  0.50753447  1
  O  O223  1  0.87621031  0.25496806  0.01230717  1
  O  O224  1  0.86789712  0.25937508  0.50033734  1
  O  O225  1  0.87878278  0.75051330  0.00904001  1
  O  O226  1  0.86997092  0.75707084  0.50598825  1
  O  O227  1  0.11883055  0.24388084  0.48588934  1
  O  O228  1  0.13518177  0.24972542  1.00500409  1
  O  O229  1  0.13634482  0.75520477  0.48930425  1
  O  O230  1  0.12802331  0.74755333  0.99565793  1
  O  O231  1  0.63043273  0.24568239  0.49650304  1
  O  O232  1  0.62692144  0.24148978  0.99304529  1
  O  O233  1  0.62640502  0.74231438  0.49793553  1
  O  O234  1  0.62033343  0.73733858  0.98768282  1
  O  O235  1  0.49227164  0.25293247  0.13440861  1
  O  O236  1  0.49457544  0.25644929  0.63620243  1
  O  O237  1  0.49981338  0.73719272  0.12557589  1
  O  O238  1  0.49119047  0.75196830  0.63478247  1
  O  O239  1  0.98838158  0.25079822  0.13486665  1
  O  O240  1  0.99786923  0.23839276  0.63172302  1
  O  O241  1  0.98565514  0.75373139  0.13072601  1
  O  O242  1  0.99617130  0.74162157  0.62911797  1
  O  O243  1  0.00592303  0.25131846  0.36471498  1
  O  O244  1  -0.00880994  0.25693018  0.86881490  1
  O  O245  1  0.01138373  0.74541539  0.36986003  1
  O  O246  1  0.00805306  0.75401300  0.86823681  1
  O  O247  1  0.50747131  0.25183725  0.35949924  1
  O  O248  1  0.50348948  0.25763787  0.86562521  1
  O  O249  1  0.50828143  0.75546375  0.37887450  1
  O  O250  1  0.50500020  0.75642399  0.87103104  1
  O  O251  1  0.23816742  0.12437291  0.49052202  1
  O  O252  1  0.24633362  0.13549867  0.98884381  1
  O  O253  1  0.25436777  0.63362823  0.48570688  1
  O  O254  1  0.24277048  0.63195998  0.99494439  1
  O  O255  1  0.74164097  0.13144181  0.49336138  1
  O  O256  1  0.73794968  0.12315324  0.99377094  1
  O  O257  1  0.73800889  0.63167936  0.50095463  1
  O  O258  1  0.74437207  0.62241200  0.98766327  1
  O  O259  1  0.25470864  0.36903220  0.00293619  1
  O  O260  1  0.24972229  0.38261363  0.51708066  1
  O  O261  1  0.25825177  0.86749501  -0.00655406  1
  O  O262  1  0.24766497  0.86772814  0.50899500  1
  O  O263  1  0.76257232  0.37245402  -0.00019056  1
  O  O264  1  0.75661300  0.36475834  0.49370004  1
  O  O265  1  0.74201990  0.87789047  0.01379078  1
  O  O266  1  0.75756685  0.86969534  0.50877107  1
  O  O267  1  0.11605345  0.48849203  0.25030404  1
  O  O268  1  0.14020288  0.49657271  0.75618060  1
  O  O269  1  0.13118192  0.99479097  0.24405857  1
  O  O270  1  0.12112361  0.99382930  0.73670045  1
  O  O271  1  0.63076408  0.49517444  0.24601485  1
  O  O272  1  0.62385935  0.49213824  0.73779823  1
  O  O273  1  0.63462328  0.98440441  0.25512946  1
  O  O274  1  0.63367916  1.00563963  0.74423700  1
  O  O275  1  0.37146454  0.00713766  0.25101633  1
  O  O276  1  0.37908627  0.01074912  0.75781403  1
  O  O277  1  0.37738686  0.51481013  0.24800143  1
  O  O278  1  0.36386363  0.49381852  0.75530824  1
  O  O279  1  0.86205632  -0.00811531  0.25001818  1
  O  O280  1  0.86674697  0.00451187  0.75688511  1
  O  O281  1  0.86934967  0.50120947  0.25710215  1
  O  O282  1  0.88236222  0.50760730  0.75950920  1
  O  O283  1  0.12476730  0.36644658  0.36807691  1
  O  O284  1  0.11062671  0.37789387  0.87691060  1
  O  O285  1  0.13089765  0.86520262  0.36300819  1
  O  O286  1  0.12532594  0.87236641  0.86518216  1
  O  O287  1  0.62312828  0.36994011  0.36171764  1
  O  O288  1  0.61968267  0.37104015  0.86981373  1
  O  O289  1  0.62054821  0.86856190  0.37111645  1
  O  O290  1  0.61626977  0.86701665  0.88113671  1
  O  O291  1  0.36898622  0.13284404  0.12217389  1
  O  O292  1  0.36933351  0.13269127  0.63533648  1
  O  O293  1  0.38082874  0.62519942  0.13266529  1
  O  O294  1  0.37488932  0.63846009  0.62291887  1
  O  O295  1  0.87024172  0.13698409  0.12215280  1
  O  O296  1  0.88253308  0.12381874  0.62923007  1
  O  O297  1  0.87490562  0.64022259  0.12640416  1
  O  O298  1  0.87968045  0.62994498  0.63254210  1
  O  O299  1  0.25607488  0.25807977  0.11753743  1
  O  O300  1  0.25857073  0.26274758  0.62953411  1
  O  O301  1  0.24734294  0.74695472  0.11144696  1
  O  O302  1  0.25594359  0.75644115  0.61735158  1
  O  O303  1  0.76417157  0.25401598  0.12633158  1
  O  O304  1  0.75116845  0.24388615  0.61204910  1
  O  O305  1  0.76209323  0.75939502  0.12738495  1
  O  O306  1  0.75273521  0.75627475  0.62376846  1
  O  O307  1  0.23902749  0.23999639  0.36409223  1
  O  O308  1  0.25771909  0.24353102  0.88406248  1
  O  O309  1  0.24634208  0.74714336  0.38151509  1
  O  O310  1  0.24228554  0.74826844  0.88189432  1
  O  O311  1  0.74501965  0.24373795  0.38004301  1
  O  O312  1  0.74658187  0.23904945  0.87912183  1
  O  O313  1  0.73784288  0.74994185  0.38330698  1
  O  O314  1  0.74231799  0.74164558  0.87201640  1
  O  O315  1  0.00280960  0.10707325  -0.00717690  1
  O  O316  1  0.01093823  0.12587219  0.50801966  1
  O  O317  1  0.00758692  0.61715105  0.00090402  1
  O  O318  1  -0.00536495  0.61150457  0.50968522  1
  O  O319  1  0.51191023  0.12738467  -0.00315581  1
  O  O320  1  0.51445907  0.12318071  0.49250056  1
  O  O321  1  0.50780108  0.62268789  0.00743319  1
  O  O322  1  0.50922988  0.61701411  0.50441544  1
  O  O323  1  0.50085885  0.38746018  0.49871083  1
  O  O324  1  0.49664228  0.37534500  0.98661283  1
  O  O325  1  0.50484272  0.87974192  0.48834538  1
  O  O326  1  0.49234032  0.87727126  0.99122309  1
  O  O327  1  0.99222903  0.38580997  0.49877571  1
  O  O328  1  0.99211888  0.37950514  0.99601579  1
  O  O329  1  0.98369915  0.87406323  0.51132238  1
  O  O330  1  1.00443870  0.89321585  0.99615533  1
  O  O331  1  0.50915279  0.49933152  0.39400924  1
  O  O332  1  0.49500222  0.49244659  0.87112671  1
  O  O333  1  0.49195216  0.99386241  0.37508320  1
  O  O334  1  0.48928597  0.99311105  0.87634415  1
  O  O335  1  0.99293054  0.50219931  0.38627314  1
  O  O336  1  0.99131513  0.49427826  0.88524522  1
  O  O337  1  0.99674982  1.00159643  0.38133503  1
  O  O338  1  0.98848353  0.99693391  0.88064242  1
  O  O339  1  0.00344192  -0.00201008  0.11559510  1
  O  O340  1  0.00715325  0.01144608  0.62251170  1
  O  O341  1  0.00038430  0.50164709  0.11265955  1
  O  O342  1  -0.00268920  0.50572986  0.61333904  1
  O  O343  1  0.48430403  0.00912898  0.13501007  1
  O  O344  1  0.51283814  -0.01023123  0.62681305  1
  O  O345  1  0.50774496  0.51152666  0.12252456  1
  O  O346  1  0.50921787  0.49964871  0.61600552  1
  O  O347  1  0.23784873  0.36879797  0.23795591  1
  O  O348  1  0.24663726  0.38256396  0.74030905  1
  O  O349  1  0.24488707  0.88968818  0.25281633  1
  O  O350  1  0.23752424  0.87034718  0.73994375  1
  O  O351  1  0.74387950  0.38613668  0.25022265  1
  O  O352  1  0.74014614  0.36806339  0.75754604  1
  O  O353  1  0.74300500  0.87922546  0.24423258  1
  O  O354  1  0.75274441  0.88534435  0.74321344  1
  O  O355  1  0.24399849  0.11236639  0.25874672  1
  O  O356  1  0.26159322  0.13303261  0.75821986  1
  O  O357  1  0.26043437  0.62720363  0.25960610  1
  O  O358  1  0.24884334  0.61121056  0.75008211  1
  O  O359  1  0.74276258  0.11240254  0.25939189  1
  O  O360  1  0.75378593  0.11656401  0.75767143  1
  O  O361  1  0.74989124  0.61359255  0.25235455  1
  O  O362  1  0.76369392  0.62795018  0.75987158  1
  O  O363  1  0.36354984  0.12019762  0.37580166  1
  O  O364  1  0.36845530  0.11910929  0.86816907  1
  O  O365  1  0.36434276  0.62802249  0.36442844  1
  O  O366  1  0.37702818  0.61157238  0.87929826  1
  O  O367  1  0.86230707  0.12416694  0.38189056  1
  O  O368  1  0.86150475  0.11481300  0.87294683  1
  O  O369  1  0.87124332  0.61396586  0.37569668  1
  O  O370  1  0.87143952  0.61860389  0.86982895  1
  O  O371  1  0.13124269  0.37802728  0.13195119  1
  O  O372  1  0.13757199  0.36747564  0.62803371  1
  O  O373  1  0.12286718  0.88598831  0.13794387  1
  O  O374  1  0.13294536  0.88284749  0.62888428  1
  O  O375  1  0.62726983  0.38082218  0.13332229  1
  O  O376  1  0.62678598  0.38633123  0.63285080  1
  O  O377  1  0.63658701  0.86360158  0.13358992  1
  O  O378  1  0.63789626  0.88166393  0.62034271  1
  O  O379  1  0.11525098  0.25632360  0.25482710  1
  O  O380  1  0.11114469  0.24934044  0.75005236  1
  O  O381  1  0.12033583  0.75865141  0.25403740  1
  O  O382  1  0.12205236  0.75683594  0.75527503  1
  O  O383  1  0.61974396  0.25845162  0.24960241  1
  O  O384  1  0.61914565  0.25519746  0.75422739  1
  O  O385  1  0.62475222  0.75667727  0.26127856  1
  O  O386  1  0.61759727  0.74742915  0.76311644  1
  O  O387  1  0.38150540  0.24982045  0.23512180  1
  O  O388  1  0.38325588  0.24488006  0.74146905  1
  O  O389  1  0.37681098  0.73983252  0.24644763  1
  O  O390  1  0.38160298  0.75359501  0.74277659  1
  O  O391  1  0.88467647  0.25430601  0.24016660  1
  O  O392  1  0.88426160  0.24096918  0.74796987  1
  O  O393  1  0.88222158  0.74995484  0.24975817  1
  O  O394  1  0.88218863  0.74260938  0.74506921  1
  O  O395  1  0.39013689  0.50163429  0.50720381  1
  O  O396  1  0.37737854  0.49170692  0.98870301  1
  O  O397  1  0.37645231  1.00562886  0.48802038  1
  O  O398  1  0.37775714  0.99369974  0.99350222  1
  O  O399  1  0.87743448  0.49469261  0.49429100  1
  O  O400  1  0.88172886  0.49342136  0.99553954  1
  O  O401  1  0.87336511  0.98487162  0.50388240  1
  O  O402  1  0.88338346  1.00224826  0.99432502  1
  O  O403  1  0.11692318  0.00295644  0.00863347  1
  O  O404  1  0.12509009  0.00701270  0.51033036  1
  O  O405  1  0.11856843  0.50882842  -0.00107164  1
  O  O406  1  0.10982054  0.49739440  0.49693764  1
  O  O407  1  0.61607481  0.01629720  0.00075613  1
  O  O408  1  0.62583230  0.00791628  0.50936844  1
  O  O409  1  0.62461440  0.51099344  0.00377402  1
  O  O410  1  0.62113271  0.50477714  0.51038161  1
  O  O411  1  0.36845755  0.37003270  0.11893872  1
  O  O412  1  0.36555304  0.36618816  0.62128885  1
  O  O413  1  0.37746713  0.86915245  0.11050062  1
  O  O414  1  0.36390447  0.86818929  0.62984238  1
  O  O415  1  0.87527559  0.36908413  0.11698578  1
  O  O416  1  0.87621734  0.37447205  0.61331060  1
  O  O417  1  0.86193865  0.86300086  0.12499331  1
  O  O418  1  0.86424592  0.86969513  0.62074898  1
  O  O419  1  0.13357581  0.13017255  0.38100231  1
  O  O420  1  0.13873751  0.11891415  0.87241498  1
  O  O421  1  0.14087894  0.63844287  0.36638929  1
  O  O422  1  0.12503493  0.63290423  0.88518028  1
  O  O423  1  0.63564253  0.13098447  0.38307921  1
  O  O424  1  0.63373878  0.12951352  0.87750457  1
  O  O425  1  0.62493909  0.63355060  0.38449856  1
  O  O426  1  0.63434686  0.62857968  0.87943703  1
