# generated using pymatgen
data_V85Zn86O256
_symmetry_space_group_name_H-M   'P 1'
_cell_length_a   16.93763885
_cell_length_b   16.94867789
_cell_length_c   16.93003728
_cell_angle_alpha   89.96633616
_cell_angle_beta   90.01677932
_cell_angle_gamma   89.98969276
_symmetry_Int_Tables_number   1
_chemical_formula_structural   V85Zn86O256
_chemical_formula_sum   'V85 Zn86 O256'
_cell_volume   4860.11458388
_cell_formula_units_Z   1
loop_
 _symmetry_equiv_pos_site_id
 _symmetry_equiv_pos_as_xyz
  1  'x, y, z'
loop_
 _atom_site_type_symbol
 _atom_site_label
 _atom_site_symmetry_multiplicity
 _atom_site_fract_x
 _atom_site_fract_y
 _atom_site_fract_z
 _atom_site_occupancy
  V  V0  1  0.00406434  0.25586816  0.75018409  1
  V  V1  1  0.62005314  0.01235975  0.62757980  1
  V  V2  1  0.12981368  0.12489068  -0.00050564  1
  V  V3  1  0.37918082  0.11314473  0.25026997  1
  V  V4  1  0.63284932  0.63071394  -0.00222001  1
  V  V5  1  -0.00267888  0.74706436  0.25093711  1
  V  V6  1  0.49396008  0.63002924  0.62267984  1
  V  V7  1  0.49497871  0.24119047  0.74838455  1
  V  V8  1  0.62710938  0.24674094  0.88122646  1
  V  V9  1  0.65728425  0.84206120  0.70513436  1
  V  V10  1  0.62550178  0.50022974  0.12453796  1
  V  V11  1  0.50048813  0.37470389  0.37331600  1
  V  V12  1  0.24710611  0.61984535  0.87390220  1
  V  V13  1  0.75004313  0.50033626  0.25148337  1
  V  V14  1  0.62558092  0.63025659  0.49808162  1
  V  V15  1  0.62346982  0.76025783  0.37618286  1
  V  V16  1  0.37411561  0.01019355  0.87067752  1
  V  V17  1  0.25200863  0.11567454  0.37128201  1
  V  V18  1  0.25470484  0.49803001  0.25289487  1
  V  V19  1  0.87805960  0.50039283  0.89476658  1
  V  V20  1  0.12297862  0.36139045  0.25324768  1
  V  V21  1  0.62894380  0.36516665  0.25444616  1
  V  V22  1  0.88210497  0.25212768  0.12293800  1
  V  V23  1  0.87503053  0.62832572  0.25264001  1
  V  V24  1  0.37868149  0.24678062  0.12497429  1
  V  V25  1  0.36732088  0.62522725  0.74580481  1
  V  V26  1  0.13913670  -0.00598189  0.12720181  1
  V  V27  1  -0.00035112  0.49806423  0.49637736  1
  V  V28  1  0.50065997  0.37643990  0.87483051  1
  V  V29  1  0.86812212  0.75030842  0.12314420  1
  V  V30  1  0.37320915  0.37987858  0.49246584  1
  V  V31  1  -0.01090949  0.74425685  0.74796289  1
  V  V32  1  0.24854053  0.74884436  0.00250721  1
  V  V33  1  0.12091550  0.49869299  0.12175056  1
  V  V34  1  0.51390316  0.00382211  0.00029782  1
  V  V35  1  0.37280474  0.49980124  0.86949236  1
  V  V36  1  -0.00181948  0.62109296  0.11748410  1
  V  V37  1  0.37299648  0.75838528  0.12523268  1
  V  V38  1  0.86996170  0.24873117  0.62557199  1
  V  V39  1  0.50038610  0.50133765  -0.00193000  1
  V  V40  1  0.24813360  0.25047140  0.49019322  1
  V  V41  1  0.49132674  0.75405548  0.74780894  1
  V  V42  1  0.49784862  0.62621005  0.12353610  1
  V  V43  1  0.75054888  0.62961990  0.37896765  1
  V  V44  1  0.75130950  -0.00208621  0.25576827  1
  V  V45  1  0.87672407  0.12960991  0.75281876  1
  V  V46  1  0.25938463  0.61914206  0.37742446  1
  V  V47  1  0.12428408  0.12689564  0.49209743  1
  V  V48  1  0.50044128  0.87594597  0.87012938  1
  V  V49  1  0.00342281  0.87251583  0.87465814  1
  V  V50  1  0.12448940  0.62355201  0.50083197  1
  V  V51  1  0.62068613  0.49848889  0.62306992  1
  V  V52  1  0.25027106  0.37590262  0.63171914  1
  V  V53  1  0.87410694  0.37296662  0.49684807  1
  V  V54  1  0.51645463  0.12050585  0.11883379  1
  V  V55  1  -0.00085923  -0.00381681  0.50334615  1
  V  V56  1  0.12320017  0.74870076  0.37779001  1
  V  V57  1  0.25190272  0.37353889  0.12427576  1
  V  V58  1  0.74994045  0.12337343  0.88154311  1
  V  V59  1  0.63286011  0.75204876  0.87649054  1
  V  V60  1  0.86898006  0.86918981  -0.00395812  1
  V  V61  1  0.00291653  -0.00211326  0.00399874  1
  V  V62  1  0.50088155  0.75332915  0.25245563  1
  V  V63  1  0.76154158  -0.01076527  0.73434850  1
  V  V64  1  -0.00726319  0.87470702  0.37862393  1
  V  V65  1  0.24846923  0.00750538  0.74173334  1
  V  V66  1  0.62455196  0.37548258  0.75030022  1
  V  V67  1  0.00764697  0.12124349  0.62621751  1
  V  V68  1  0.75595922  0.37546953  0.11506120  1
  V  V69  1  0.74748582  0.24557330  0.48103578  1
  V  V70  1  0.12732332  0.50018663  0.63213015  1
  V  V71  1  0.74494437  0.88116522  0.12169801  1
  V  V72  1  0.26333716  0.86834805  0.62489966  1
  V  V73  1  0.00412411  0.35868493  0.37297761  1
  V  V74  1  0.00377621  0.12445858  0.13558086  1
  V  V75  1  0.87796274  0.00273946  0.87747178  1
  V  V76  1  0.12341452  0.87470896  0.73905153  1
  V  V77  1  0.37069325  0.87800481  -0.00054593  1
  V  V78  1  -0.00253018  0.37611025  0.89052584  1
  V  V79  1  0.62039963  0.13112955  0.48431346  1
  V  V80  1  -0.01632023  0.62684534  0.62699128  1
  V  V81  1  0.76195333  0.50145211  0.74941450  1
  V  V82  1  0.12860136  0.87205752  0.24581139  1
  V  V83  1  0.87343693  0.12458153  0.25524465  1
  V  V84  1  0.62144462  0.88421592  0.24339541  1
  Zn  Zn85  1  0.49398270  -0.00333062  0.48486974  1
  Zn  Zn86  1  0.12773842  0.25256923  0.87694138  1
  Zn  Zn87  1  0.12448832  0.74655411  0.87527000  1
  Zn  Zn88  1  0.87687648  0.50049867  0.37475596  1
  Zn  Zn89  1  0.12734484  0.38051379  0.75533695  1
  Zn  Zn90  1  0.76245828  0.63493723  0.87261026  1
  Zn  Zn91  1  0.25064804  0.12930391  0.86980774  1
  Zn  Zn92  1  0.37920940  0.61921100  0.25334035  1
  Zn  Zn93  1  0.74729405  0.37204155  0.62226838  1
  Zn  Zn94  1  0.36947756  0.24714391  0.62610696  1
  Zn  Zn95  1  0.50449657  0.24798752  0.25063773  1
  Zn  Zn96  1  0.25236662  0.24860307  -0.00228356  1
  Zn  Zn97  1  0.25552754  0.74705743  0.50897630  1
  Zn  Zn98  1  0.48746256  0.12520605  0.62044793  1
  Zn  Zn99  1  0.26674084  -0.02276707  0.25773523  1
  Zn  Zn100  1  0.38089196  0.87609106  0.47713012  1
  Zn  Zn101  1  0.37551394  0.37450007  0.00001177  1
  Zn  Zn102  1  0.49348173  0.50451958  0.48827337  1
  Zn  Zn103  1  0.80748599  0.82806965  0.58585638  1
  Zn  Zn104  1  0.75435187  0.24796810  -0.00054265  1
  Zn  Zn105  1  0.12166883  0.62156047  -0.00231503  1
  Zn  Zn106  1  0.86919927  -0.00160924  0.38089500  1
  Zn  Zn107  1  0.19295652  0.18376371  0.18772531  1
  Zn  Zn108  1  0.18737345  0.19038271  0.68219321  1
  Zn  Zn109  1  0.18760374  0.68473357  0.18828451  1
  Zn  Zn110  1  0.18052786  0.68931089  0.68976723  1
  Zn  Zn111  1  0.69583334  0.18775791  0.18631243  1
  Zn  Zn112  1  0.68677438  0.18362390  0.69169744  1
  Zn  Zn113  1  0.68778216  0.69182242  0.18855338  1
  Zn  Zn114  1  0.68574271  0.67446213  0.69042474  1
  Zn  Zn115  1  0.31576359  0.30788265  0.31123957  1
  Zn  Zn116  1  0.31185784  0.31250278  0.81465402  1
  Zn  Zn117  1  0.30858881  0.79949073  0.31175153  1
  Zn  Zn118  1  0.31060905  0.81290812  0.81359025  1
  Zn  Zn119  1  0.82070795  0.31389768  0.30559893  1
  Zn  Zn120  1  0.81412771  0.31701521  0.81489286  1
  Zn  Zn121  1  0.80890966  0.81326015  0.42440000  1
  Zn  Zn122  1  0.81806593  0.82457363  0.78757180  1
  Zn  Zn123  1  0.18548559  0.43595302  0.43746904  1
  Zn  Zn124  1  0.18604647  0.43781122  0.93967282  1
  Zn  Zn125  1  0.18460946  0.93876664  0.44235014  1
  Zn  Zn126  1  0.18896393  0.93878704  0.93391368  1
  Zn  Zn127  1  0.68570429  0.43822053  0.43727403  1
  Zn  Zn128  1  0.68851771  0.44056037  0.93538515  1
  Zn  Zn129  1  0.67923890  0.94114326  0.44330003  1
  Zn  Zn130  1  0.69106495  0.93530421  0.92660171  1
  Zn  Zn131  1  0.31783922  0.06018210  0.06423794  1
  Zn  Zn132  1  0.31958920  0.06210743  0.56071078  1
  Zn  Zn133  1  0.31268720  0.56149815  0.06094106  1
  Zn  Zn134  1  0.31114941  0.55942258  0.56293205  1
  Zn  Zn135  1  0.81562679  0.06165448  0.06488532  1
  Zn  Zn136  1  0.81369752  0.06521963  0.55793702  1
  Zn  Zn137  1  0.81024943  0.56546371  0.06314195  1
  Zn  Zn138  1  0.80836362  0.55945109  0.56037361  1
  Zn  Zn139  1  0.43838169  0.43624848  0.18960904  1
  Zn  Zn140  1  0.43583849  0.43666978  0.68537848  1
  Zn  Zn141  1  0.44636066  0.93526795  0.32315641  1
  Zn  Zn142  1  0.43669457  0.94359277  0.68467023  1
  Zn  Zn143  1  0.93842347  0.43649969  0.18999094  1
  Zn  Zn144  1  0.94095195  0.43398485  0.68353581  1
  Zn  Zn145  1  0.93873577  0.93604522  0.18910128  1
  Zn  Zn146  1  0.93837457  0.93918726  0.68722541  1
  Zn  Zn147  1  0.06708164  0.05881743  0.31514514  1
  Zn  Zn148  1  0.06641052  0.06144934  0.81219666  1
  Zn  Zn149  1  0.06631177  0.55751530  0.30965065  1
  Zn  Zn150  1  0.05663862  0.56126381  0.81367522  1
  Zn  Zn151  1  0.57197269  0.07127569  0.30338535  1
  Zn  Zn152  1  0.56849550  0.06054824  0.81286315  1
  Zn  Zn153  1  0.56264525  0.56019547  0.31277597  1
  Zn  Zn154  1  0.56221559  0.56543198  0.81011099  1
  Zn  Zn155  1  0.43564886  0.19288248  0.43248624  1
  Zn  Zn156  1  0.43993207  0.18891199  0.93974330  1
  Zn  Zn157  1  0.43595825  0.69666101  0.44053935  1
  Zn  Zn158  1  0.43790903  0.68795648  0.93542858  1
  Zn  Zn159  1  0.93470489  0.18283092  0.43894957  1
  Zn  Zn160  1  0.94273977  0.18879497  0.94298097  1
  Zn  Zn161  1  0.93127429  0.69221580  0.45148673  1
  Zn  Zn162  1  0.93617034  0.68810936  0.93604564  1
  Zn  Zn163  1  0.06557177  0.30761952  0.06751331  1
  Zn  Zn164  1  0.06472128  0.31045994  0.56179314  1
  Zn  Zn165  1  0.06058005  0.80901611  0.06206239  1
  Zn  Zn166  1  0.05852643  0.80913226  0.56289927  1
  Zn  Zn167  1  0.56449516  0.31322814  0.06360006  1
  Zn  Zn168  1  0.56092824  0.31136638  0.55960221  1
  Zn  Zn169  1  0.55905474  0.81523299  0.05966938  1
  Zn  Zn170  1  0.54837233  0.81436348  0.55393242  1
  O  O171  1  0.12111601  0.11460793  0.12291211  1
  O  O172  1  0.11172827  0.12911756  0.61796833  1
  O  O173  1  0.11493331  0.61700004  0.12684527  1
  O  O174  1  0.12227329  0.61850753  0.61415162  1
  O  O175  1  0.61503149  0.13210569  0.12392637  1
  O  O176  1  0.62061044  0.12265625  0.61818921  1
  O  O177  1  0.61780884  0.62343070  0.11746215  1
  O  O178  1  0.61701350  0.61851687  0.61681440  1
  O  O179  1  0.38136794  0.37344681  0.38134836  1
  O  O180  1  0.38026786  0.38478177  0.87606233  1
  O  O181  1  0.35648263  0.88407339  0.36167263  1
  O  O182  1  0.38435218  0.88074911  0.87952216  1
  O  O183  1  0.88481759  0.37830440  0.37834063  1
  O  O184  1  0.88765054  0.38457382  0.87450966  1
  O  O185  1  0.89066818  0.87477257  0.36667133  1
  O  O186  1  0.88453220  0.87947579  0.87791892  1
  O  O187  1  0.24147278  0.01171678  0.37104267  1
  O  O188  1  0.25837626  0.00132900  0.86466206  1
  O  O189  1  0.24122254  0.50817224  0.36619619  1
  O  O190  1  0.25775552  0.51036691  0.87915302  1
  O  O191  1  0.75025910  -0.00559774  0.35962474  1
  O  O192  1  0.75986407  0.00726235  0.86564242  1
  O  O193  1  0.74989190  0.51013884  0.36758217  1
  O  O194  1  0.76617078  0.49547784  0.86775155  1
  O  O195  1  0.24502495  0.49312495  0.13089119  1
  O  O196  1  0.23880373  0.48885592  0.61822968  1
  O  O197  1  0.24139215  0.99907025  0.13032675  1
  O  O198  1  0.25108799  0.98837064  0.63871544  1
  O  O199  1  0.74675159  0.49529635  0.13196648  1
  O  O200  1  0.73851010  0.49791467  0.63351689  1
  O  O201  1  0.75730811  0.98563322  0.12873998  1
  O  O202  1  0.74249577  1.01188460  0.63239448  1
  O  O203  1  0.01035485  0.38040401  0.26177910  1
  O  O204  1  0.00286931  0.36810480  0.75595306  1
  O  O205  1  0.00818731  0.86627606  0.25747046  1
  O  O206  1  0.00507878  0.86907196  0.75630332  1
  O  O207  1  0.51243743  0.37468297  0.25237402  1
  O  O208  1  0.51056461  0.37145650  0.75485732  1
  O  O209  1  0.50945472  0.86433131  0.24718040  1
  O  O210  1  0.50053764  0.86777309  0.75505818  1
  O  O211  1  0.49720983  0.12889620  0.23480715  1
  O  O212  1  0.50571746  0.14023060  0.75298223  1
  O  O213  1  0.50124562  0.62919283  0.23886795  1
  O  O214  1  0.49028074  0.63217492  0.74288761  1
  O  O215  1  0.99579604  0.11532921  0.24005744  1
  O  O216  1  0.99726948  0.13191683  0.74477732  1
  O  O217  1  0.99437780  0.62785572  0.24434197  1
  O  O218  1  1.00666608  0.63234425  0.73859611  1
  O  O219  1  0.37426221  0.25233716  0.01090898  1
  O  O220  1  0.36580605  0.26176949  0.50098641  1
  O  O221  1  0.36970949  0.75512932  0.00322698  1
  O  O222  1  0.36578814  0.76211973  0.49332185  1
  O  O223  1  0.87410983  0.24431245  0.01649033  1
  O  O224  1  0.86323355  0.25030589  0.50612181  1
  O  O225  1  0.87813427  0.75826110  0.00782806  1
  O  O226  1  0.86831641  0.76217210  0.50900734  1
  O  O227  1  0.13195457  0.23743671  0.50300643  1
  O  O228  1  0.12907980  0.23833508  1.00107932  1
  O  O229  1  0.12721247  0.74045977  0.49394316  1
  O  O230  1  0.13501509  0.74720841  0.99822049  1
  O  O231  1  0.63901167  0.24315303  0.50425596  1
  O  O232  1  0.62895884  0.25686297  0.98443053  1
  O  O233  1  0.61824694  0.73818663  0.49055998  1
  O  O234  1  0.61773489  0.74170662  0.98967805  1
  O  O235  1  0.49516331  0.24169882  0.12290767  1
  O  O236  1  0.50332899  0.25163195  0.64106886  1
  O  O237  1  0.49433768  0.74364478  0.13142038  1
  O  O238  1  0.50466012  0.73821379  0.63234161  1
  O  O239  1  0.99529012  0.23771446  0.12525585  1
  O  O240  1  0.99074083  0.24562977  0.63123195  1
  O  O241  1  0.99056087  0.74225703  0.13049436  1
  O  O242  1  1.00231594  0.73848301  0.63372245  1
  O  O243  1  -0.00281999  0.25991093  0.38096707  1
  O  O244  1  -0.00012954  0.26200780  0.86907181  1
  O  O245  1  0.00847330  0.75225010  0.37390095  1
  O  O246  1  0.00249232  0.75677749  0.86995627  1
  O  O247  1  0.49832907  0.26668655  0.36759673  1
  O  O248  1  0.50726164  0.25558990  0.86736006  1
  O  O249  1  0.50973854  0.73812588  0.35945026  1
  O  O250  1  0.50362568  0.75676671  0.86634736  1
  O  O251  1  0.24342379  0.12979791  0.49197896  1
  O  O252  1  0.23882395  0.12076747  1.00171895  1
  O  O253  1  0.24146754  0.62366653  0.49453657  1
  O  O254  1  0.24978417  0.63124842  0.99107271  1
  O  O255  1  0.74229686  0.13968361  0.50110645  1
  O  O256  1  0.75627134  0.12240019  0.98579664  1
  O  O257  1  0.73851010  0.61953545  0.49130112  1
  O  O258  1  0.73727557  0.62287842  0.99421025  1
  O  O259  1  0.25194982  0.37548143  0.01391105  1
  O  O260  1  0.25405176  0.36808915  0.50230455  1
  O  O261  1  0.26246232  0.86605922  -0.00939372  1
  O  O262  1  0.24201097  0.87689340  0.52042811  1
  O  O263  1  0.74730922  0.37696236  0.01258952  1
  O  O264  1  0.75301997  0.36289995  0.50060731  1
  O  O265  1  0.76269727  0.88000323  0.00130236  1
  O  O266  1  0.75543938  0.88095512  0.49729644  1
  O  O267  1  0.13606070  0.49203751  0.24025946  1
  O  O268  1  0.11936185  0.50062539  0.73559973  1
  O  O269  1  0.12648579  0.98749609  0.24277365  1
  O  O270  1  0.13868750  0.98871925  0.75699757  1
  O  O271  1  0.63675534  0.49712096  0.24291806  1
  O  O272  1  0.62929489  0.49269463  0.74446337  1
  O  O273  1  0.63307495  0.98994399  0.24576460  1
  O  O274  1  0.63618177  1.00643442  0.73510383  1
  O  O275  1  0.37812650  0.01110588  0.24309136  1
  O  O276  1  0.35977695  -0.00586298  0.75793661  1
  O  O277  1  0.35992839  0.50154016  0.24326847  1
  O  O278  1  0.38028405  0.50911499  0.76113633  1
  O  O279  1  0.86845885  0.00480236  0.25059862  1
  O  O280  1  0.87469235  0.01310330  0.75918607  1
  O  O281  1  0.86345651  0.50702720  0.25138588  1
  O  O282  1  0.86312923  0.49163750  0.74748855  1
  O  O283  1  0.11667321  0.37683618  0.36615624  1
  O  O284  1  0.11228484  0.37737700  0.87406791  1
  O  O285  1  0.11936657  0.86465820  0.36986011  1
  O  O286  1  0.11283065  0.87468634  0.87047548  1
  O  O287  1  0.61998669  0.37957660  0.36365730  1
  O  O288  1  0.62165827  0.37151988  0.86709361  1
  O  O289  1  0.63219821  0.86299457  0.36345401  1
  O  O290  1  0.60747146  0.86546405  0.88552245  1
  O  O291  1  0.38225845  0.13129628  0.12985262  1
  O  O292  1  0.37405485  0.13429761  0.62633662  1
  O  O293  1  0.38811097  0.63109508  0.12077698  1
  O  O294  1  0.38176028  0.61868079  0.63323869  1
  O  O295  1  0.88631508  0.12779314  0.13177615  1
  O  O296  1  0.88485049  0.13317780  0.63022526  1
  O  O297  1  0.87889028  0.63091442  0.12922689  1
  O  O298  1  0.88455903  0.61816752  0.62185877  1
  O  O299  1  0.25919301  0.25734463  0.12328193  1
  O  O300  1  0.24683577  0.26033236  0.61232737  1
  O  O301  1  0.25901098  0.73921405  0.11237498  1
  O  O302  1  0.24346805  0.76462162  0.62849878  1
  O  O303  1  0.75821864  0.25929654  0.12019716  1
  O  O304  1  0.76212674  0.25005483  0.62886199  1
  O  O305  1  0.76240298  0.75905275  0.12858747  1
  O  O306  1  0.72690744  0.77370525  0.65741037  1
  O  O307  1  0.25191433  0.24250504  0.38523307  1
  O  O308  1  0.24691842  0.24675504  0.87871022  1
  O  O309  1  0.23362084  0.73516184  0.37308271  1
  O  O310  1  0.25080850  0.73842010  0.88432198  1
  O  O311  1  0.75601335  0.25289093  0.38353968  1
  O  O312  1  0.74586979  0.24351425  0.87507201  1
  O  O313  1  0.73874965  0.73609165  0.36946812  1
  O  O314  1  0.73522018  0.75157492  0.86241245  1
  O  O315  1  0.01247889  0.11820041  0.01005712  1
  O  O316  1  0.00632996  0.12232496  0.50684094  1
  O  O317  1  0.00109921  0.62941211  0.01386804  1
  O  O318  1  0.00558263  0.61781122  0.50616363  1
  O  O319  1  0.50008552  0.11839427  0.00808795  1
  O  O320  1  0.51353789  0.13578765  0.49922668  1
  O  O321  1  0.50810467  0.62087432  0.00520430  1
  O  O322  1  0.50355613  0.62319979  0.50657204  1
  O  O323  1  0.49268367  0.37558302  0.49175180  1
  O  O324  1  0.50047985  0.38351734  0.99310587  1
  O  O325  1  0.49962821  0.87902155  0.48142143  1
  O  O326  1  0.48790918  0.88204169  0.99377459  1
  O  O327  1  0.99649134  0.38063339  0.49406717  1
  O  O328  1  1.00269727  0.36925341  0.98902494  1
  O  O329  1  1.00794468  0.88420996  0.49260538  1
  O  O330  1  0.99159261  0.87648679  0.99206201  1
  O  O331  1  0.50175389  0.48553900  0.37274284  1
  O  O332  1  0.49453656  0.49672708  0.87789235  1
  O  O333  1  0.51070251  1.00986387  0.37162349  1
  O  O334  1  0.49396129  0.99411074  0.87506095  1
  O  O335  1  1.00085718  0.49796883  0.38756340  1
  O  O336  1  0.98785061  0.48912826  0.87418226  1
  O  O337  1  1.00068608  0.98925053  0.38250849  1
  O  O338  1  0.99665093  0.99259297  0.88110976  1
  O  O339  1  0.00694910  0.00530182  0.11987936  1
  O  O340  1  -0.00358826  0.00898427  0.61913525  1
  O  O341  1  0.00759785  0.50884459  0.13269825  1
  O  O342  1  0.00576708  0.50454559  0.61382711  1
  O  O343  1  0.50260326  0.01731670  0.11275387  1
  O  O344  1  0.51024086  0.00865029  0.62711155  1
  O  O345  1  0.50485773  0.50765674  0.12018287  1
  O  O346  1  0.50954312  0.50976166  0.62688925  1
  O  O347  1  0.24586100  0.37863406  0.24208166  1
  O  O348  1  0.24688432  0.36967990  0.73620848  1
  O  O349  1  0.23265981  0.86482481  0.24668558  1
  O  O350  1  0.24215534  0.87844090  0.74333914  1
  O  O351  1  0.74615965  0.38369850  0.24506218  1
  O  O352  1  0.73932230  0.38285462  0.74888658  1
  O  O353  1  0.73936360  0.88285186  0.23602786  1
  O  O354  1  0.72060048  0.89053270  0.77862152  1
  O  O355  1  0.26106275  0.12234649  0.25627896  1
  O  O356  1  0.24021133  0.11091142  0.74879208  1
  O  O357  1  0.25016750  0.61553007  0.25876457  1
  O  O358  1  0.26004562  0.63136607  0.75584703  1
  O  O359  1  0.76088809  0.11056218  0.23880015  1
  O  O360  1  0.76038136  0.11718149  0.75781065  1
  O  O361  1  0.75378266  0.61888281  0.25541445  1
  O  O362  1  0.74372927  0.60583951  0.75822568  1
  O  O363  1  0.36647269  0.13157351  0.36196335  1
  O  O364  1  0.37441714  0.11321745  0.87915828  1
  O  O365  1  0.36221298  0.62639918  0.37526170  1
  O  O366  1  0.36936000  0.61876835  0.86715128  1
  O  O367  1  0.88051508  0.12187950  0.35902774  1
  O  O368  1  0.87378590  0.12366381  0.87181804  1
  O  O369  1  0.86674888  0.62519252  0.37265857  1
  O  O370  1  0.87706231  0.60674067  0.87976183  1
  O  O371  1  0.13143066  0.38031190  0.13160401  1
  O  O372  1  0.13091811  0.38383102  0.62427766  1
  O  O373  1  0.11523281  0.88292130  0.13260106  1
  O  O374  1  0.12322784  0.87417936  0.63725793  1
  O  O375  1  0.63377836  0.38247630  0.13181751  1
  O  O376  1  0.62452101  0.38276782  0.63073629  1
  O  O377  1  0.63415413  0.86676891  0.12972229  1
  O  O378  1  0.61503345  0.89056390  0.62257560  1
  O  O379  1  0.12934196  0.26250109  0.24275469  1
  O  O380  1  0.11263843  0.25158234  0.75065060  1
  O  O381  1  0.11664066  0.75085213  0.25632227  1
  O  O382  1  0.11610793  0.75958589  0.75592682  1
  O  O383  1  0.62946998  0.26247972  0.24502080  1
  O  O384  1  0.62018677  0.25855302  0.75876543  1
  O  O385  1  0.61817687  0.75722006  0.25441113  1
  O  O386  1  0.61044602  0.75108242  0.75564793  1
  O  O387  1  0.37852510  0.24281816  0.23662912  1
  O  O388  1  0.39309012  0.25852259  0.75163989  1
  O  O389  1  0.38238097  0.74237774  0.24051923  1
  O  O390  1  0.38440476  0.74134110  0.75592102  1
  O  O391  1  0.86909837  0.23707315  0.23631691  1
  O  O392  1  0.88436347  0.24943824  0.74467283  1
  O  O393  1  0.88245358  0.74111247  0.23964000  1
  O  O394  1  0.88947274  0.74217425  0.75802838  1
  O  O395  1  0.37626980  0.48491361  0.50424847  1
  O  O396  1  0.38279448  0.50105682  0.98797223  1
  O  O397  1  0.38070091  0.98838235  0.50663025  1
  O  O398  1  0.38004834  0.99207208  0.99156516  1
  O  O399  1  0.88156181  0.49118111  0.49860658  1
  O  O400  1  0.87248146  0.49691163  0.99313631  1
  O  O401  1  0.89143733  1.00967366  0.49607212  1
  O  O402  1  0.88379847  0.99202578  0.99588402  1
  O  O403  1  0.12239510  0.00150153  0.00836074  1
  O  O404  1  0.11234388  0.01460199  0.49733793  1
  O  O405  1  0.12908715  0.50222996  0.01700239  1
  O  O406  1  0.11691309  0.50562487  0.50652069  1
  O  O407  1  0.61246268  -0.00590776  -0.01077563  1
  O  O408  1  0.62406758  0.02011936  0.50756374  1
  O  O409  1  0.61991580  0.50798883  0.00413063  1
  O  O410  1  0.62133795  0.50860480  0.50803136  1
  O  O411  1  0.36866235  0.36768708  0.12484922  1
  O  O412  1  0.36592322  0.37193728  0.61853164  1
  O  O413  1  0.37646844  0.85953196  0.11366915  1
  O  O414  1  0.36266369  0.87008769  0.63332699  1
  O  O415  1  0.86823021  0.36560342  0.13369122  1
  O  O416  1  0.87427647  0.36503579  0.61546314  1
  O  O417  1  0.87153426  0.86743916  0.11582619  1
  O  O418  1  0.83663597  0.89058461  0.68207714  1
  O  O419  1  0.13402547  0.12690902  0.38050153  1
  O  O420  1  0.12525776  0.12648450  0.88649150  1
  O  O421  1  0.12605799  0.62780098  0.38626478  1
  O  O422  1  0.13294245  0.62241204  0.87667309  1
  O  O423  1  0.62937027  0.13248777  0.38590854  1
  O  O424  1  0.63750209  0.13454819  0.86865319  1
  O  O425  1  0.63011415  0.63045457  0.38072838  1
  O  O426  1  0.62307209  0.63468950  0.88177210  1
