# generated using pymatgen
data_V85Zn86O256
_symmetry_space_group_name_H-M   'P 1'
_cell_length_a   16.95080661
_cell_length_b   16.95910123
_cell_length_c   16.95554892
_cell_angle_alpha   90.05330080
_cell_angle_beta   89.91878025
_cell_angle_gamma   90.02259207
_symmetry_Int_Tables_number   1
_chemical_formula_structural   V85Zn86O256
_chemical_formula_sum   'V85 Zn86 O256'
_cell_volume   4874.21181481
_cell_formula_units_Z   1
loop_
 _symmetry_equiv_pos_site_id
 _symmetry_equiv_pos_as_xyz
  1  'x, y, z'
loop_
 _atom_site_type_symbol
 _atom_site_label
 _atom_site_symmetry_multiplicity
 _atom_site_fract_x
 _atom_site_fract_y
 _atom_site_fract_z
 _atom_site_occupancy
  V  V0  1  0.74659400  0.74158847  0.00926340  1
  V  V1  1  0.37886494  0.37575878  -0.00154622  1
  V  V2  1  0.62176492  0.36670894  0.73976305  1
  V  V3  1  0.62817481  0.24419405  0.38345767  1
  V  V4  1  0.74416998  0.74485555  0.50206259  1
  V  V5  1  0.11129197  0.25157323  0.87503588  1
  V  V6  1  -0.00649868  0.37334352  0.37514275  1
  V  V7  1  0.87658362  0.14092914  0.75157106  1
  V  V8  1  0.37599703  0.24832262  0.12369906  1
  V  V9  1  0.00444540  0.87325583  0.37451131  1
  V  V10  1  0.87663062  0.00431464  0.37620488  1
  V  V11  1  0.50744989  0.87628573  0.37276672  1
  V  V12  1  0.87652421  0.12216403  0.23829459  1
  V  V13  1  0.87007592  0.87187829  0.01093594  1
  V  V14  1  0.24819746  0.24869267  -0.00082660  1
  V  V15  1  0.74106444  0.25651176  0.01042558  1
  V  V16  1  0.62449358  -0.00907503  0.12919052  1
  V  V17  1  0.12765820  0.74705393  0.88363968  1
  V  V18  1  0.75586119  0.62655739  0.37366861  1
  V  V19  1  0.38203933  0.13407650  0.74999072  1
  V  V20  1  0.50940237  0.12717271  0.12170516  1
  V  V21  1  0.11867433  0.37309553  0.75362027  1
  V  V22  1  0.13709214  0.74360649  0.37328879  1
  V  V23  1  0.12796908  0.50463885  0.62545523  1
  V  V24  1  0.62275514  0.25032532  0.87823561  1
  V  V25  1  0.12465753  0.37388138  0.24868848  1
  V  V26  1  -0.00334493  0.13482957  0.63058672  1
  V  V27  1  0.50189687  0.62754120  0.12167737  1
  V  V28  1  0.50087201  0.50579969  0.49643393  1
  V  V29  1  0.50124552  0.75002711  0.75051187  1
  V  V30  1  0.87603260  0.87557014  0.50164350  1
  V  V31  1  -0.01717723  0.73685160  0.25098672  1
  V  V32  1  0.75207203  -0.00044882  0.75250056  1
  V  V33  1  0.63219636  0.37298902  0.24670927  1
  V  V34  1  0.50090620  0.25143551  0.24829079  1
  V  V35  1  0.00024084  0.24577842  0.24439084  1
  V  V36  1  0.37395696  0.74998292  0.62483242  1
  V  V37  1  0.62963369  0.49959502  0.61551564  1
  V  V38  1  0.37256235  0.63059669  0.24585243  1
  V  V39  1  -0.00261075  0.87747675  0.87750300  1
  V  V40  1  0.12512397  0.12637318  0.50453643  1
  V  V41  1  0.12629891  0.87650180  0.74934076  1
  V  V42  1  0.37499810  0.87614409  0.49736867  1
  V  V43  1  0.51184853  0.50292738  -0.00281650  1
  V  V44  1  0.86829664  0.62813394  0.75055915  1
  V  V45  1  0.25290827  0.50124392  0.75136603  1
  V  V46  1  0.37157089  0.36928527  0.49853278  1
  V  V47  1  -0.00049339  0.50058010  0.50170309  1
  V  V48  1  0.62106293  0.74307377  0.37744468  1
  V  V49  1  0.37351678  0.12535999  0.24912184  1
  V  V50  1  0.49983710  0.37717202  0.37289630  1
  V  V51  1  0.24972936  -0.00614692  0.24402730  1
  V  V52  1  0.62659785  0.00493497  0.62205686  1
  V  V53  1  0.74594671  0.12512029  0.88803334  1
  V  V54  1  0.50420545  0.00772758  0.50137502  1
  V  V55  1  0.50180568  0.75365488  0.24533070  1
  V  V56  1  0.25299140  0.37392963  0.12548535  1
  V  V57  1  0.74571387  -0.00557999  0.25294850  1
  V  V58  1  0.75316729  0.50346716  0.25253965  1
  V  V59  1  0.87374253  -0.00066608  0.87638293  1
  V  V60  1  0.62819296  0.49867688  0.12493528  1
  V  V61  1  0.00107264  0.74959616  0.74576171  1
  V  V62  1  0.50100402  0.87387832  0.87626055  1
  V  V63  1  0.12577041  0.86808860  0.23750966  1
  V  V64  1  0.36947498  0.50705619  0.37558609  1
  V  V65  1  0.62937622  0.74000724  0.87930682  1
  V  V66  1  0.50580233  0.62614988  0.62137114  1
  V  V67  1  0.25005713  0.62595118  0.88533017  1
  V  V68  1  0.37500542  -0.00102110  0.87683416  1
  V  V69  1  0.24939476  0.36872017  0.62239270  1
  V  V70  1  0.50491437  0.00305840  0.00052094  1
  V  V71  1  0.24805223  0.50375231  0.25344033  1
  V  V72  1  0.87484293  0.26887789  0.12048747  1
  V  V73  1  0.37921876  0.50025448  0.87555269  1
  V  V74  1  0.37457577  -0.00081733  0.37569985  1
  V  V75  1  0.11791460  0.00490449  0.12412588  1
  V  V76  1  0.12779317  0.25017583  0.37904226  1
  V  V77  1  0.25007653  0.12645117  0.38078898  1
  V  V78  1  0.37037507  0.86879715  0.01326516  1
  V  V79  1  0.75039127  0.87627775  0.62574278  1
  V  V80  1  -0.01787203  0.39234695  0.88369647  1
  V  V81  1  0.74867137  0.49972229  0.74560407  1
  V  V82  1  0.25072671  0.00101617  0.74920698  1
  V  V83  1  0.12222659  0.50334122  0.11238722  1
  V  V84  1  0.24714974  0.12646697  0.87725134  1
  Zn  Zn85  1  0.62638534  0.87487387  0.75195944  1
  Zn  Zn86  1  0.78415360  0.58314379  0.90593073  1
  Zn  Zn87  1  0.87439501  0.50284743  0.37927971  1
  Zn  Zn88  1  0.11368471  0.13260336  0.00731971  1
  Zn  Zn89  1  0.37811746  0.25188058  0.62411851  1
  Zn  Zn90  1  0.50651293  0.13583436  0.62516238  1
  Zn  Zn91  1  0.74453367  0.12243117  0.38318126  1
  Zn  Zn92  1  0.74767999  0.86852706  0.13259930  1
  Zn  Zn93  1  0.50372782  0.37242794  0.87159653  1
  Zn  Zn94  1  0.12449576  0.00187140  0.62579369  1
  Zn  Zn95  1  0.86730505  0.37357781  0.52192427  1
  Zn  Zn96  1  0.25195685  0.74597257  0.02046324  1
  Zn  Zn97  1  0.76775106  0.24704134  0.51914737  1
  Zn  Zn98  1  0.00245177  0.00032636  0.50491684  1
  Zn  Zn99  1  0.25466659  0.74528029  0.49312234  1
  Zn  Zn100  1  0.13457520  0.62191433  0.49283065  1
  Zn  Zn101  1  -0.01301155  0.63108604  0.09998384  1
  Zn  Zn102  1  0.00248877  0.62740632  0.62326601  1
  Zn  Zn103  1  0.87558325  0.75055148  0.62373198  1
  Zn  Zn104  1  0.37889271  0.62407559  0.75062892  1
  Zn  Zn105  1  -0.00684467  0.00565203  0.00841661  1
  Zn  Zn106  1  0.24973075  0.87542139  0.62224704  1
  Zn  Zn107  1  0.18847444  0.18483429  0.18929759  1
  Zn  Zn108  1  0.18791512  0.18949702  0.69025572  1
  Zn  Zn109  1  0.17549186  0.67872536  0.18883872  1
  Zn  Zn110  1  0.19121862  0.68674264  0.69102828  1
  Zn  Zn111  1  0.69044249  0.18231492  0.19275231  1
  Zn  Zn112  1  0.68767731  0.18291973  0.69262106  1
  Zn  Zn113  1  0.68262654  0.68432174  0.19019464  1
  Zn  Zn114  1  0.68388778  0.68863102  0.68581178  1
  Zn  Zn115  1  0.31209484  0.31425625  0.31380798  1
  Zn  Zn116  1  0.30845822  0.31510606  0.81483931  1
  Zn  Zn117  1  0.31095144  0.80926966  0.19358232  1
  Zn  Zn118  1  0.31434858  0.81254682  0.81400354  1
  Zn  Zn119  1  0.81117689  0.31160280  0.31480711  1
  Zn  Zn120  1  0.81405906  0.31878276  0.68749619  1
  Zn  Zn121  1  0.81032147  0.81595689  0.31794682  1
  Zn  Zn122  1  0.81261691  0.81058586  0.81480149  1
  Zn  Zn123  1  0.18639576  0.43699191  0.43828134  1
  Zn  Zn124  1  0.18862935  0.43502262  0.93640972  1
  Zn  Zn125  1  0.18887689  0.93601374  0.43516053  1
  Zn  Zn126  1  0.18686297  0.93487799  0.93890212  1
  Zn  Zn127  1  0.69059667  0.43034121  0.43887279  1
  Zn  Zn128  1  0.70610130  0.43174207  0.93035364  1
  Zn  Zn129  1  0.68744420  0.93623228  0.43854364  1
  Zn  Zn130  1  0.68595124  0.93462250  0.94135397  1
  Zn  Zn131  1  0.31197419  0.06082476  0.06259403  1
  Zn  Zn132  1  0.31271461  0.06344721  0.56496216  1
  Zn  Zn133  1  0.31449832  0.56066876  0.06493937  1
  Zn  Zn134  1  0.31250276  0.56501709  0.56167012  1
  Zn  Zn135  1  0.81185922  0.05809974  0.06470630  1
  Zn  Zn136  1  0.81267667  0.07005699  0.56345882  1
  Zn  Zn137  1  0.82232086  0.52602160  0.06036179  1
  Zn  Zn138  1  0.81742121  0.56433089  0.56438124  1
  Zn  Zn139  1  0.43972272  0.44008073  0.18697048  1
  Zn  Zn140  1  0.44105894  0.43556302  0.68568679  1
  Zn  Zn141  1  0.44153666  0.93989061  0.19001414  1
  Zn  Zn142  1  0.43828190  0.93907157  0.68752234  1
  Zn  Zn143  1  0.92979765  0.46243419  0.17716377  1
  Zn  Zn144  1  0.94282084  0.44886036  0.69974002  1
  Zn  Zn145  1  0.93908302  0.93228667  0.19178224  1
  Zn  Zn146  1  0.93972739  0.94327748  0.68633166  1
  Zn  Zn147  1  0.06217024  0.06213922  0.31131027  1
  Zn  Zn148  1  0.06043291  0.06518024  0.81662400  1
  Zn  Zn149  1  0.06228810  0.56161612  0.31181964  1
  Zn  Zn150  1  0.06173978  0.56491677  0.81719572  1
  Zn  Zn151  1  0.56147895  0.06374615  0.30996290  1
  Zn  Zn152  1  0.56581680  0.06202419  0.81284997  1
  Zn  Zn153  1  0.56427770  0.56569086  0.31146590  1
  Zn  Zn154  1  0.56937850  0.55963246  0.80844047  1
  Zn  Zn155  1  0.43998204  0.18939125  0.43731991  1
  Zn  Zn156  1  0.43832020  0.18645018  0.93694741  1
  Zn  Zn157  1  0.43361178  0.68738933  0.43493800  1
  Zn  Zn158  1  0.43700700  0.68692854  0.93857987  1
  Zn  Zn159  1  0.93781174  0.18706124  0.44023767  1
  Zn  Zn160  1  0.93451373  0.19070102  0.94232925  1
  Zn  Zn161  1  0.94012242  0.68814517  0.43826723  1
  Zn  Zn162  1  0.93444417  0.69267829  0.93350580  1
  Zn  Zn163  1  0.05809777  0.32220953  0.06100087  1
  Zn  Zn164  1  0.05541855  0.31341026  0.56360436  1
  Zn  Zn165  1  0.04783764  0.78667131  0.05124469  1
  Zn  Zn166  1  0.06636833  0.81351170  0.56087754  1
  Zn  Zn167  1  0.56565164  0.31495681  0.05969590  1
  Zn  Zn168  1  0.55940416  0.31301473  0.56255383  1
  Zn  Zn169  1  0.56137135  0.81211499  0.06112963  1
  Zn  Zn170  1  0.56327920  0.81824221  0.56192589  1
  O  O171  1  0.12718764  0.10922904  0.12662280  1
  O  O172  1  0.12406762  0.12479173  0.61899374  1
  O  O173  1  0.10689682  0.60433956  0.13289707  1
  O  O174  1  0.12647409  0.61303037  0.62860095  1
  O  O175  1  0.61261423  0.11654831  0.13135542  1
  O  O176  1  0.62129534  0.10859775  0.63628617  1
  O  O177  1  0.60962766  0.61441244  0.13088520  1
  O  O178  1  0.61217791  0.61892349  0.62240218  1
  O  O179  1  0.37935019  0.38576070  0.37894080  1
  O  O180  1  0.37930712  0.38170732  0.88016062  1
  O  O181  1  0.38803253  0.88262608  0.38905070  1
  O  O182  1  0.38596580  0.88006584  0.88152281  1
  O  O183  1  0.89058419  0.37358994  0.36959630  1
  O  O184  1  0.88951298  0.37585065  0.86222481  1
  O  O185  1  0.88236897  0.88509241  0.38204492  1
  O  O186  1  0.88140047  0.87920391  0.88138320  1
  O  O187  1  0.25491877  0.00642157  0.36557340  1
  O  O188  1  0.25401804  0.00510342  0.86849479  1
  O  O189  1  0.25885638  0.49394297  0.36623538  1
  O  O190  1  0.25651764  0.50588842  0.86962966  1
  O  O191  1  0.75778839  -0.00004127  0.37056839  1
  O  O192  1  0.75103052  0.00432266  0.87042940  1
  O  O193  1  0.74288130  0.51228616  0.37075561  1
  O  O194  1  0.71182261  0.51755782  0.84162477  1
  O  O195  1  0.24206734  0.49371810  0.13239540  1
  O  O196  1  0.24699108  0.49327909  0.63400103  1
  O  O197  1  0.24234505  1.00410938  0.13826847  1
  O  O198  1  0.24935979  0.99778550  0.63859425  1
  O  O199  1  0.73325079  0.50588183  0.13706032  1
  O  O200  1  0.73825786  0.50883796  0.62961930  1
  O  O201  1  0.73942688  0.99848998  0.13361601  1
  O  O202  1  0.74595029  0.99611790  0.63232500  1
  O  O203  1  0.00732810  0.36262149  0.25802623  1
  O  O204  1  0.01647605  0.38315877  0.76172933  1
  O  O205  1  0.00737050  0.86747607  0.25903839  1
  O  O206  1  0.00717607  0.87120238  0.75420068  1
  O  O207  1  0.50450281  0.37050154  0.25532223  1
  O  O208  1  0.51714349  0.38030162  0.75319253  1
  O  O209  1  0.49291828  0.86659177  0.26094315  1
  O  O210  1  0.50064379  0.86998243  0.75985935  1
  O  O211  1  0.49180816  0.13032564  0.24176565  1
  O  O212  1  0.48387742  0.11637398  0.75066893  1
  O  O213  1  0.49259349  0.63207123  0.24436926  1
  O  O214  1  0.50078020  0.63165886  0.74003508  1
  O  O215  1  0.99406158  0.13858610  0.25452094  1
  O  O216  1  0.98394614  0.12063866  0.74902925  1
  O  O217  1  0.99215230  0.63641038  0.26136504  1
  O  O218  1  0.99425206  0.63553409  0.74965804  1
  O  O219  1  0.37018483  0.25529233  0.00442073  1
  O  O220  1  0.37442797  0.26636486  0.49340665  1
  O  O221  1  0.37348662  0.76554452  -0.00201828  1
  O  O222  1  0.37750341  0.75874816  0.50641345  1
  O  O223  1  0.86314237  0.24674432  0.01577520  1
  O  O224  1  0.88402549  0.26022072  0.50017984  1
  O  O225  1  0.85371024  0.75957178  -0.00791982  1
  O  O226  1  0.86944953  0.76221934  0.50001500  1
  O  O227  1  0.12147824  0.23824463  0.49107616  1
  O  O228  1  0.13196068  0.25173731  0.99428773  1
  O  O229  1  0.12607278  0.75244451  0.48389259  1
  O  O230  1  0.14288138  0.77561241  0.98181610  1
  O  O231  1  0.62086510  0.25580131  0.48261303  1
  O  O232  1  0.63336342  0.24349529  0.99989587  1
  O  O233  1  0.63293178  0.75729734  0.49179795  1
  O  O234  1  0.63372694  0.75732775  0.98903969  1
  O  O235  1  0.49565887  0.24315091  0.12660926  1
  O  O236  1  0.49143971  0.24719721  0.61974745  1
  O  O237  1  0.50555625  0.74189636  0.13277710  1
  O  O238  1  0.49477639  0.74532673  0.62689227  1
  O  O239  1  0.98522897  0.25656846  0.13092739  1
  O  O240  1  1.01089367  0.23452513  0.63104733  1
  O  O241  1  0.99801784  0.74635877  0.14833807  1
  O  O242  1  1.00327975  0.75095320  0.63553652  1
  O  O243  1  0.01204969  0.25386079  0.36771296  1
  O  O244  1  0.01010718  0.25513034  0.87609790  1
  O  O245  1  0.00347336  0.76057915  0.37035853  1
  O  O246  1  0.00885283  0.76293451  0.86134688  1
  O  O247  1  0.50713099  0.25512819  0.36726800  1
  O  O248  1  0.51765141  0.25017614  0.88515735  1
  O  O249  1  0.50479379  0.75660286  0.37147255  1
  O  O250  1  0.50610297  0.75746549  0.87357099  1
  O  O251  1  0.24661006  0.12187292  0.48742262  1
  O  O252  1  0.24625383  0.13078704  0.99488921  1
  O  O253  1  0.24809581  0.63205627  0.50267335  1
  O  O254  1  0.25819475  0.62793075  0.98922720  1
  O  O255  1  0.75690688  0.13413072  0.49418906  1
  O  O256  1  0.75185398  0.12208662  0.99085767  1
  O  O257  1  0.75312760  0.64035447  0.49741467  1
  O  O258  1  0.74851933  0.64194844  1.00277736  1
  O  O259  1  0.25953448  0.36847456  0.00565980  1
  O  O260  1  0.25836929  0.38300075  0.51056750  1
  O  O261  1  0.27019529  0.87942502  -0.00348360  1
  O  O262  1  0.26052134  0.87129150  0.50148947  1
  O  O263  1  0.73801401  0.35390836  0.01449720  1
  O  O264  1  0.75931889  0.35988969  0.48500035  1
  O  O265  1  0.75461279  0.86877569  0.00578222  1
  O  O266  1  0.75790735  0.86773692  0.50404650  1
  O  O267  1  0.13390857  0.49252895  0.24847655  1
  O  O268  1  0.13457503  0.49528005  0.74524868  1
  O  O269  1  0.13031024  0.99317448  0.24220347  1
  O  O270  1  0.13407457  0.99404269  0.75266423  1
  O  O271  1  0.62829935  0.49203774  0.24579144  1
  O  O272  1  0.62412074  0.49402276  0.72932150  1
  O  O273  1  0.63338116  1.00389882  0.24339722  1
  O  O274  1  0.63782415  0.99612261  0.74716284  1
  O  O275  1  0.36797737  0.00416814  0.25564569  1
  O  O276  1  0.36754212  0.00458807  0.75723045  1
  O  O277  1  0.36895925  0.50500728  0.25670619  1
  O  O278  1  0.37007273  0.49855865  0.75699035  1
  O  O279  1  0.87172333  0.00440747  0.25689766  1
  O  O280  1  0.86355917  -0.00121446  0.75795050  1
  O  O281  1  0.85541124  0.48847239  0.26226810  1
  O  O282  1  0.85591472  0.51110420  0.74955631  1
  O  O283  1  0.12092848  0.36637527  0.36940666  1
  O  O284  1  0.12640295  0.36766540  0.86855485  1
  O  O285  1  0.11850213  0.86962875  0.36664417  1
  O  O286  1  0.11854737  0.87365092  0.86461482  1
  O  O287  1  0.61631706  0.36591060  0.36460705  1
  O  O288  1  0.62891745  0.36703282  0.86642784  1
  O  O289  1  0.61271455  0.86721314  0.37916892  1
  O  O290  1  0.61137619  0.87039755  0.87641750  1
  O  O291  1  0.38201989  0.12884954  0.13070014  1
  O  O292  1  0.37180703  0.12722968  0.64083306  1
  O  O293  1  0.38620283  0.61583720  0.13819064  1
  O  O294  1  0.38744017  0.63313269  0.62665243  1
  O  O295  1  0.87683817  0.12141291  0.13691982  1
  O  O296  1  0.88184695  0.11979915  0.64353816  1
  O  O297  1  0.90312557  0.56267605  0.12256496  1
  O  O298  1  0.88218780  0.63079730  0.63495784  1
  O  O299  1  0.25754347  0.25200349  0.11967024  1
  O  O300  1  0.25518720  0.26559589  0.63100874  1
  O  O301  1  0.24401824  0.74482377  0.13220170  1
  O  O302  1  0.26584467  0.75267425  0.62928149  1
  O  O303  1  0.76058338  0.23688251  0.11836217  1
  O  O304  1  0.74421760  0.25304697  0.63147438  1
  O  O305  1  0.73770937  0.75191946  0.11410997  1
  O  O306  1  0.74837442  0.75897495  0.61771755  1
  O  O307  1  0.23691465  0.24194156  0.36701895  1
  O  O308  1  0.24523603  0.24611717  0.88478292  1
  O  O309  1  0.23449944  0.75411707  0.37013239  1
  O  O310  1  0.24459046  0.73900942  0.86940427  1
  O  O311  1  0.73188206  0.24414291  0.36173347  1
  O  O312  1  0.74114040  0.24014590  0.89712504  1
  O  O313  1  0.74023915  0.74679783  0.38069246  1
  O  O314  1  0.73445240  0.75511924  0.88168569  1
  O  O315  1  0.00395599  0.11619346  -0.01260472  1
  O  O316  1  0.00878059  0.12153549  0.50957899  1
  O  O317  1  0.01660507  0.68170925  0.00387502  1
  O  O318  1  0.00652699  0.61362070  0.49980225  1
  O  O319  1  0.49234163  0.11461432  0.01041763  1
  O  O320  1  0.49241576  0.11085198  0.50165899  1
  O  O321  1  0.49252355  0.61581549  0.01029420  1
  O  O322  1  0.49394301  0.61337588  0.50379453  1
  O  O323  1  0.49072464  0.38773579  0.49299058  1
  O  O324  1  0.49373755  0.38384591  0.99784885  1
  O  O325  1  0.49481382  0.88623122  0.49440462  1
  O  O326  1  0.48988983  0.88107944  0.99589163  1
  O  O327  1  1.00680744  0.38718860  0.49098856  1
  O  O328  1  0.99486798  0.37116382  0.98356622  1
  O  O329  1  0.99381929  0.87731333  0.49377388  1
  O  O330  1  0.98957035  0.87341625  0.99165547  1
  O  O331  1  0.49405489  0.49813711  0.37930994  1
  O  O332  1  0.49816805  0.50116027  0.88238486  1
  O  O333  1  0.49682063  0.99451115  0.37973306  1
  O  O334  1  0.49776940  0.99445742  0.88327644  1
  O  O335  1  1.00107114  0.49081780  0.38185812  1
  O  O336  1  0.99941476  0.49414742  0.87596805  1
  O  O337  1  0.99511398  0.98896441  0.37531780  1
  O  O338  1  0.99519183  0.98667190  0.87332450  1
  O  O339  1  0.01444591  -0.00353300  0.12866640  1
  O  O340  1  0.00589651  0.01270622  0.62477061  1
  O  O341  1  0.03013722  0.46321714  0.12390640  1
  O  O342  1  0.01259752  0.50327222  0.61926649  1
  O  O343  1  0.50516569  0.00716753  0.12073300  1
  O  O344  1  0.50837544  0.00018088  0.61736162  1
  O  O345  1  0.50732758  0.50650398  0.11856418  1
  O  O346  1  0.50381833  0.50792168  0.61493682  1
  O  O347  1  0.24825367  0.38385707  0.24432966  1
  O  O348  1  0.24490893  0.38647563  0.74579741  1
  O  O349  1  0.24088947  0.88379467  0.25199763  1
  O  O350  1  0.24378343  0.88357800  0.75175306  1
  O  O351  1  0.73661491  0.38187564  0.25638887  1
  O  O352  1  0.73600818  0.39328058  0.74575357  1
  O  O353  1  0.75449836  0.88881039  0.24962859  1
  O  O354  1  0.75060371  0.88192020  0.74451871  1
  O  O355  1  0.25448849  0.11795643  0.26088229  1
  O  O356  1  0.25781341  0.11786062  0.75688090  1
  O  O357  1  0.25762675  0.61089325  0.24572066  1
  O  O358  1  0.25453804  0.61223450  0.75645829  1
  O  O359  1  0.76040913  0.11238149  0.25687421  1
  O  O360  1  0.76083275  0.11604797  0.76002750  1
  O  O361  1  0.74326931  0.61715193  0.26127626  1
  O  O362  1  0.75749155  0.62141973  0.73993649  1
  O  O363  1  0.36829460  0.12112327  0.37036639  1
  O  O364  1  0.36956408  0.11884806  0.86771284  1
  O  O365  1  0.37956338  0.61383119  0.36292025  1
  O  O366  1  0.36940803  0.61824697  0.87180849  1
  O  O367  1  0.88230751  0.11121315  0.36730230  1
  O  O368  1  0.86702452  0.11904606  0.86738900  1
  O  O369  1  0.85941405  0.62570390  0.38202180  1
  O  O370  1  0.87133449  0.63778989  0.85838068  1
  O  O371  1  0.14184082  0.36845843  0.13136376  1
  O  O372  1  0.13103921  0.38355447  0.63250061  1
  O  O373  1  0.11966632  0.88059815  0.13664972  1
  O  O374  1  0.12834904  0.87724444  0.63713258  1
  O  O375  1  0.61468562  0.38492960  0.13717726  1
  O  O376  1  0.62078487  0.38261860  0.63268735  1
  O  O377  1  0.62121373  0.88790538  0.12586566  1
  O  O378  1  0.63211098  0.88573086  0.62893272  1
  O  O379  1  0.11773608  0.25212320  0.25337100  1
  O  O380  1  0.13470374  0.26210282  0.76239552  1
  O  O381  1  0.11541520  0.75407958  0.26056591  1
  O  O382  1  0.12160297  0.75854496  0.75640677  1
  O  O383  1  0.61784016  0.25650661  0.24959815  1
  O  O384  1  0.63075491  0.26322743  0.75939744  1
  O  O385  1  0.61041280  0.74781748  0.26036272  1
  O  O386  1  0.62033291  0.75371529  0.76192022  1
  O  O387  1  0.38051251  0.24615304  0.24449308  1
  O  O388  1  0.37091942  0.23595014  0.75603453  1
  O  O389  1  0.38617134  0.73990912  0.25166216  1
  O  O390  1  0.38399563  0.75024890  0.74206515  1
  O  O391  1  0.87872472  0.24331786  0.23972810  1
  O  O392  1  0.86991344  0.23771927  0.75778234  1
  O  O393  1  0.88439432  0.75386431  0.25851741  1
  O  O394  1  0.88425926  0.74889503  0.74614356  1
  O  O395  1  0.38034673  0.49510274  0.49105499  1
  O  O396  1  0.38313687  0.49368189  0.99473651  1
  O  O397  1  0.38006687  0.99421089  0.49680404  1
  O  O398  1  0.38441984  0.99189783  0.99707688  1
  O  O399  1  0.88519120  0.49673817  0.49820520  1
  O  O400  1  0.80087309  0.48787204  0.96247305  1
  O  O401  1  0.87608154  0.99064537  0.49330925  1
  O  O402  1  0.87354686  0.98965707  0.99316377  1
  O  O403  1  0.12732700  -0.00591859  0.01858664  1
  O  O404  1  0.12700568  0.01320145  0.49951369  1
  O  O405  1  0.13678138  0.50012838  0.01367155  1
  O  O406  1  0.12123749  0.50107485  0.50952523  1
  O  O407  1  0.61142831  -0.00343814  0.00834313  1
  O  O408  1  0.61725769  -0.00428504  0.50905085  1
  O  O409  1  0.61519791  0.49227244  0.00745855  1
  O  O410  1  0.61509817  0.49219971  0.50658636  1
  O  O411  1  0.37131886  0.37010914  0.11993193  1
  O  O412  1  0.36756512  0.37810393  0.61569421  1
  O  O413  1  0.37700673  0.87624592  0.11770620  1
  O  O414  1  0.37820217  0.86804112  0.61473207  1
  O  O415  1  0.87032169  0.36627262  0.13006529  1
  O  O416  1  0.88746087  0.38071110  0.63358300  1
  O  O417  1  0.87306966  0.87895874  0.11396851  1
  O  O418  1  0.87005485  0.87622570  0.61642521  1
  O  O419  1  0.13098833  0.13045018  0.38022402  1
  O  O420  1  0.13244981  0.13539416  0.87305099  1
  O  O421  1  0.12370760  0.63970129  0.37237522  1
  O  O422  1  0.13596949  0.63644673  0.87030388  1
  O  O423  1  0.62038936  0.14037476  0.37076114  1
  O  O424  1  0.63702096  0.13471039  0.86458876  1
  O  O425  1  0.63021232  0.63801548  0.37650466  1
  O  O426  1  0.61518802  0.64228900  0.87706504  1
