# generated using pymatgen
data_V85Zn86O256
_symmetry_space_group_name_H-M   'P 1'
_cell_length_a   16.93761454
_cell_length_b   16.93350874
_cell_length_c   16.92950306
_cell_angle_alpha   89.98949431
_cell_angle_beta   90.01855877
_cell_angle_gamma   90.07110286
_symmetry_Int_Tables_number   1
_chemical_formula_structural   V85Zn86O256
_chemical_formula_sum   'V85 Zn86 O256'
_cell_volume   4855.60161138
_cell_formula_units_Z   1
loop_
 _symmetry_equiv_pos_site_id
 _symmetry_equiv_pos_as_xyz
  1  'x, y, z'
loop_
 _atom_site_type_symbol
 _atom_site_label
 _atom_site_symmetry_multiplicity
 _atom_site_fract_x
 _atom_site_fract_y
 _atom_site_fract_z
 _atom_site_occupancy
  V  V0  1  0.00102275  0.75991661  0.74923501  1
  V  V1  1  0.62303916  0.37590333  0.74918790  1
  V  V2  1  0.50184557  0.12430843  0.62501146  1
  V  V3  1  0.00410376  0.62144573  0.62785359  1
  V  V4  1  0.83275008  -0.05038577  0.42363608  1
  V  V5  1  0.87472353  0.25072914  0.62511293  1
  V  V6  1  0.75315766  0.63068548  0.38179821  1
  V  V7  1  0.24650311  0.87532660  0.63607430  1
  V  V8  1  0.37137770  0.88314077  0.49648133  1
  V  V9  1  0.00686130  0.49828299  0.50490480  1
  V  V10  1  0.73727372  -0.01202559  0.73554951  1
  V  V11  1  0.00467701  0.88714530  0.38364498  1
  V  V12  1  0.25089567  0.36665780  0.12351071  1
  V  V13  1  0.87244550  0.12220846  0.75220771  1
  V  V14  1  0.62020821  0.36866285  0.24704665  1
  V  V15  1  0.37982408  0.62783304  0.24826995  1
  V  V16  1  0.12530650  0.50234159  0.12693272  1
  V  V17  1  0.49459707  0.00670486  0.49984126  1
  V  V18  1  0.25109822  0.62571134  0.37565629  1
  V  V19  1  0.74175338  0.12015610  0.87501467  1
  V  V20  1  0.12418676  0.11937938  0.49948317  1
  V  V21  1  0.49334061  0.38534369  0.87533674  1
  V  V22  1  0.12807339  0.75725932  0.86983936  1
  V  V23  1  0.75264937  0.12930817  0.37525483  1
  V  V24  1  0.87449027  0.75969875  0.61496853  1
  V  V25  1  0.00250118  0.24860154  0.75130403  1
  V  V26  1  0.87078173  -0.00599617  0.88225232  1
  V  V27  1  0.51038810  -0.00113529  -0.00240837  1
  V  V28  1  0.00156924  0.37340113  0.37592635  1
  V  V29  1  0.87808192  0.62835957  0.24462066  1
  V  V30  1  -0.00020045  0.37375520  0.87417695  1
  V  V31  1  0.00215469  0.75201825  0.24440217  1
  V  V32  1  0.62789152  0.75785633  0.37506433  1
  V  V33  1  0.12545165  0.74994445  0.37458772  1
  V  V34  1  0.87202002  0.37394248  -0.00054638  1
  V  V35  1  0.00000314  0.11895924  0.62131031  1
  V  V36  1  -0.00196756  0.24846451  0.24904158  1
  V  V37  1  0.25295677  0.75085283  0.50349381  1
  V  V38  1  0.74962282  0.50065214  0.24844498  1
  V  V39  1  0.12997894  0.25061408  0.88283890  1
  V  V40  1  0.74646771  0.37407369  0.12457901  1
  V  V41  1  0.25443701  0.49946998  0.25033198  1
  V  V42  1  0.87662592  0.50050330  0.37555853  1
  V  V43  1  0.25691614  0.10627218  0.37084084  1
  V  V44  1  0.36929693  0.25183826  0.62567209  1
  V  V45  1  0.50959923  0.87246205  0.85901884  1
  V  V46  1  0.38576930  0.61855370  0.74769652  1
  V  V47  1  0.49600722  0.25081182  0.75171893  1
  V  V48  1  0.76988313  0.87273648  0.12244813  1
  V  V49  1  0.87596672  0.37454294  0.50082769  1
  V  V50  1  0.12679216  0.62577769  -0.00153637  1
  V  V51  1  0.24474892  0.38986194  0.62629177  1
  V  V52  1  0.25369144  0.61175458  0.86394739  1
  V  V53  1  0.12684725  0.38702697  0.74758434  1
  V  V54  1  0.13210158  0.88435193  0.24969965  1
  V  V55  1  0.87230281  0.50109254  0.87447169  1
  V  V56  1  0.37208109  0.37040111  -0.00228817  1
  V  V57  1  -0.00391784  0.87410410  0.88419950  1
  V  V58  1  0.37870208  0.11803039  0.24776755  1
  V  V59  1  0.75369101  0.74678982  0.00279063  1
  V  V60  1  0.12667021  0.62192885  0.50385565  1
  V  V61  1  0.37603202  -0.00208616  0.87363918  1
  V  V62  1  0.50100121  0.38760410  0.37279104  1
  V  V63  1  0.62484317  0.74333991  0.86609478  1
  V  V64  1  0.12196924  -0.00349199  0.63302961  1
  V  V65  1  0.74669374  0.24298393  0.00024414  1
  V  V66  1  -0.00149342  0.50124448  0.00207645  1
  V  V67  1  0.87404010  0.11461728  0.24968251  1
  V  V68  1  0.61393386  0.61843687  0.49058340  1
  V  V69  1  0.62007020  0.24835514  0.87915520  1
  V  V70  1  0.61303026  0.24642087  0.37304132  1
  V  V71  1  0.74839396  0.37752025  0.62430108  1
  V  V72  1  0.38116875  0.74567380  0.12229202  1
  V  V73  1  0.25282154  0.12857862  0.88295227  1
  V  V74  1  0.62296311  -0.01544675  0.13123185  1
  V  V75  1  0.50673029  0.75713603  0.24517483  1
  V  V76  1  0.37874437  0.38240573  0.49855667  1
  V  V77  1  0.87123764  0.62760700  0.74993119  1
  V  V78  1  0.49868673  0.88245476  0.37336812  1
  V  V79  1  0.13176016  0.24886543  0.37419917  1
  V  V80  1  0.25430657  0.88138712  0.12567586  1
  V  V81  1  0.25301465  0.74831114  -0.00148798  1
  V  V82  1  0.51093264  0.13207923  0.12418523  1
  V  V83  1  0.49737858  0.51072664  0.00783052  1
  V  V84  1  0.61403647  0.49919188  0.61875394  1
  Zn  Zn85  1  0.62675009  0.12808307  0.50484848  1
  Zn  Zn86  1  0.50314906  0.63161453  0.62351754  1
  Zn  Zn87  1  0.87399558  0.24692088  0.12569596  1
  Zn  Zn88  1  0.38440837  0.50748230  0.37873137  1
  Zn  Zn89  1  0.72706127  0.78834526  0.53144559  1
  Zn  Zn90  1  0.74690198  -0.00905628  0.25468541  1
  Zn  Zn91  1  0.62961208  0.52350233  0.10833934  1
  Zn  Zn92  1  0.24471862  -0.00076848  0.75592491  1
  Zn  Zn93  1  0.38106644  0.75502842  0.63555802  1
  Zn  Zn94  1  -0.00104044  0.00079849  0.00464244  1
  Zn  Zn95  1  0.00244870  0.12039613  0.12317087  1
  Zn  Zn96  1  0.12652386  0.37471291  0.25093470  1
  Zn  Zn97  1  -0.00302334  0.63053832  0.12178284  1
  Zn  Zn98  1  0.74644738  0.25190000  0.49866818  1
  Zn  Zn99  1  0.12724055  0.00332236  0.12140828  1
  Zn  Zn100  1  0.37116821  0.12498248  0.75048556  1
  Zn  Zn101  1  0.12470199  0.12324678  0.00388376  1
  Zn  Zn102  1  0.38166323  0.87222887  -0.00267824  1
  Zn  Zn103  1  0.74779369  0.50091764  0.75128403  1
  Zn  Zn104  1  0.25007415  0.24974632  0.50021009  1
  Zn  Zn105  1  0.37808187  0.24928412  0.12909913  1
  Zn  Zn106  1  0.74362136  0.62111381  0.88537924  1
  Zn  Zn107  1  0.18857778  0.18331069  0.19151301  1
  Zn  Zn108  1  0.18848703  0.18767950  0.69500512  1
  Zn  Zn109  1  0.19027017  0.69019526  0.18663362  1
  Zn  Zn110  1  0.18771880  0.68786072  0.68881314  1
  Zn  Zn111  1  0.68577694  0.18366885  0.18877191  1
  Zn  Zn112  1  0.68612828  0.18828356  0.69020981  1
  Zn  Zn113  1  0.69137648  0.69434422  0.18850104  1
  Zn  Zn114  1  0.68677981  0.68536893  0.68694482  1
  Zn  Zn115  1  0.31907697  0.30881288  0.30831474  1
  Zn  Zn116  1  0.30955774  0.31606390  0.81104862  1
  Zn  Zn117  1  0.31474651  0.81452797  0.31233125  1
  Zn  Zn118  1  0.31850530  0.80868279  0.81325407  1
  Zn  Zn119  1  0.81193582  0.30870614  0.31238613  1
  Zn  Zn120  1  0.80989866  0.31091293  0.81164097  1
  Zn  Zn121  1  0.81239204  0.80939764  0.30402640  1
  Zn  Zn122  1  0.80872565  0.81161777  0.81186853  1
  Zn  Zn123  1  0.19044892  0.43626940  0.43801998  1
  Zn  Zn124  1  0.18643544  0.43449241  0.94031464  1
  Zn  Zn125  1  0.18207369  0.93722692  0.44480809  1
  Zn  Zn126  1  0.18812454  0.93663702  0.94086030  1
  Zn  Zn127  1  0.68742972  0.43713479  0.43400677  1
  Zn  Zn128  1  0.68239010  0.43685956  0.93854223  1
  Zn  Zn129  1  0.66343539  0.92575079  0.47546133  1
  Zn  Zn130  1  0.68722556  0.93205333  0.94031380  1
  Zn  Zn131  1  0.32026663  0.06322612  0.05852240  1
  Zn  Zn132  1  0.31000144  0.06367062  0.56329371  1
  Zn  Zn133  1  0.31681960  0.56038718  0.05947171  1
  Zn  Zn134  1  0.31638044  0.56305724  0.56595448  1
  Zn  Zn135  1  0.81086725  0.06185660  0.06514357  1
  Zn  Zn136  1  0.81162280  0.06623835  0.56216818  1
  Zn  Zn137  1  0.81075440  0.56493414  0.06287516  1
  Zn  Zn138  1  0.81399153  0.56307590  0.56344624  1
  Zn  Zn139  1  0.43938669  0.43728472  0.18571587  1
  Zn  Zn140  1  0.43179223  0.44201951  0.69078460  1
  Zn  Zn141  1  0.43489602  0.93864221  0.18726726  1
  Zn  Zn142  1  0.43416663  0.94006379  0.68507458  1
  Zn  Zn143  1  0.93642094  0.43566169  0.18769971  1
  Zn  Zn144  1  0.93878798  0.43887124  0.68893671  1
  Zn  Zn145  1  0.94284729  0.93788912  0.19205686  1
  Zn  Zn146  1  0.93271362  0.93886039  0.69148916  1
  Zn  Zn147  1  0.06593459  0.06439027  0.30830499  1
  Zn  Zn148  1  0.06201365  0.06207660  0.81774380  1
  Zn  Zn149  1  0.06366114  0.56267381  0.31349765  1
  Zn  Zn150  1  0.06113983  0.56763926  0.81485281  1
  Zn  Zn151  1  0.56218641  0.06046825  0.30951277  1
  Zn  Zn152  1  0.56218505  0.06128841  0.80690944  1
  Zn  Zn153  1  0.57743447  0.57445509  0.28134575  1
  Zn  Zn154  1  0.56388582  0.56072021  0.81268711  1
  Zn  Zn155  1  0.43207891  0.19292941  0.43601297  1
  Zn  Zn156  1  0.43664348  0.18684141  0.94396486  1
  Zn  Zn157  1  0.43811884  0.69428350  0.43694912  1
  Zn  Zn158  1  0.43746473  0.68807172  0.92803483  1
  Zn  Zn159  1  0.93754661  0.18444497  0.43718701  1
  Zn  Zn160  1  0.93580390  0.18488653  0.93898164  1
  Zn  Zn161  1  0.94085801  0.69051938  0.43528876  1
  Zn  Zn162  1  0.93551442  0.68912758  0.93801213  1
  Zn  Zn163  1  0.06220718  0.31368394  0.06492183  1
  Zn  Zn164  1  0.06537753  0.30736849  0.56328988  1
  Zn  Zn165  1  0.06631315  0.81505273  0.06319744  1
  Zn  Zn166  1  0.06318439  0.81121007  0.56375416  1
  Zn  Zn167  1  0.56225528  0.31693287  0.05892976  1
  Zn  Zn168  1  0.55816677  0.31112985  0.55807231  1
  Zn  Zn169  1  0.56478294  0.80791780  0.05225348  1
  Zn  Zn170  1  0.55849742  0.81789090  0.57844841  1
  O  O171  1  0.12425871  0.12287923  0.12354018  1
  O  O172  1  0.11880234  0.12262647  0.61948374  1
  O  O173  1  0.12691819  0.61487992  0.11955013  1
  O  O174  1  0.11177829  0.62959658  0.62061996  1
  O  O175  1  0.61476379  0.11351042  0.12775955  1
  O  O176  1  0.60609533  0.13922325  0.62386860  1
  O  O177  1  0.62223978  0.60934160  0.17744769  1
  O  O178  1  0.62610096  0.61601678  0.61248445  1
  O  O179  1  0.38317612  0.37642377  0.38050911  1
  O  O180  1  0.38232202  0.37058841  0.88226896  1
  O  O181  1  0.38156387  0.86922756  0.38827901  1
  O  O182  1  0.38787271  0.87944216  0.87481306  1
  O  O183  1  0.88121490  0.37853323  0.38140921  1
  O  O184  1  0.87831667  0.38152925  0.87800272  1
  O  O185  1  0.88984458  0.88190337  0.36435822  1
  O  O186  1  0.88271595  0.88305026  0.86892268  1
  O  O187  1  0.24778750  0.00844697  0.37920373  1
  O  O188  1  0.26033517  0.00314750  0.87561005  1
  O  O189  1  0.25046107  0.50484082  0.36252057  1
  O  O190  1  0.24371052  0.51471770  0.88037540  1
  O  O191  1  0.75608334  0.00552974  0.37571905  1
  O  O192  1  0.75220504  0.00566821  0.87066337  1
  O  O193  1  0.75927938  0.50572793  0.36899480  1
  O  O194  1  0.75958270  0.50019988  0.87614524  1
  O  O195  1  0.24505977  0.49711449  0.13470368  1
  O  O196  1  0.24536177  0.48819041  0.62091412  1
  O  O197  1  0.25522626  0.98363981  0.11496776  1
  O  O198  1  0.24108330  0.99331240  0.62820106  1
  O  O199  1  0.74650292  0.49102689  0.12851435  1
  O  O200  1  0.74587904  0.48830929  0.62568936  1
  O  O201  1  0.73930911  0.98717738  0.12123787  1
  O  O202  1  0.75387612  1.00645567  0.63739900  1
  O  O203  1  0.00115295  0.36781611  0.25835915  1
  O  O204  1  0.00454512  0.36791205  0.75434238  1
  O  O205  1  0.01166126  0.86791187  0.25837500  1
  O  O206  1  -0.00307723  0.86353330  0.75797121  1
  O  O207  1  0.50899059  0.37454189  0.25529765  1
  O  O208  1  0.50142593  0.37137881  0.75701964  1
  O  O209  1  0.49023238  0.86682299  0.25974376  1
  O  O210  1  0.49945821  0.87946548  0.76017069  1
  O  O211  1  0.49372005  0.11959828  0.23496336  1
  O  O212  1  0.49468021  0.13287128  0.74343154  1
  O  O213  1  0.48365279  0.64034205  0.26133185  1
  O  O214  1  0.48926605  0.62208612  0.75053636  1
  O  O215  1  0.99194928  0.13225315  0.25185782  1
  O  O216  1  0.99106474  0.12947747  0.74667778  1
  O  O217  1  0.99557454  0.63270687  0.25084350  1
  O  O218  1  0.99140586  0.63199635  0.74502445  1
  O  O219  1  0.38002598  0.26488178  0.00789726  1
  O  O220  1  0.37110645  0.26355177  0.50769946  1
  O  O221  1  0.37076109  0.74814908  0.00462517  1
  O  O222  1  0.36170459  0.75665423  0.50117813  1
  O  O223  1  0.86408958  0.25779321  -0.00079028  1
  O  O224  1  0.87547576  0.25723381  0.50811878  1
  O  O225  1  0.85448840  0.74925875  -0.00929676  1
  O  O226  1  0.87902155  0.74564788  0.51449664  1
  O  O227  1  0.12685944  0.23811489  0.49237188  1
  O  O228  1  0.12016231  0.25444344  0.98552712  1
  O  O229  1  0.13499936  0.74381218  0.49573438  1
  O  O230  1  0.13359923  0.74394356  0.99403832  1
  O  O231  1  0.62501740  0.24730005  0.48847802  1
  O  O232  1  0.63129004  0.25518441  0.98641995  1
  O  O233  1  0.63216741  0.73249593  0.48349961  1
  O  O234  1  0.63834197  0.75476540  0.98427238  1
  O  O235  1  0.50721137  0.23461837  0.11998601  1
  O  O236  1  0.48638254  0.24982544  0.62997259  1
  O  O237  1  0.49418099  0.75630935  0.13262752  1
  O  O238  1  0.49230625  0.74515422  0.61780637  1
  O  O239  1  0.99849394  0.25323392  0.13986936  1
  O  O240  1  0.99620893  0.24038768  0.63268706  1
  O  O241  1  1.00854685  0.74902583  0.13912756  1
  O  O242  1  0.99366408  0.74311792  0.63188443  1
  O  O243  1  0.00952438  0.25199354  0.36786739  1
  O  O244  1  0.00336774  0.25628025  0.86848231  1
  O  O245  1  0.00896335  0.75627631  0.36640959  1
  O  O246  1  0.00574540  0.75438041  0.86859990  1
  O  O247  1  0.50956300  0.25622077  0.37474109  1
  O  O248  1  0.50549009  0.25450022  0.87291957  1
  O  O249  1  0.50687143  0.76169573  0.36972741  1
  O  O250  1  0.51170263  0.76173650  0.87642007  1
  O  O251  1  0.24493432  0.12807231  0.48795897  1
  O  O252  1  0.25003181  0.12297371  0.98744216  1
  O  O253  1  0.24703765  0.63130840  0.49806338  1
  O  O254  1  0.24912384  0.63285224  0.99166241  1
  O  O255  1  0.74711537  0.12968512  0.49085146  1
  O  O256  1  0.75233716  0.13602854  0.99242660  1
  O  O257  1  0.74822426  0.61889703  0.48585223  1
  O  O258  1  0.74622563  0.63830348  1.00465471  1
  O  O259  1  0.25906751  0.38284778  0.01102805  1
  O  O260  1  0.25307272  0.37162850  0.51178829  1
  O  O261  1  0.25493797  0.86077191  0.00407976  1
  O  O262  1  0.25328548  0.86859667  0.50644543  1
  O  O263  1  0.75097002  0.36587291  0.00526266  1
  O  O264  1  0.75717936  0.37435542  0.50721399  1
  O  O265  1  0.74792598  0.86602956  0.01383128  1
  O  O266  1  0.77628351  0.88449300  0.47698787  1
  O  O267  1  0.13314091  0.49977694  0.24289100  1
  O  O268  1  0.11376991  0.48595339  0.75414796  1
  O  O269  1  0.12836279  0.98702983  0.24847343  1
  O  O270  1  0.12441121  1.00494150  0.73759625  1
  O  O271  1  0.63896289  0.47714945  0.26205912  1
  O  O272  1  0.62764975  0.49347786  0.74060421  1
  O  O273  1  0.62786547  0.99875733  0.23515480  1
  O  O274  1  0.63794784  1.00210823  0.74783283  1
  O  O275  1  0.37335135  0.01595527  0.24497866  1
  O  O276  1  0.37472652  0.00226156  0.76358472  1
  O  O277  1  0.36988106  0.51000919  0.24980553  1
  O  O278  1  0.36872871  0.51727241  0.74824271  1
  O  O279  1  0.87293643  0.01111672  0.25157615  1
  O  O280  1  0.86815058  0.01127722  0.75834822  1
  O  O281  1  0.87132749  0.50506294  0.25702490  1
  O  O282  1  0.87481823  0.50669356  0.75902480  1
  O  O283  1  0.11962529  0.36605976  0.37545808  1
  O  O284  1  0.12094114  0.36994814  0.86804672  1
  O  O285  1  0.12098510  0.87032304  0.36986731  1
  O  O286  1  0.11908093  0.86233797  0.87629472  1
  O  O287  1  0.61815208  0.36568653  0.37080896  1
  O  O288  1  0.61608313  0.36788997  0.86826944  1
  O  O289  1  0.61482771  0.86737494  0.38386404  1
  O  O290  1  0.61449369  0.86947325  0.87306270  1
  O  O291  1  0.38593012  0.12640307  0.13004052  1
  O  O292  1  0.37927082  0.13616729  0.62627222  1
  O  O293  1  0.36952181  0.63740183  0.13267705  1
  O  O294  1  0.37925220  0.62566759  0.63528218  1
  O  O295  1  0.87510802  0.12787573  0.13542912  1
  O  O296  1  0.88176012  0.13097527  0.63193027  1
  O  O297  1  0.87823146  0.61821100  0.14015179  1
  O  O298  1  0.88642129  0.62765207  0.63237368  1
  O  O299  1  0.24589763  0.26493834  0.13034524  1
  O  O300  1  0.25987950  0.25350597  0.62606275  1
  O  O301  1  0.25809843  0.75434401  0.11514469  1
  O  O302  1  0.24771783  0.75807280  0.61792699  1
  O  O303  1  0.74776326  0.25422677  0.11551914  1
  O  O304  1  0.75396925  0.26127212  0.62503675  1
  O  O305  1  0.74733221  0.76151140  0.11581737  1
  O  O306  1  0.76985319  0.73912404  0.62537679  1
  O  O307  1  0.23864165  0.24969652  0.37479600  1
  O  O308  1  0.24087017  0.24351669  0.87061167  1
  O  O309  1  0.24447611  0.74594881  0.38262803  1
  O  O310  1  0.24347654  0.74517743  0.88107651  1
  O  O311  1  0.73935054  0.24399064  0.37618370  1
  O  O312  1  0.74158686  0.24299703  0.87985882  1
  O  O313  1  0.74281040  0.74491379  0.37122692  1
  O  O314  1  0.74122512  0.74857902  0.88249743  1
  O  O315  1  0.00250963  0.12335099  0.00292525  1
  O  O316  1  0.00950870  0.13052911  0.51020961  1
  O  O317  1  0.00553576  0.61980234  0.00130027  1
  O  O318  1  0.00469351  0.61767172  0.50762096  1
  O  O319  1  0.49684122  0.11431372  0.01462221  1
  O  O320  1  0.49103491  0.12280779  0.50689566  1
  O  O321  1  0.48953984  0.60907554  -0.00655392  1
  O  O322  1  0.51132096  0.62273741  0.49275255  1
  O  O323  1  0.49016185  0.37385852  0.48870014  1
  O  O324  1  0.49256995  0.38069603  0.99202847  1
  O  O325  1  0.48807365  0.88686340  0.49482455  1
  O  O326  1  0.50040392  0.88384984  0.98896155  1
  O  O327  1  0.99798689  0.38057453  0.49827914  1
  O  O328  1  0.99278763  0.38102156  0.99465009  1
  O  O329  1  1.00520116  0.86901343  0.48227331  1
  O  O330  1  1.00027790  0.87079171  0.98703453  1
  O  O331  1  0.50316732  0.48926973  0.36505011  1
  O  O332  1  0.50207375  0.48844777  0.88061267  1
  O  O333  1  0.49932196  0.98921668  0.37717072  1
  O  O334  1  0.49944758  0.99240057  0.87872703  1
  O  O335  1  0.99603283  0.49410547  0.38230038  1
  O  O336  1  0.98931903  0.49545273  0.88066565  1
  O  O337  1  1.01088029  0.98660853  0.37455976  1
  O  O338  1  0.98992704  0.98966577  0.87298045  1
  O  O339  1  0.00553626  -0.00028124  0.12332725  1
  O  O340  1  0.00320089  0.01176907  0.63157372  1
  O  O341  1  0.00895509  0.50066867  0.12111980  1
  O  O342  1  -0.00324744  0.50781919  0.61639991  1
  O  O343  1  0.51006938  0.00109651  0.11826837  1
  O  O344  1  0.49019540  0.01340050  0.61580193  1
  O  O345  1  0.50372130  0.49837159  0.11161515  1
  O  O346  1  0.51174801  0.50025541  0.62583564  1
  O  O347  1  0.25109031  0.38488821  0.24392457  1
  O  O348  1  0.24224806  0.37496700  0.73611478  1
  O  O349  1  0.24397980  0.86646744  0.23936697  1
  O  O350  1  0.25429371  0.87533411  0.73901665  1
  O  O351  1  0.74831486  0.37672468  0.24001503  1
  O  O352  1  0.74249669  0.37587028  0.74189688  1
  O  O353  1  0.75376880  0.87471545  0.23043437  1
  O  O354  1  0.75460517  0.88979904  0.74881108  1
  O  O355  1  0.25481299  0.12274805  0.26531654  1
  O  O356  1  0.25242427  0.12094000  0.76405555  1
  O  O357  1  0.25908945  0.62086611  0.25462957  1
  O  O358  1  0.24496906  0.62069733  0.76183815  1
  O  O359  1  0.75665557  0.12007783  0.25660731  1
  O  O360  1  0.75576213  0.12201957  0.75737748  1
  O  O361  1  0.76347432  0.62327098  0.26211375  1
  O  O362  1  0.76283101  0.62118166  0.75169652  1
  O  O363  1  0.36271006  0.12727309  0.36896553  1
  O  O364  1  0.37064134  0.11800545  0.87629010  1
  O  O365  1  0.36726175  0.62645517  0.36950572  1
  O  O366  1  0.36094942  0.62687267  0.86459450  1
  O  O367  1  0.86119206  0.13392861  0.36704545  1
  O  O368  1  0.86240056  0.12136297  0.86756572  1
  O  O369  1  0.87285729  0.62009461  0.36965516  1
  O  O370  1  0.87357021  0.61648256  0.86766278  1
  O  O371  1  0.13215780  0.38741149  0.12570124  1
  O  O372  1  0.13724528  0.36889404  0.63116259  1
  O  O373  1  0.13716164  0.87294825  0.13391883  1
  O  O374  1  0.13194426  0.88496920  0.61902217  1
  O  O375  1  0.63445861  0.37386002  0.13075730  1
  O  O376  1  0.63010351  0.37925029  0.62637282  1
  O  O377  1  0.62270129  0.88404247  0.12379316  1
  O  O378  1  0.65338310  0.86764003  0.57301043  1
  O  O379  1  0.11707683  0.25120005  0.25903433  1
  O  O380  1  0.11784053  0.25816750  0.75859249  1
  O  O381  1  0.12217063  0.75524749  0.25724168  1
  O  O382  1  0.11394641  0.74395691  0.75888001  1
  O  O383  1  0.63142649  0.26070971  0.25733606  1
  O  O384  1  0.61801711  0.25647276  0.76014521  1
  O  O385  1  0.61397015  0.75242956  0.26105266  1
  O  O386  1  0.63532964  0.75100873  0.76562782  1
  O  O387  1  0.37026673  0.23066435  0.24486833  1
  O  O388  1  0.37989259  0.25157232  0.74253520  1
  O  O389  1  0.38112779  0.74574473  0.24149224  1
  O  O390  1  0.36255920  0.72769290  0.74807563  1
  O  O391  1  0.88335229  0.24205097  0.24978365  1
  O  O392  1  0.87885584  0.23991110  0.74646230  1
  O  O393  1  0.88872526  0.73947141  0.25568851  1
  O  O394  1  0.88214840  0.74238009  0.74474109  1
  O  O395  1  0.36897930  0.48791979  0.49593944  1
  O  O396  1  0.38684331  0.48702429  1.00451807  1
  O  O397  1  0.37818258  0.99329135  0.50063942  1
  O  O398  1  0.38840638  0.99670095  0.98812574  1
  O  O399  1  0.88645476  0.49476331  0.49593851  1
  O  O400  1  0.87800636  0.49540838  0.99410490  1
  O  O401  1  0.88080067  1.00758120  0.48881172  1
  O  O402  1  0.87328256  1.00522984  0.98514006  1
  O  O403  1  0.11986187  0.00123331  0.00079327  1
  O  O404  1  0.12685050  0.01318227  0.51268036  1
  O  O405  1  0.11901507  0.50522065  0.00715632  1
  O  O406  1  0.11400335  0.50460451  0.49489926  1
  O  O407  1  0.61680409  -0.00186798  0.00886459  1
  O  O408  1  0.60033604  0.01628949  0.49422819  1
  O  O409  1  0.60720097  0.49716710  -0.00103208  1
  O  O410  1  0.63070872  0.50639423  0.50619060  1
  O  O411  1  0.36733495  0.37229805  0.12077449  1
  O  O412  1  0.36458923  0.37304680  0.62030700  1
  O  O413  1  0.37067432  0.86274491  0.12207113  1
  O  O414  1  0.36414514  0.87535883  0.61509822  1
  O  O415  1  0.86264822  0.37268137  0.11900856  1
  O  O416  1  0.86796615  0.37095887  0.62271149  1
  O  O417  1  0.86790157  0.87878523  0.12301210  1
  O  O418  1  0.88246272  0.85892867  0.62647023  1
  O  O419  1  0.13470150  0.12842268  0.38024240  1
  O  O420  1  0.13266336  0.13462583  0.87550095  1
  O  O421  1  0.13144056  0.62975349  0.38258543  1
  O  O422  1  0.13297276  0.63411274  0.88000915  1
  O  O423  1  0.63371380  0.13234360  0.36921481  1
  O  O424  1  0.63416870  0.13255698  0.86975884  1
  O  O425  1  0.63504355  0.62853749  0.37480332  1
  O  O426  1  0.62533368  0.63766851  0.87195007  1
