# generated using pymatgen
data_V85Zn86O256
_symmetry_space_group_name_H-M   'P 1'
_cell_length_a   16.93928819
_cell_length_b   16.94499651
_cell_length_c   16.94608117
_cell_angle_alpha   89.93364553
_cell_angle_beta   89.97585243
_cell_angle_gamma   89.97559937
_symmetry_Int_Tables_number   1
_chemical_formula_structural   V85Zn86O256
_chemical_formula_sum   'V85 Zn86 O256'
_cell_volume   4864.13425867
_cell_formula_units_Z   1
loop_
 _symmetry_equiv_pos_site_id
 _symmetry_equiv_pos_as_xyz
  1  'x, y, z'
loop_
 _atom_site_type_symbol
 _atom_site_label
 _atom_site_symmetry_multiplicity
 _atom_site_fract_x
 _atom_site_fract_y
 _atom_site_fract_z
 _atom_site_occupancy
  V  V0  1  0.37638757  0.75818119  0.62738292  1
  V  V1  1  0.26963610  0.09729853  0.85602981  1
  V  V2  1  0.49526416  0.88376116  0.87377153  1
  V  V3  1  0.24867066  0.87614147  0.12787106  1
  V  V4  1  0.74735503  0.12958113  0.38651671  1
  V  V5  1  0.61794674  0.00428026  0.12527746  1
  V  V6  1  0.74783919  0.87972220  0.62196291  1
  V  V7  1  0.12074385  0.38310131  0.24595946  1
  V  V8  1  0.87627984  0.00233422  0.37330517  1
  V  V9  1  0.87734397  0.37116860  0.00599926  1
  V  V10  1  0.29052565  0.62276840  0.84276331  1
  V  V11  1  0.14028457  0.24330548  0.86751147  1
  V  V12  1  0.49723130  0.87755470  0.37806879  1
  V  V13  1  0.24542752  0.00747850  0.25412754  1
  V  V14  1  0.36744835  0.13085923  0.25160170  1
  V  V15  1  0.00292885  0.62147039  0.12367151  1
  V  V16  1  0.87978688  0.49505624  0.87740358  1
  V  V17  1  0.12266190  0.75027497  0.37631836  1
  V  V18  1  0.49664785  0.25015527  0.24920186  1
  V  V19  1  -0.00145637  0.75272803  0.24809761  1
  V  V20  1  0.87400682  0.74856993  0.62305691  1
  V  V21  1  0.11706787  0.00320708  0.12380112  1
  V  V22  1  0.62502285  0.74879443  0.87377374  1
  V  V23  1  0.13266440  0.12235338  -0.00387724  1
  V  V24  1  0.12456026  -0.00146843  0.63724432  1
  V  V25  1  0.51244590  0.00553211  0.50408403  1
  V  V26  1  0.87286644  0.62586484  0.24789244  1
  V  V27  1  0.46895999  0.59660113  0.64407825  1
  V  V28  1  0.01428600  0.37264155  0.87398219  1
  V  V29  1  0.49508911  0.75130287  0.74739934  1
  V  V30  1  0.50310775  0.49778069  0.49890394  1
  V  V31  1  0.75182648  0.62369739  0.88250673  1
  V  V32  1  0.62783746  0.24820791  0.38683574  1
  V  V33  1  0.74845976  0.00100470  0.25120016  1
  V  V34  1  0.87094914  0.36780659  0.49053130  1
  V  V35  1  0.74437874  0.00313443  0.74492235  1
  V  V36  1  0.37000276  0.37527498  0.49949910  1
  V  V37  1  0.81054806  0.19173886  0.06018112  1
  V  V38  1  0.62652769  0.25514754  0.87996261  1
  V  V39  1  0.25078125  0.50374767  0.24981661  1
  V  V40  1  0.00094596  0.49173708  0.49315340  1
  V  V41  1  -0.00163422  0.24887740  0.22597912  1
  V  V42  1  0.12978114  0.62560528  -0.00158290  1
  V  V43  1  0.00066785  -0.00044122  0.50017897  1
  V  V44  1  0.86662500  0.76327807  0.11870203  1
  V  V45  1  0.00127129  0.62178839  0.62383928  1
  V  V46  1  0.62072673  0.87977535  0.74303545  1
  V  V47  1  0.63207906  0.50037623  0.62498850  1
  V  V48  1  0.36923692  0.01125723  0.37881060  1
  V  V49  1  0.86877835  0.25093775  0.62349689  1
  V  V50  1  0.12404537  0.49323985  0.63696146  1
  V  V51  1  0.00509973  0.25461799  0.74863950  1
  V  V52  1  0.24274893  0.37355083  0.63350488  1
  V  V53  1  0.62487465  0.87686171  0.24886044  1
  V  V54  1  0.75075690  0.12953051  0.87609576  1
  V  V55  1  0.75152357  0.49682496  0.24668386  1
  V  V56  1  0.87557753  0.62230523  0.75058031  1
  V  V57  1  0.87639727  -0.01527790  0.87307646  1
  V  V58  1  0.49919878  0.37408038  0.37540708  1
  V  V59  1  0.51504232  0.12250924  0.62718581  1
  V  V60  1  0.74943511  0.62345462  0.37436755  1
  V  V61  1  0.74925004  0.74886560  0.50045564  1
  V  V62  1  0.37139294  0.88175599  0.50147125  1
  V  V63  1  0.35434969  0.26224083  0.11508021  1
  V  V64  1  0.87578894  0.12745872  0.75091772  1
  V  V65  1  0.62382107  0.62373953  0.50538193  1
  V  V66  1  0.24733409  0.75009616  0.50205842  1
  V  V67  1  0.37870873  0.88219087  0.00316601  1
  V  V68  1  0.24381603  0.87885274  0.64114569  1
  V  V69  1  0.12926645  0.12151848  0.49242860  1
  V  V70  1  0.75052633  0.49829820  0.75237004  1
  V  V71  1  0.37185954  0.23762110  0.62752438  1
  V  V72  1  0.62245581  0.37400840  0.75275286  1
  V  V73  1  0.61868027  0.13410295  0.00375779  1
  V  V74  1  0.37665507  0.74974415  0.13116473  1
  V  V75  1  0.62339119  0.74928097  0.37595762  1
  V  V76  1  0.11058403  0.25533649  0.37425510  1
  V  V77  1  0.62554893  0.37307629  0.24903790  1
  V  V78  1  0.48410998  0.38104816  0.88383277  1
  V  V79  1  0.62264966  0.49841855  0.12000870  1
  V  V80  1  0.00646219  0.75730362  0.75185100  1
  V  V81  1  0.49413403  0.74755569  0.25284810  1
  V  V82  1  0.37279698  0.51036075  0.37740750  1
  V  V83  1  0.24893693  0.24606993  0.48795682  1
  V  V84  1  0.49975358  0.62654610  0.12918976  1
  Zn  Zn85  1  0.87825228  0.12895016  0.23789865  1
  Zn  Zn86  1  0.49276643  0.00981843  -0.00784977  1
  Zn  Zn87  1  0.00190016  0.12591777  0.62461969  1
  Zn  Zn88  1  0.88042826  0.49473744  0.36994530  1
  Zn  Zn89  1  0.00513791  0.49491173  0.00467450  1
  Zn  Zn90  1  0.12372824  0.87760285  0.25185130  1
  Zn  Zn91  1  0.25135626  0.74971097  -0.00126208  1
  Zn  Zn92  1  0.12861367  0.61832960  0.50132952  1
  Zn  Zn93  1  -0.00121328  0.87533062  0.37572853  1
  Zn  Zn94  1  0.19245810  0.45127335  0.07578195  1
  Zn  Zn95  1  -0.00424053  -0.00470714  0.00654527  1
  Zn  Zn96  1  0.75845011  0.77811161  -0.00682762  1
  Zn  Zn97  1  0.47676175  0.50432361  -0.00411225  1
  Zn  Zn98  1  0.62313336  0.62385510  0.00048662  1
  Zn  Zn99  1  0.87499401  0.87508419  0.49831309  1
  Zn  Zn100  1  0.49469997  0.24351057  0.75556669  1
  Zn  Zn101  1  0.25329427  0.62918917  0.37687463  1
  Zn  Zn102  1  0.75234672  0.36731181  0.12008811  1
  Zn  Zn103  1  0.74728994  0.36826634  0.62070897  1
  Zn  Zn104  1  0.48966400  0.12858062  0.12316741  1
  Zn  Zn105  1  0.01517922  0.87326711  0.88382525  1
  Zn  Zn106  1  0.13700159  0.74914695  0.87221991  1
  Zn  Zn107  1  0.18073037  0.18842232  0.18631451  1
  Zn  Zn108  1  0.18904169  0.18045149  0.68463553  1
  Zn  Zn109  1  0.18792358  0.68558409  0.19055874  1
  Zn  Zn110  1  0.18795420  0.68396526  0.68491053  1
  Zn  Zn111  1  0.68195434  0.18201424  0.19851605  1
  Zn  Zn112  1  0.68577655  0.19093221  0.69011141  1
  Zn  Zn113  1  0.68583766  0.68818697  0.18625359  1
  Zn  Zn114  1  0.68657785  0.68697952  0.69008034  1
  Zn  Zn115  1  0.30670488  0.31870576  0.31082745  1
  Zn  Zn116  1  0.31309886  0.30895449  0.80719222  1
  Zn  Zn117  1  0.31025342  0.81770933  0.31512942  1
  Zn  Zn118  1  0.31178337  0.81415173  0.81905200  1
  Zn  Zn119  1  0.81653576  0.30774991  0.30624367  1
  Zn  Zn120  1  0.81381653  0.31342475  0.81693244  1
  Zn  Zn121  1  0.81194537  0.81482695  0.31118436  1
  Zn  Zn122  1  0.80997225  0.80794590  0.80373588  1
  Zn  Zn123  1  0.18460541  0.43443590  0.43659277  1
  Zn  Zn124  1  0.29112001  0.43803455  0.93936865  1
  Zn  Zn125  1  0.18650835  0.93517570  0.43871390  1
  Zn  Zn126  1  0.18766495  0.93177601  0.93669224  1
  Zn  Zn127  1  0.69195271  0.43356253  0.43475101  1
  Zn  Zn128  1  0.69148023  0.43406629  0.94192426  1
  Zn  Zn129  1  0.68883445  0.93768481  0.43457752  1
  Zn  Zn130  1  0.68125949  0.94545330  0.92897553  1
  Zn  Zn131  1  0.30618918  0.06820186  0.06345262  1
  Zn  Zn132  1  0.30764259  0.06164905  0.56813908  1
  Zn  Zn133  1  0.31865073  0.57213953  0.06549306  1
  Zn  Zn134  1  0.31286804  0.55924022  0.57853195  1
  Zn  Zn135  1  0.80048378  0.01651132  0.05643805  1
  Zn  Zn136  1  0.81346245  0.06335644  0.56294766  1
  Zn  Zn137  1  0.81751734  0.56145325  0.06307102  1
  Zn  Zn138  1  0.81542615  0.55753709  0.55949869  1
  Zn  Zn139  1  0.43240256  0.43988458  0.18800826  1
  Zn  Zn140  1  0.43663474  0.42535584  0.68609238  1
  Zn  Zn141  1  0.43727320  0.93993180  0.19033284  1
  Zn  Zn142  1  0.42766899  0.95461736  0.69521128  1
  Zn  Zn143  1  0.94105745  0.43306394  0.18883360  1
  Zn  Zn144  1  0.93706152  0.43399147  0.68485394  1
  Zn  Zn145  1  0.93647759  0.93642244  0.18928209  1
  Zn  Zn146  1  0.93520940  0.93810951  0.68546070  1
  Zn  Zn147  1  0.05996657  0.07060490  0.31079713  1
  Zn  Zn148  1  0.06015541  0.06621924  0.81704371  1
  Zn  Zn149  1  0.06433377  0.56771745  0.31416044  1
  Zn  Zn150  1  0.06488929  0.56375111  0.81605477  1
  Zn  Zn151  1  0.55905623  0.06666992  0.31719162  1
  Zn  Zn152  1  0.56142975  0.06673436  0.81055275  1
  Zn  Zn153  1  0.56342369  0.56158259  0.31083905  1
  Zn  Zn154  1  0.55890151  0.56163355  0.81376561  1
  Zn  Zn155  1  0.43967608  0.18677312  0.44121715  1
  Zn  Zn156  1  0.43140955  0.19445983  0.93830950  1
  Zn  Zn157  1  0.44012706  0.68761787  0.44950303  1
  Zn  Zn158  1  0.44010049  0.69375240  0.94340524  1
  Zn  Zn159  1  0.93564076  0.18380927  0.43699781  1
  Zn  Zn160  1  0.95095058  0.18041971  0.93504612  1
  Zn  Zn161  1  0.93673679  0.68341560  0.43712393  1
  Zn  Zn162  1  0.93753118  0.69049162  0.93983677  1
  Zn  Zn163  1  0.10884590  0.32948625  0.03331478  1
  Zn  Zn164  1  0.05922211  0.31055230  0.56145228  1
  Zn  Zn165  1  0.06135373  0.81556602  0.05737475  1
  Zn  Zn166  1  0.06231983  0.81515984  0.56431011  1
  Zn  Zn167  1  0.55574895  0.31406410  0.06456613  1
  Zn  Zn168  1  0.55957593  0.31086539  0.56605587  1
  Zn  Zn169  1  0.59821250  0.83789073  0.04224445  1
  Zn  Zn170  1  0.56121167  0.81601576  0.56244976  1
  O  O171  1  0.13438331  0.11691025  0.10759064  1
  O  O172  1  0.12313118  0.11643676  0.61137889  1
  O  O173  1  0.10738386  0.63703567  0.12224781  1
  O  O174  1  0.11705658  0.61516403  0.62108859  1
  O  O175  1  0.61928456  0.12231728  0.12016433  1
  O  O176  1  0.61385615  0.13133342  0.62243918  1
  O  O177  1  0.61772322  0.61760700  0.12439667  1
  O  O178  1  0.62885769  0.61386594  0.62066263  1
  O  O179  1  0.37796617  0.38094168  0.38563843  1
  O  O180  1  0.38052562  0.37699158  0.87207407  1
  O  O181  1  0.37876109  0.88682983  0.38307393  1
  O  O182  1  0.38525401  0.86731553  0.88934988  1
  O  O183  1  0.87107583  0.37340359  0.38670699  1
  O  O184  1  0.88425556  0.37562500  0.88555920  1
  O  O185  1  0.87362576  0.88988985  0.37643195  1
  O  O186  1  0.86620376  0.88489219  0.86826706  1
  O  O187  1  0.25818417  -0.00581839  0.36729686  1
  O  O188  1  0.25650633  -0.00075360  0.87322731  1
  O  O189  1  0.25780273  0.50374875  0.37479129  1
  O  O190  1  0.25787761  0.53296208  0.87466149  1
  O  O191  1  0.75452016  0.00996747  0.37132281  1
  O  O192  1  0.75642088  0.00843472  0.86542085  1
  O  O193  1  0.74936891  0.50388124  0.36060524  1
  O  O194  1  0.75586434  0.50557724  0.87077656  1
  O  O195  1  0.25422753  0.51246885  0.14626994  1
  O  O196  1  0.23700781  0.48163685  0.61415631  1
  O  O197  1  0.24353268  0.99459321  0.13532576  1
  O  O198  1  0.23711568  0.99010464  0.62015636  1
  O  O199  1  0.74302273  0.50145979  0.13418806  1
  O  O200  1  0.74387753  0.49615631  0.63111463  1
  O  O201  1  0.73002437  1.00096575  0.13826780  1
  O  O202  1  0.75407938  0.98919915  0.63018568  1
  O  O203  1  0.01027765  0.36567825  0.25054013  1
  O  O204  1  -0.00939491  0.36094140  0.75669886  1
  O  O205  1  0.00024453  0.86320921  0.25356546  1
  O  O206  1  -0.00574456  0.85805960  0.74540539  1
  O  O207  1  0.50316190  0.36957333  0.25821172  1
  O  O208  1  0.50799506  0.37445702  0.76020652  1
  O  O209  1  0.50358546  0.87033374  0.26100409  1
  O  O210  1  0.50429213  0.87307843  0.75139644  1
  O  O211  1  0.48773983  0.13447552  0.25208531  1
  O  O212  1  0.50284128  0.12685520  0.73434945  1
  O  O213  1  0.50650546  0.63493150  0.24159527  1
  O  O214  1  0.50864029  0.63476115  0.73638613  1
  O  O215  1  0.99828857  0.14209643  0.24623998  1
  O  O216  1  0.98969798  0.13419014  0.74917241  1
  O  O217  1  0.99528111  0.63482872  0.24331714  1
  O  O218  1  0.99381291  0.62818079  0.73947653  1
  O  O219  1  0.37488814  0.25402973  0.01694694  1
  O  O220  1  0.36685787  0.25553119  0.50388154  1
  O  O221  1  0.37585604  0.76144524  0.01464669  1
  O  O222  1  0.36988541  0.76704541  0.50213963  1
  O  O223  1  0.87691744  0.24635044  0.00128376  1
  O  O224  1  0.88130100  0.25999418  0.50690688  1
  O  O225  1  0.87056163  0.75033600  0.01302646  1
  O  O226  1  0.86725744  0.75079353  0.50485513  1
  O  O227  1  0.12891892  0.24391363  0.49358909  1
  O  O228  1  0.11933977  0.22893113  0.98170437  1
  O  O229  1  0.13208483  0.75060664  0.49565841  1
  O  O230  1  0.12872394  0.74068170  1.00187373  1
  O  O231  1  0.62248062  0.25882203  0.48586816  1
  O  O232  1  0.62073056  0.24287774  0.99613129  1
  O  O233  1  0.62846093  0.74428122  0.49674667  1
  O  O234  1  0.62148385  0.74256399  0.98104598  1
  O  O235  1  0.49399028  0.25067689  0.14100969  1
  O  O236  1  0.48993157  0.23769937  0.62197238  1
  O  O237  1  0.49533792  0.74514177  0.13742828  1
  O  O238  1  0.49177793  0.75488745  0.63247167  1
  O  O239  1  1.01015699  0.25247808  0.13056553  1
  O  O240  1  0.98961854  0.24750624  0.63185706  1
  O  O241  1  0.98792142  0.74551786  0.13269881  1
  O  O242  1  0.99551203  0.74167318  0.63025315  1
  O  O243  1  0.00921252  0.24728238  0.37515080  1
  O  O244  1  0.00706928  0.25267782  0.86441395  1
  O  O245  1  0.00423388  0.75013255  0.36852181  1
  O  O246  1  -0.00763405  0.75052626  0.85779938  1
  O  O247  1  0.50487785  0.25370388  0.36829420  1
  O  O248  1  0.50630833  0.26313646  0.87470771  1
  O  O249  1  0.50456818  0.75320726  0.37346480  1
  O  O250  1  0.50709859  0.75960368  0.86529797  1
  O  O251  1  0.24169305  0.13411206  0.50366792  1
  O  O252  1  0.23903113  0.11477498  0.98288709  1
  O  O253  1  0.25126891  0.64031952  0.50323059  1
  O  O254  1  0.23296715  0.63234054  1.01670040  1
  O  O255  1  0.75204829  0.12251716  0.48566964  1
  O  O256  1  0.74621808  0.13000865  1.00024640  1
  O  O257  1  0.74523088  0.62834670  0.49469033  1
  O  O258  1  0.74891917  0.62217272  0.98763944  1
  O  O259  1  0.21162940  0.37882951  -0.00484340  1
  O  O260  1  0.25546764  0.36572325  0.50436960  1
  O  O261  1  0.26020291  0.87156937  0.01433573  1
  O  O262  1  0.25586665  0.86719407  0.50599959  1
  O  O263  1  0.76587403  0.37204118  0.00245384  1
  O  O264  1  0.76593176  0.37733218  0.50250899  1
  O  O265  1  0.70878159  0.87732047  0.01179785  1
  O  O266  1  0.74862388  0.86931710  0.50716887  1
  O  O267  1  0.13056406  0.49081764  0.25972967  1
  O  O268  1  0.11823076  0.50170137  0.73621487  1
  O  O269  1  0.13104946  1.00210525  0.24647709  1
  O  O270  1  0.11531841  1.00644124  0.73521204  1
  O  O271  1  0.63117213  0.49387239  0.24112473  1
  O  O272  1  0.62877174  0.49386277  0.74309678  1
  O  O273  1  0.62731663  0.99745838  0.24914822  1
  O  O274  1  0.63624821  0.99431472  0.75321841  1
  O  O275  1  0.36927671  0.01302924  0.25749543  1
  O  O276  1  0.35694285  0.00515463  0.76000777  1
  O  O277  1  0.36073482  0.49472207  0.26390060  1
  O  O278  1  0.39115389  0.52880477  0.67573256  1
  O  O279  1  0.86711820  0.00445773  0.25470392  1
  O  O280  1  0.86404945  0.00597961  0.75473564  1
  O  O281  1  0.86749452  0.50385154  0.24975469  1
  O  O282  1  0.87044896  0.50236684  0.75601228  1
  O  O283  1  0.12485178  0.36564944  0.36413792  1
  O  O284  1  0.11400392  0.35907765  0.86582462  1
  O  O285  1  0.12218666  0.86314513  0.37343196  1
  O  O286  1  0.12865723  0.86172711  0.87472249  1
  O  O287  1  0.62097138  0.36906680  0.36786447  1
  O  O288  1  0.62145785  0.36979696  0.87113382  1
  O  O289  1  0.61729981  0.87050016  0.36807560  1
  O  O290  1  0.61875913  0.86837442  0.85982197  1
  O  O291  1  0.37075949  0.13750018  0.13589859  1
  O  O292  1  0.37909325  0.13564169  0.61779625  1
  O  O293  1  0.38296785  0.64175855  0.13085880  1
  O  O294  1  0.37782872  0.65377365  0.60458969  1
  O  O295  1  0.85949439  0.12083191  0.11315318  1
  O  O296  1  0.87575880  0.12984094  0.63560823  1
  O  O297  1  0.88364079  0.63324955  0.13053752  1
  O  O298  1  0.88061826  0.62711127  0.62911046  1
  O  O299  1  0.25480173  0.25142026  0.12723538  1
  O  O300  1  0.25574516  0.25568872  0.61674257  1
  O  O301  1  0.25989453  0.76017017  0.13576842  1
  O  O302  1  0.25443668  0.75954963  0.61905497  1
  O  O303  1  0.75234193  0.24501625  0.12597651  1
  O  O304  1  0.76393250  0.24935968  0.63012706  1
  O  O305  1  0.76363184  0.74525934  0.12423160  1
  O  O306  1  0.75293229  0.75811684  0.62167429  1
  O  O307  1  0.24092058  0.25402602  0.38489981  1
  O  O308  1  0.24132199  0.24614299  0.86649356  1
  O  O309  1  0.24320599  0.75100381  0.38294137  1
  O  O310  1  0.25795077  0.72698291  0.87668159  1
  O  O311  1  0.74374369  0.23708199  0.36744687  1
  O  O312  1  0.73561555  0.24429961  0.87031008  1
  O  O313  1  0.74266019  0.74520359  0.37941280  1
  O  O314  1  0.74390428  0.74339375  0.87528028  1
  O  O315  1  0.02263455  0.10672089  -0.01679936  1
  O  O316  1  0.00547586  0.11386658  0.50145596  1
  O  O317  1  0.00393763  0.62793439  0.01264716  1
  O  O318  1  -0.00288424  0.61694604  0.51300105  1
  O  O319  1  0.50487717  0.12727976  0.00234665  1
  O  O320  1  0.49728611  0.11649494  0.51178682  1
  O  O321  1  0.50109150  0.62262790  0.01487112  1
  O  O322  1  0.50355373  0.61385444  0.51850012  1
  O  O323  1  0.49127132  0.37891313  0.49590711  1
  O  O324  1  0.50113968  0.37835049  0.98549239  1
  O  O325  1  0.48988522  0.88359204  0.49809413  1
  O  O326  1  0.49860920  0.87937136  0.99031137  1
  O  O327  1  0.98701839  0.38219630  0.50476471  1
  O  O328  1  1.00215627  0.37434821  0.98997650  1
  O  O329  1  0.99734931  0.88687224  0.49756235  1
  O  O330  1  0.99738851  0.88272174  0.99685124  1
  O  O331  1  0.49417000  0.49471264  0.37966110  1
  O  O332  1  0.50342211  0.48519615  0.87749679  1
  O  O333  1  0.49013378  0.99884442  0.38457298  1
  O  O334  1  0.50700639  0.98805809  0.87402536  1
  O  O335  1  0.99811815  0.50864072  0.38937125  1
  O  O336  1  0.99675579  0.48947128  0.87512757  1
  O  O337  1  0.99181218  1.00142121  0.37916705  1
  O  O338  1  0.98202739  0.99131573  0.86040301  1
  O  O339  1  0.01349765  -0.00146834  0.13044412  1
  O  O340  1  0.00476847  0.00090920  0.61639382  1
  O  O341  1  -0.00611868  0.51863909  0.12859307  1
  O  O342  1  0.00400698  0.50392214  0.61777912  1
  O  O343  1  0.50853195  0.00745772  0.12893751  1
  O  O344  1  0.49581352  0.01364787  0.61948635  1
  O  O345  1  0.50570868  0.50838910  0.12910518  1
  O  O346  1  0.51955455  0.49327558  0.61772621  1
  O  O347  1  0.23579454  0.39054990  0.25651907  1
  O  O348  1  0.25687764  0.37623602  0.73130587  1
  O  O349  1  0.25094661  0.88796965  0.24273470  1
  O  O350  1  0.25104145  0.86723966  0.73937519  1
  O  O351  1  0.74680001  0.38074476  0.24405005  1
  O  O352  1  0.73824136  0.38057681  0.75211822  1
  O  O353  1  0.73811766  0.88947942  0.26094215  1
  O  O354  1  0.74152508  0.88142549  0.74138288  1
  O  O355  1  0.25314681  0.11647065  0.24974689  1
  O  O356  1  0.25202413  0.12136912  0.75818998  1
  O  O357  1  0.24009477  0.61000380  0.26145881  1
  O  O358  1  0.26729706  0.62896603  0.74418037  1
  O  O359  1  0.75310165  0.11389943  0.25941736  1
  O  O360  1  0.75373027  0.11852937  0.75311945  1
  O  O361  1  0.75233073  0.61754329  0.25419736  1
  O  O362  1  0.75545102  0.61954184  0.76017081  1
  O  O363  1  0.37551112  0.11702734  0.37166822  1
  O  O364  1  0.36497135  0.12611343  0.87788456  1
  O  O365  1  0.37824225  0.61321999  0.38506071  1
  O  O366  1  0.38998237  0.62844537  0.86331634  1
  O  O367  1  0.86472873  0.11727930  0.37191185  1
  O  O368  1  0.86937024  0.12256437  0.86320644  1
  O  O369  1  0.86614273  0.62222731  0.36642253  1
  O  O370  1  0.86961373  0.61833405  0.87187168  1
  O  O371  1  0.12281439  0.37965148  0.14202176  1
  O  O372  1  0.13523762  0.37505368  0.62253442  1
  O  O373  1  0.13473552  0.88195181  0.12960760  1
  O  O374  1  0.13205965  0.88574314  0.62195828  1
  O  O375  1  0.62607692  0.38107741  0.13060816  1
  O  O376  1  0.62726153  0.37796990  0.63459180  1
  O  O377  1  0.61120952  0.88659315  0.14459859  1
  O  O378  1  0.63130193  0.87147135  0.63582547  1
  O  O379  1  0.11713665  0.25794766  0.25590671  1
  O  O380  1  0.11442967  0.23931402  0.75294517  1
  O  O381  1  0.11581159  0.75109352  0.25851453  1
  O  O382  1  0.10862934  0.73930590  0.74881981  1
  O  O383  1  0.61423592  0.25474762  0.25806807  1
  O  O384  1  0.61978244  0.25874040  0.75918010  1
  O  O385  1  0.61700697  0.75865084  0.25497370  1
  O  O386  1  0.61660508  0.75731158  0.75509342  1
  O  O387  1  0.37628223  0.24206566  0.25510784  1
  O  O388  1  0.37976817  0.25605511  0.73117327  1
  O  O389  1  0.38783269  0.75783602  0.25087800  1
  O  O390  1  0.38723352  0.75882987  0.74185608  1
  O  O391  1  0.89145093  0.25005533  0.24325636  1
  O  O392  1  0.87928608  0.24349911  0.74497932  1
  O  O393  1  0.87930167  0.74579811  0.24440271  1
  O  O394  1  0.88100045  0.74083252  0.74070566  1
  O  O395  1  0.37942776  0.49159241  0.49707237  1
  O  O396  1  0.36557790  0.49239228  1.00742726  1
  O  O397  1  0.37557184  0.99494497  0.49563233  1
  O  O398  1  0.37828806  0.98629930  1.01587537  1
  O  O399  1  0.88165651  0.48639885  0.49732225  1
  O  O400  1  0.88165532  0.49066759  0.99382126  1
  O  O401  1  0.88308375  1.00053738  0.49228309  1
  O  O402  1  0.87500320  1.00438433  0.97739309  1
  O  O403  1  0.12884351  0.00309530  0.01019417  1
  O  O404  1  0.11782302  0.00568231  0.50077694  1
  O  O405  1  0.11868404  0.52230142  0.01394547  1
  O  O406  1  0.11511943  0.49716615  0.50719283  1
  O  O407  1  0.62050667  0.01760625  0.00879781  1
  O  O408  1  0.61098619  -0.00653093  0.49681528  1
  O  O409  1  0.62554376  0.49987016  0.01377923  1
  O  O410  1  0.62524396  0.50197906  0.50590596  1
  O  O411  1  0.37166264  0.35916821  0.13863818  1
  O  O412  1  0.36721781  0.36419908  0.61245677  1
  O  O413  1  0.37173373  0.86791889  0.12576286  1
  O  O414  1  0.36813034  0.87392627  0.61876923  1
  O  O415  1  0.87872204  0.37659669  0.10999145  1
  O  O416  1  0.87134900  0.36630495  0.61611488  1
  O  O417  1  0.87055891  0.86281953  0.13021950  1
  O  O418  1  0.86428425  0.86799511  0.62272512  1
  O  O419  1  0.12338874  0.13296596  0.38636158  1
  O  O420  1  0.13944291  0.12448879  0.87526272  1
  O  O421  1  0.12511646  0.63885038  0.38331299  1
  O  O422  1  0.11571465  0.63147269  0.89339682  1
  O  O423  1  0.63756430  0.13256131  0.37205212  1
  O  O424  1  0.62882035  0.13315641  0.88419612  1
  O  O425  1  0.62845170  0.62907312  0.38333507  1
  O  O426  1  0.63251569  0.63179562  0.87189191  1
