# generated using pymatgen
data_V85Zn86O256
_symmetry_space_group_name_H-M   'P 1'
_cell_length_a   16.91155426
_cell_length_b   16.91640215
_cell_length_c   16.91303755
_cell_angle_alpha   90.01682815
_cell_angle_beta   90.00086529
_cell_angle_gamma   90.07756170
_symmetry_Int_Tables_number   1
_chemical_formula_structural   V85Zn86O256
_chemical_formula_sum   'V85 Zn86 O256'
_cell_volume   4838.52200499
_cell_formula_units_Z   1
loop_
 _symmetry_equiv_pos_site_id
 _symmetry_equiv_pos_as_xyz
  1  'x, y, z'
loop_
 _atom_site_type_symbol
 _atom_site_label
 _atom_site_symmetry_multiplicity
 _atom_site_fract_x
 _atom_site_fract_y
 _atom_site_fract_z
 _atom_site_occupancy
  V  V0  1  0.62746816  0.62308769  -0.00112287  1
  V  V1  1  0.74883459  0.24972076  0.00351608  1
  V  V2  1  0.49686810  0.12350670  0.64156322  1
  V  V3  1  0.35951801  0.00331354  0.37323848  1
  V  V4  1  0.36806742  0.87761063  -0.00003869  1
  V  V5  1  0.12466815  0.87116213  0.74657518  1
  V  V6  1  0.37034428  0.01289992  0.86884752  1
  V  V7  1  -0.00031046  0.49489655  -0.00282319  1
  V  V8  1  0.49180114  0.49500746  0.00083718  1
  V  V9  1  0.74847240  0.51079133  0.75446441  1
  V  V10  1  0.00097289  0.86815902  0.86959062  1
  V  V11  1  0.75034000  0.37697837  0.62834182  1
  V  V12  1  0.75304695  0.25078290  0.50492836  1
  V  V13  1  0.61663225  0.50400693  0.62753355  1
  V  V14  1  0.87814243  0.00129973  0.38069579  1
  V  V15  1  0.11908523  0.37685418  0.73677809  1
  V  V16  1  0.49887434  0.75139307  0.24955369  1
  V  V17  1  0.24784681  0.62337291  0.38034262  1
  V  V18  1  0.62594071  0.87697977  0.24791880  1
  V  V19  1  0.24961021  0.49563011  0.24990122  1
  V  V20  1  0.62443678  0.49875356  0.12596628  1
  V  V21  1  0.12623779  0.62247720  -0.00594921  1
  V  V22  1  0.87452753  0.75087234  0.12480952  1
  V  V23  1  0.37602952  0.73623935  0.62793288  1
  V  V24  1  0.11723430  0.50497749  0.60891460  1
  V  V25  1  0.48952784  0.37022507  0.87688992  1
  V  V26  1  0.62371365  0.37454227  0.25244721  1
  V  V27  1  0.24719052  0.01228361  0.74834799  1
  V  V28  1  0.01434466  0.12488404  0.62986575  1
  V  V29  1  0.12376367  0.23261441  0.37397693  1
  V  V30  1  0.14064606  -0.00243705  0.12481271  1
  V  V31  1  0.75026378  0.88203787  0.62507866  1
  V  V32  1  0.87072441  0.50316006  0.87569128  1
  V  V33  1  0.75122075  0.12649460  0.37733549  1
  V  V34  1  0.88334036  0.13349823  0.25178878  1
  V  V35  1  0.49481993  0.73418781  0.74699505  1
  V  V36  1  0.49672639  0.24795406  0.25072587  1
  V  V37  1  0.61645997  0.62695194  0.50564921  1
  V  V38  1  0.12322721  0.74701955  0.37629309  1
  V  V39  1  0.24592894  0.74898998  0.50281218  1
  V  V40  1  0.50092606  0.00126635  -0.00117885  1
  V  V41  1  0.75310401  0.00177140  0.24913799  1
  V  V42  1  0.37163491  0.25326970  0.11319542  1
  V  V43  1  0.74895575  0.62514330  0.37696439  1
  V  V44  1  0.12000982  0.36818447  0.25210244  1
  V  V45  1  0.13962507  0.87633209  0.24380864  1
  V  V46  1  0.00147297  0.62400373  0.12348477  1
  V  V47  1  0.61833460  0.36936513  0.75163085  1
  V  V48  1  0.62482727  0.24950433  0.37835686  1
  V  V49  1  0.37316783  0.62588145  0.25026147  1
  V  V50  1  0.36158095  0.12198133  0.25040322  1
  V  V51  1  0.12907671  0.25241323  0.86519133  1
  V  V52  1  0.49651278  0.87406547  0.87199548  1
  V  V53  1  0.87636003  0.87755923  0.00013696  1
  V  V54  1  0.25233399  0.50159043  0.74342544  1
  V  V55  1  0.50063115  0.88337116  0.37661582  1
  V  V56  1  0.62462046  0.75148109  0.37533819  1
  V  V57  1  0.24846841  0.75083520  -0.00261345  1
  V  V58  1  0.49797652  0.37542173  0.38169284  1
  V  V59  1  0.00097860  0.75419200  0.24940513  1
  V  V60  1  0.36242269  0.37120420  0.50115470  1
  V  V61  1  0.37005345  0.75613870  0.12543137  1
  V  V62  1  0.88478436  0.49880217  0.38260473  1
  V  V63  1  0.24982564  0.22884431  0.49330419  1
  V  V64  1  0.14009902  0.13327568  -0.00815956  1
  V  V65  1  0.50235327  0.12631539  0.12224410  1
  V  V66  1  0.62675119  0.00422335  0.11850558  1
  V  V67  1  0.74940710  0.74842757  -0.00322356  1
  V  V68  1  0.62073478  0.24436875  0.87680169  1
  V  V69  1  0.75470246  0.75225198  0.50314604  1
  V  V70  1  0.37300667  0.24906755  0.63691067  1
  V  V71  1  0.87570094  0.62564834  0.25094833  1
  V  V72  1  0.74933528  0.50016785  0.25247092  1
  V  V73  1  0.74999325  0.12519017  0.88126763  1
  V  V74  1  0.88048964  0.24806909  0.63763971  1
  V  V75  1  0.00450084  0.00303074  -0.00045241  1
  V  V76  1  0.25274336  0.37312618  0.11090575  1
  V  V77  1  -0.00243852  0.63225479  0.61657771  1
  V  V78  1  0.01979411  0.00535706  0.50390225  1
  V  V79  1  0.62141318  0.11821598  0.50767499  1
  V  V80  1  0.24977709  0.87826952  0.62787750  1
  V  V81  1  0.62074401  0.87692025  0.74369029  1
  V  V82  1  0.62427243  0.74501991  0.87301108  1
  V  V83  1  0.74717979  0.00323955  0.75000646  1
  V  V84  1  0.00430551  0.13150108  0.12495794  1
  Zn  Zn85  1  0.87422838  0.37356150  0.00253862  1
  Zn  Zn86  1  0.37679787  0.87686208  0.50297691  1
  Zn  Zn87  1  0.50009611  0.00044522  0.50758198  1
  Zn  Zn88  1  -0.00507461  0.36707580  0.86660211  1
  Zn  Zn89  1  0.75040562  0.87755510  0.12421715  1
  Zn  Zn90  1  0.87967164  0.25390828  0.12707512  1
  Zn  Zn91  1  0.88079314  0.87713563  0.50237878  1
  Zn  Zn92  1  0.00412651  0.36835092  0.37961036  1
  Zn  Zn93  1  0.88390965  0.63211792  0.75525832  1
  Zn  Zn94  1  0.88605522  0.38116822  0.50902521  1
  Zn  Zn95  1  0.88031504  0.12605738  0.75309795  1
  Zn  Zn96  1  0.49836655  0.62558769  0.12542098  1
  Zn  Zn97  1  0.12357735  0.74633769  0.86830579  1
  Zn  Zn98  1  0.37394311  0.50170036  0.87026654  1
  Zn  Zn99  1  0.88237824  0.75741088  0.64069368  1
  Zn  Zn100  1  0.87671100  0.00303360  0.87439314  1
  Zn  Zn101  1  0.26259827  0.62630390  0.86690781  1
  Zn  Zn102  1  0.37466865  0.49995842  0.37900482  1
  Zn  Zn103  1  0.75275482  0.37246029  0.12658310  1
  Zn  Zn104  1  0.49319871  0.50449507  0.50488640  1
  Zn  Zn105  1  0.12567972  0.49648270  0.12349377  1
  Zn  Zn106  1  0.00206741  0.87687122  0.37613438  1
  Zn  Zn107  1  0.18678393  0.19034108  0.18382327  1
  Zn  Zn108  1  0.19213205  0.19499409  0.68435094  1
  Zn  Zn109  1  0.18816434  0.68725833  0.18477527  1
  Zn  Zn110  1  0.18158254  0.68323829  0.68523682  1
  Zn  Zn111  1  0.68796947  0.18605722  0.18916263  1
  Zn  Zn112  1  0.68456185  0.18656798  0.69015159  1
  Zn  Zn113  1  0.68771027  0.68741390  0.18538354  1
  Zn  Zn114  1  0.68963875  0.69105243  0.68634445  1
  Zn  Zn115  1  0.30996679  0.30877753  0.31203830  1
  Zn  Zn116  1  0.30100755  0.31843784  0.81338739  1
  Zn  Zn117  1  0.31324024  0.81475874  0.31577700  1
  Zn  Zn118  1  0.31210614  0.81205146  0.81133598  1
  Zn  Zn119  1  0.81335937  0.31486580  0.31381790  1
  Zn  Zn120  1  0.80936650  0.31785802  0.81565858  1
  Zn  Zn121  1  0.81371967  0.81591206  0.31468389  1
  Zn  Zn122  1  0.81132807  0.81407417  0.81465016  1
  Zn  Zn123  1  0.18638567  0.43164049  0.43464638  1
  Zn  Zn124  1  0.18537787  0.43723071  0.92797612  1
  Zn  Zn125  1  0.18750256  0.93090034  0.43701075  1
  Zn  Zn126  1  0.18750300  0.93911592  0.93322093  1
  Zn  Zn127  1  0.68859412  0.43907020  0.44181642  1
  Zn  Zn128  1  0.68578592  0.43285061  0.93713024  1
  Zn  Zn129  1  0.68851672  0.93949547  0.43789269  1
  Zn  Zn130  1  0.68685744  0.93482684  0.93515220  1
  Zn  Zn131  1  0.31607482  0.06535089  0.06148439  1
  Zn  Zn132  1  0.31850653  0.06114921  0.56536285  1
  Zn  Zn133  1  0.31064951  0.56457985  0.06319219  1
  Zn  Zn134  1  0.30588759  0.55693236  0.56339137  1
  Zn  Zn135  1  0.81546314  0.06656917  0.06206729  1
  Zn  Zn136  1  0.81457102  0.06474483  0.56624803  1
  Zn  Zn137  1  0.81140234  0.56196083  0.06177539  1
  Zn  Zn138  1  0.81184401  0.56621849  0.56603293  1
  Zn  Zn139  1  0.43565777  0.43576765  0.18907192  1
  Zn  Zn140  1  0.43599755  0.43078842  0.68620539  1
  Zn  Zn141  1  0.43442106  0.93890069  0.18845463  1
  Zn  Zn142  1  0.43345380  0.93636426  0.68718977  1
  Zn  Zn143  1  0.93799913  0.43694906  0.18832761  1
  Zn  Zn144  1  0.93952672  0.44375888  0.68709114  1
  Zn  Zn145  1  0.94415412  0.94206046  0.18713839  1
  Zn  Zn146  1  0.93682703  0.94209600  0.68680558  1
  Zn  Zn147  1  0.06510200  0.05794131  0.30929979  1
  Zn  Zn148  1  0.06664773  0.06079487  0.81276163  1
  Zn  Zn149  1  0.06507270  0.56313944  0.31071222  1
  Zn  Zn150  1  0.05949269  0.56083943  0.80745295  1
  Zn  Zn151  1  0.56265825  0.06485522  0.30957332  1
  Zn  Zn152  1  0.56436208  0.06121173  0.81429713  1
  Zn  Zn153  1  0.55950026  0.56268267  0.31590478  1
  Zn  Zn154  1  0.56077203  0.55894726  0.81594770  1
  Zn  Zn155  1  0.43607872  0.18386781  0.43899798  1
  Zn  Zn156  1  0.43867022  0.18685628  0.93774393  1
  Zn  Zn157  1  0.43393784  0.69160278  0.43819009  1
  Zn  Zn158  1  0.43791750  0.68330307  0.93713470  1
  Zn  Zn159  1  0.94191334  0.18880030  0.44512330  1
  Zn  Zn160  1  0.93962145  0.18968471  0.93598980  1
  Zn  Zn161  1  0.93972795  0.68463404  0.44214854  1
  Zn  Zn162  1  0.93682816  0.68524375  0.93502852  1
  Zn  Zn163  1  0.06778786  0.31153939  0.06030925  1
  Zn  Zn164  1  0.06399083  0.30862778  0.55640500  1
  Zn  Zn165  1  0.06446008  0.81360129  0.06148359  1
  Zn  Zn166  1  0.06478436  0.81612955  0.56251135  1
  Zn  Zn167  1  0.56453096  0.31128879  0.06012428  1
  Zn  Zn168  1  0.55871174  0.30733846  0.56633382  1
  Zn  Zn169  1  0.55837371  0.81527587  0.06261106  1
  Zn  Zn170  1  0.56030996  0.81174529  0.56383978  1
  O  O171  1  0.12204739  0.11973613  0.11454691  1
  O  O172  1  0.11303065  0.13028323  0.62735340  1
  O  O173  1  0.11945397  0.62373755  0.11300611  1
  O  O174  1  0.11431802  0.61404357  0.62102360  1
  O  O175  1  0.61615379  0.11481842  0.13093868  1
  O  O176  1  0.60956044  0.13341533  0.61951129  1
  O  O177  1  0.62138481  0.61684693  0.11945941  1
  O  O178  1  0.62979016  0.61732220  0.61711511  1
  O  O179  1  0.38191798  0.37391907  0.38188997  1
  O  O180  1  0.38632503  0.37687781  0.86891306  1
  O  O181  1  0.38320670  0.88601973  0.37500256  1
  O  O182  1  0.38003061  0.88032034  0.88161785  1
  O  O183  1  0.87756455  0.38963302  0.37295455  1
  O  O184  1  0.87787822  0.38531333  0.87907157  1
  O  O185  1  0.87955455  0.88672109  0.37763044  1
  O  O186  1  0.88091814  0.87964382  0.88652728  1
  O  O187  1  0.26131688  -0.00610851  0.37347947  1
  O  O188  1  0.26233256  -0.00254033  0.86467220  1
  O  O189  1  0.25024051  0.50786427  0.36885374  1
  O  O190  1  0.25145768  0.50114018  0.85984014  1
  O  O191  1  0.75795640  0.00698800  0.37015672  1
  O  O192  1  0.74894393  0.00835267  0.87051464  1
  O  O193  1  0.75376586  0.50565536  0.36909538  1
  O  O194  1  0.75483692  0.49355407  0.86569459  1
  O  O195  1  0.24964357  0.49265682  0.13342594  1
  O  O196  1  0.23228415  0.50453101  0.63334125  1
  O  O197  1  0.24021580  1.00065195  0.11914651  1
  O  O198  1  0.26060021  0.99272187  0.63921975  1
  O  O199  1  0.73833782  0.50095678  0.13252415  1
  O  O200  1  0.74101953  0.49297803  0.63107149  1
  O  O201  1  0.74303926  1.00208975  0.12880240  1
  O  O202  1  0.74986991  0.99049639  0.63174204  1
  O  O203  1  0.01669593  0.38076436  0.25331482  1
  O  O204  1  0.01360462  0.37887004  0.74859595  1
  O  O205  1  0.00590450  0.86648754  0.25140519  1
  O  O206  1  0.00994491  0.88683013  0.75824918  1
  O  O207  1  0.50342264  0.36998091  0.26227564  1
  O  O208  1  0.51103116  0.38002551  0.75942223  1
  O  O209  1  0.50543686  0.87071994  0.25627672  1
  O  O210  1  0.50548399  0.86871884  0.75294397  1
  O  O211  1  0.49400416  0.12919078  0.23963919  1
  O  O212  1  0.50375785  0.12530979  0.74040608  1
  O  O213  1  0.49181823  0.63304965  0.25138486  1
  O  O214  1  0.50667209  0.63543130  0.74954254  1
  O  O215  1  0.99373687  0.11734925  0.23909614  1
  O  O216  1  0.99837913  0.11212131  0.73491318  1
  O  O217  1  0.99654737  0.63325576  0.24321225  1
  O  O218  1  0.99884387  0.61666140  0.72969297  1
  O  O219  1  0.37832365  0.24689809  0.01399259  1
  O  O220  1  0.36445208  0.25204198  0.49902775  1
  O  O221  1  0.37075434  0.75726488  0.00609164  1
  O  O222  1  0.36536359  0.75304036  0.50942890  1
  O  O223  1  0.86249130  0.24983139  0.00134346  1
  O  O224  1  0.86226745  0.24974776  0.50871786  1
  O  O225  1  0.86693585  0.75498437  0.00226038  1
  O  O226  1  0.86136392  0.75394837  0.49646043  1
  O  O227  1  0.14146754  0.24838131  0.48867158  1
  O  O228  1  0.12703024  0.23713479  0.99455551  1
  O  O229  1  0.13700174  0.75512905  0.49073485  1
  O  O230  1  0.13425067  0.74373894  0.99970778  1
  O  O231  1  0.63530097  0.24329891  0.49875590  1
  O  O232  1  0.63703177  0.25169631  0.99096724  1
  O  O233  1  0.63282351  0.74549062  0.49682897  1
  O  O234  1  0.62827383  0.74482219  0.99574047  1
  O  O235  1  0.49652027  0.24396775  0.12983460  1
  O  O236  1  0.48537298  0.23851429  0.62324263  1
  O  O237  1  0.48862089  0.74973739  0.13060317  1
  O  O238  1  0.48465759  0.75249463  0.63097849  1
  O  O239  1  1.00173814  0.23576509  0.11958347  1
  O  O240  1  0.99251754  0.23438206  0.61802348  1
  O  O241  1  0.99388974  0.74396755  0.12802809  1
  O  O242  1  0.99953671  0.73911985  0.61683474  1
  O  O243  1  0.01846874  0.24482653  0.37945591  1
  O  O244  1  0.01786850  0.25241651  0.88224592  1
  O  O245  1  0.00771577  0.74981657  0.37046926  1
  O  O246  1  0.00150434  0.76468042  0.88223689  1
  O  O247  1  0.50505352  0.25481674  0.37118189  1
  O  O248  1  0.50903126  0.25637127  0.88205821  1
  O  O249  1  0.50351736  0.76260610  0.37069693  1
  O  O250  1  0.50509248  0.75499155  0.86754285  1
  O  O251  1  0.25452643  0.13032437  0.49755870  1
  O  O252  1  0.23807619  0.12251582  0.99823170  1
  O  O253  1  0.25338884  0.63116799  0.48705706  1
  O  O254  1  0.24170663  0.63130101  0.99722501  1
  O  O255  1  0.74374574  0.13251185  0.49847964  1
  O  O256  1  0.75146337  0.12953549  0.98840069  1
  O  O257  1  0.74097782  0.63434691  0.49677559  1
  O  O258  1  0.73681214  0.63293733  1.00463690  1
  O  O259  1  0.24523548  0.38464676  0.01247361  1
  O  O260  1  0.26052695  0.36671445  0.49610651  1
  O  O261  1  0.26029357  0.86816477  -0.00571597  1
  O  O262  1  0.25268886  0.86691513  0.50831406  1
  O  O263  1  0.75004516  0.36449185  0.00393765  1
  O  O264  1  0.74944300  0.36870683  0.51423471  1
  O  O265  1  0.75909606  0.86904794  0.00205496  1
  O  O266  1  0.74753202  0.87001099  0.50882652  1
  O  O267  1  0.13643129  0.49391093  0.24856447  1
  O  O268  1  0.12748759  0.48967235  0.74151232  1
  O  O269  1  0.12199845  0.98774885  0.23878743  1
  O  O270  1  0.14197312  0.99007615  0.75740980  1
  O  O271  1  0.62731280  0.49693992  0.24430172  1
  O  O272  1  0.63015213  0.49362339  0.74560154  1
  O  O273  1  0.63158200  0.99643834  0.24132257  1
  O  O274  1  0.63496350  0.98910550  0.75664394  1
  O  O275  1  0.37935083  0.00664267  0.26278179  1
  O  O276  1  0.36547146  -0.00403196  0.76257625  1
  O  O277  1  0.36484816  0.50584997  0.25245540  1
  O  O278  1  0.35600365  0.49212735  0.74045994  1
  O  O279  1  0.87364120  0.00830016  0.25986377  1
  O  O280  1  0.85913319  -0.00062852  0.75364381  1
  O  O281  1  0.86936346  0.50736058  0.25843143  1
  O  O282  1  0.86410928  0.50053950  0.75692037  1
  O  O283  1  0.12659640  0.36371146  0.36622844  1
  O  O284  1  0.11905412  0.36673366  0.86379287  1
  O  O285  1  0.12468830  0.86320339  0.36457621  1
  O  O286  1  0.11746676  0.87261940  0.86803652  1
  O  O287  1  0.61851962  0.36979380  0.37412900  1
  O  O288  1  0.61810961  0.36565404  0.86815093  1
  O  O289  1  0.61994960  0.87132038  0.36931742  1
  O  O290  1  0.61794379  0.86449905  0.86729163  1
  O  O291  1  0.38231007  0.12998229  0.13168974  1
  O  O292  1  0.38598972  0.13630326  0.62400857  1
  O  O293  1  0.37645760  0.63419424  0.13293717  1
  O  O294  1  0.37060663  0.63758076  0.61955718  1
  O  O295  1  0.88558768  0.12518498  0.13430810  1
  O  O296  1  0.87992812  0.13378669  0.63064442  1
  O  O297  1  0.87968825  0.63104390  0.13042436  1
  O  O298  1  0.88441427  0.62915038  0.62653602  1
  O  O299  1  0.25870702  0.26127618  0.12660066  1
  O  O300  1  0.26354762  0.24417856  0.60908764  1
  O  O301  1  0.26159312  0.74604287  0.11303584  1
  O  O302  1  0.25625969  0.75225384  0.61990455  1
  O  O303  1  0.75004930  0.24762693  0.11627473  1
  O  O304  1  0.75482009  0.25631421  0.62194288  1
  O  O305  1  0.75494884  0.75303358  0.11446736  1
  O  O306  1  0.75037984  0.76292039  0.61768948  1
  O  O307  1  0.24446234  0.24720097  0.38571867  1
  O  O308  1  0.23049868  0.25566328  0.87862681  1
  O  O309  1  0.24560851  0.74460644  0.38248685  1
  O  O310  1  0.24932972  0.74692972  0.88581515  1
  O  O311  1  0.74634011  0.24690328  0.38505937  1
  O  O312  1  0.74344254  0.24369506  0.88107495  1
  O  O313  1  0.74323595  0.74739067  0.38184198  1
  O  O314  1  0.73888598  0.75668136  0.88917127  1
  O  O315  1  0.00715538  0.11712242  0.00491742  1
  O  O316  1  -0.00167040  0.11183852  0.51120930  1
  O  O317  1  0.00529014  0.61667711  0.00441792  1
  O  O318  1  -0.00474598  0.61858328  0.51483527  1
  O  O319  1  0.49614523  0.11699339  0.01395863  1
  O  O320  1  0.50869422  0.12399523  0.50610456  1
  O  O321  1  0.51308539  0.61787034  0.00390661  1
  O  O322  1  0.51248644  0.62636318  0.49308568  1
  O  O323  1  0.49469375  0.37106108  0.49011757  1
  O  O324  1  0.50749894  0.38393516  0.99074371  1
  O  O325  1  0.49968722  0.87894240  0.49218953  1
  O  O326  1  0.48928929  0.88096771  0.99344037  1
  O  O327  1  0.99640116  0.37023396  0.49338833  1
  O  O328  1  1.00133298  0.38798520  1.00352751  1
  O  O329  1  1.00082908  0.89132567  0.49957942  1
  O  O330  1  0.99445909  0.88198925  0.99511670  1
  O  O331  1  0.49701389  0.48983708  0.38027728  1
  O  O332  1  0.50084056  0.48921637  0.88475646  1
  O  O333  1  0.50148176  0.98982383  0.37447420  1
  O  O334  1  0.49039923  0.99547971  0.87812002  1
  O  O335  1  0.98638504  0.50487559  0.37196094  1
  O  O336  1  0.99258967  0.49632877  0.88276898  1
  O  O337  1  0.99568585  1.00246387  0.38734785  1
  O  O338  1  1.00120577  0.99272155  0.88669074  1
  O  O339  1  0.00904021  0.00779950  0.11337620  1
  O  O340  1  -0.00268858  0.01002463  0.61175508  1
  O  O341  1  0.00177098  0.50892652  0.11872437  1
  O  O342  1  0.01118861  0.50556663  0.62060962  1
  O  O343  1  0.50615001  0.00664306  0.12122776  1
  O  O344  1  0.49018870  0.01642586  0.62537996  1
  O  O345  1  0.51017110  0.49879095  0.12155166  1
  O  O346  1  0.51286615  0.49438970  0.62400545  1
  O  O347  1  0.24366160  0.38244126  0.24668417  1
  O  O348  1  0.23237775  0.38804031  0.74976019  1
  O  O349  1  0.23897135  0.86734821  0.24688371  1
  O  O350  1  0.24545750  0.88147863  0.74436347  1
  O  O351  1  0.74070268  0.38223427  0.25130252  1
  O  O352  1  0.74014546  0.38162811  0.74139130  1
  O  O353  1  0.74514871  0.88297516  0.24721629  1
  O  O354  1  0.74079413  0.88124944  0.74454037  1
  O  O355  1  0.26251433  0.12517564  0.24240144  1
  O  O356  1  0.24493985  0.11108603  0.74560352  1
  O  O357  1  0.25384569  0.61885083  0.25707845  1
  O  O358  1  0.23733443  0.60779137  0.75166762  1
  O  O359  1  0.75800635  0.11964967  0.25812132  1
  O  O360  1  0.74811634  0.11754207  0.75963465  1
  O  O361  1  0.75479092  0.62122131  0.25639627  1
  O  O362  1  0.74773226  0.61263835  0.74720926  1
  O  O363  1  0.38018022  0.11065318  0.36619889  1
  O  O364  1  0.37812514  0.11135529  0.87652206  1
  O  O365  1  0.36630337  0.62585202  0.36782869  1
  O  O366  1  0.37656667  0.61617128  0.87555151  1
  O  O367  1  0.87303287  0.12108248  0.37069054  1
  O  O368  1  0.86655493  0.12362640  0.87156263  1
  O  O369  1  0.86893518  0.61742469  0.37143441  1
  O  O370  1  0.87735699  0.60928214  0.87474815  1
  O  O371  1  0.13542157  0.37284240  0.13356363  1
  O  O372  1  0.12069741  0.38189959  0.63144852  1
  O  O373  1  0.12193105  0.88431457  0.13131046  1
  O  O374  1  0.13928461  0.87327358  0.63086612  1
  O  O375  1  0.62548224  0.38273303  0.13357484  1
  O  O376  1  0.62907830  0.37874537  0.63234931  1
  O  O377  1  0.62466461  0.88416151  0.13111364  1
  O  O378  1  0.62958278  0.87046214  0.63730189  1
  O  O379  1  0.13365983  0.25550377  0.26317830  1
  O  O380  1  0.12917844  0.26200914  0.75437204  1
  O  O381  1  0.11967799  0.75519172  0.25276045  1
  O  O382  1  0.13121467  0.76497667  0.75106748  1
  O  O383  1  0.61866947  0.25427565  0.25760578  1
  O  O384  1  0.63033023  0.26034091  0.76080525  1
  O  O385  1  0.62014544  0.75591276  0.25410426  1
  O  O386  1  0.61915531  0.75502553  0.75670648  1
  O  O387  1  0.38100728  0.24086924  0.24543462  1
  O  O388  1  0.36286671  0.25654471  0.73511862  1
  O  O389  1  0.37718719  0.74797784  0.24321717  1
  O  O390  1  0.38017771  0.75060714  0.73770714  1
  O  O391  1  0.87161388  0.23711352  0.25115297  1
  O  O392  1  0.86996042  0.25106908  0.74037183  1
  O  O393  1  0.88012191  0.74552983  0.24629215  1
  O  O394  1  0.86831534  0.74485443  0.75269287  1
  O  O395  1  0.37518913  0.48844242  0.50124177  1
  O  O396  1  0.38995102  0.50274748  1.00585277  1
  O  O397  1  0.37845104  0.99885773  0.48520250  1
  O  O398  1  0.37733288  0.99409955  0.98992701  1
  O  O399  1  0.86322712  0.49925610  0.48502524  1
  O  O400  1  0.88104520  0.49932294  0.99478985  1
  O  O401  1  0.87404887  1.00194251  0.48802375  1
  O  O402  1  0.88425163  0.99278078  1.00103711  1
  O  O403  1  0.12158293  0.00834360  0.00228062  1
  O  O404  1  0.11806892  0.00158898  0.49633482  1
  O  O405  1  0.11793460  0.50664515  -0.00034666  1
  O  O406  1  0.13115497  0.49597988  0.51115185  1
  O  O407  1  0.61908477  -0.00756075  0.01098094  1
  O  O408  1  0.62551554  0.01501958  0.49817593  1
  O  O409  1  0.62199686  0.50618367  0.00737627  1
  O  O410  1  0.62440502  0.50975733  0.50947834  1
  O  O411  1  0.36504609  0.36561798  0.13160184  1
  O  O412  1  0.38433309  0.35774064  0.61277497  1
  O  O413  1  0.37885925  0.86841017  0.11469059  1
  O  O414  1  0.36383372  0.86557273  0.62443841  1
  O  O415  1  0.87148161  0.37136194  0.12466972  1
  O  O416  1  0.86640721  0.37030923  0.62715008  1
  O  O417  1  0.87720684  0.87056816  0.11512371  1
  O  O418  1  0.86589701  0.87494759  0.62163676  1
  O  O419  1  0.12880990  0.13378755  0.36731441  1
  O  O420  1  0.12305757  0.13383484  0.88413870  1
  O  O421  1  0.13314704  0.63850437  0.36750289  1
  O  O422  1  0.12083889  0.62733242  0.88568004  1
  O  O423  1  0.63079226  0.13163549  0.38199687  1
  O  O424  1  0.63104085  0.13663035  0.87189446  1
  O  O425  1  0.63046410  0.63196348  0.38120024  1
  O  O426  1  0.62103078  0.63676795  0.88284748  1
