# generated using pymatgen
data_V85Zn86O256
_symmetry_space_group_name_H-M   'P 1'
_cell_length_a   16.96917351
_cell_length_b   16.98324865
_cell_length_c   16.96577958
_cell_angle_alpha   90.05209095
_cell_angle_beta   90.00165434
_cell_angle_gamma   89.90433964
_symmetry_Int_Tables_number   1
_chemical_formula_structural   V85Zn86O256
_chemical_formula_sum   'V85 Zn86 O256'
_cell_volume   4889.38790376
_cell_formula_units_Z   1
loop_
 _symmetry_equiv_pos_site_id
 _symmetry_equiv_pos_as_xyz
  1  'x, y, z'
loop_
 _atom_site_type_symbol
 _atom_site_label
 _atom_site_symmetry_multiplicity
 _atom_site_fract_x
 _atom_site_fract_y
 _atom_site_fract_z
 _atom_site_occupancy
  V  V0  1  0.50000466  0.25029261  0.24903028  1
  V  V1  1  0.12943050  0.00364768  0.12121054  1
  V  V2  1  0.88513087  -0.00944063  0.38986374  1
  V  V3  1  0.26099761  0.87600715  0.63188492  1
  V  V4  1  0.62448544  0.00036540  0.12141899  1
  V  V5  1  0.75375027  0.24897579  0.50611850  1
  V  V6  1  0.87011585  0.00136072  0.86839096  1
  V  V7  1  0.24548305  0.25259305  -0.00547150  1
  V  V8  1  0.37137903  0.37144075  0.50152959  1
  V  V9  1  0.62135015  0.88950212  0.75650249  1
  V  V10  1  0.86788228  0.87674811  -0.00412947  1
  V  V11  1  0.37154191  -0.00607375  0.86539766  1
  V  V12  1  0.88842789  0.49500771  0.37787930  1
  V  V13  1  0.62881648  0.50067943  0.12545487  1
  V  V14  1  0.37639689  0.50047832  0.87204500  1
  V  V15  1  0.74665585  0.12433476  0.86835352  1
  V  V16  1  0.00385800  0.61253629  0.62795832  1
  V  V17  1  0.48792413  0.87601859  0.37564072  1
  V  V18  1  0.11935223  0.00044289  0.61044994  1
  V  V19  1  0.87453112  0.13178595  0.74612938  1
  V  V20  1  0.00188549  0.75073360  0.25403520  1
  V  V21  1  0.25704140  -0.00832599  0.24184017  1
  V  V22  1  0.63653526  0.62074961  0.49595779  1
  V  V23  1  0.12287718  0.37766773  0.73710443  1
  V  V24  1  -0.00375582  0.00370545  -0.00029159  1
  V  V25  1  0.24420831  0.50260731  0.74228704  1
  V  V26  1  0.24683050  0.37225302  0.12792396  1
  V  V27  1  0.49672788  -0.01056169  -0.00439268  1
  V  V28  1  0.00009772  0.87382448  0.87420574  1
  V  V29  1  0.12508073  0.87311801  0.24878102  1
  V  V30  1  0.87770306  0.37688896  -0.00263163  1
  V  V31  1  0.49945011  0.12631507  0.12118886  1
  V  V32  1  0.12330236  0.13271307  -0.00543882  1
  V  V33  1  0.24881555  0.12729659  0.86485214  1
  V  V34  1  0.50124720  0.37682836  0.37630472  1
  V  V35  1  0.37126299  0.12199353  0.24677935  1
  V  V36  1  0.62621118  0.37625486  0.75401701  1
  V  V37  1  0.26193590  0.75572510  0.50791227  1
  V  V38  1  0.24745964  0.49984384  0.25327529  1
  V  V39  1  0.24608105  0.63197634  0.38044484  1
  V  V40  1  0.37458384  0.62832836  0.25104863  1
  V  V41  1  0.62759570  0.24957665  0.37420422  1
  V  V42  1  0.50394512  0.49822307  0.51509446  1
  V  V43  1  0.12628742  0.88461255  0.75234214  1
  V  V44  1  0.75112975  0.37667314  0.12567762  1
  V  V45  1  0.00960030  0.37192605  0.87522234  1
  V  V46  1  0.50345627  0.25001007  0.75264112  1
  V  V47  1  0.10465423  0.77757891  0.41113730  1
  V  V48  1  0.88309401  0.37077702  0.50103766  1
  V  V49  1  0.12467042  0.50510105  0.11823474  1
  V  V50  1  0.00727002  0.24440222  0.75110158  1
  V  V51  1  0.87267246  0.50318260  0.87435994  1
  V  V52  1  0.37596966  0.63063415  0.74317851  1
  V  V53  1  0.74763047  0.25160040  -0.00726596  1
  V  V54  1  0.87240995  0.62673733  0.25848203  1
  V  V55  1  0.50145204  0.62503820  0.12478824  1
  V  V56  1  0.00630300  0.74467984  0.75286554  1
  V  V57  1  0.87671794  0.25087879  0.12645052  1
  V  V58  1  -0.00275646  0.12241277  0.61043540  1
  V  V59  1  0.00103164  0.12711039  0.12729670  1
  V  V60  1  0.62222913  0.12969890  -0.00594449  1
  V  V61  1  0.62386385  0.87324090  0.25445484  1
  V  V62  1  0.75004209  0.50254695  0.26184880  1
  V  V63  1  0.37440243  0.37670307  -0.00128443  1
  V  V64  1  0.50496171  -0.00515436  0.49783690  1
  V  V65  1  0.20104378  0.81588538  0.06637218  1
  V  V66  1  0.24394204  0.62778295  0.88737194  1
  V  V67  1  0.50254094  0.49899948  -0.00067637  1
  V  V68  1  0.37767699  0.50339137  0.37687458  1
  V  V69  1  0.32611956  0.05105332  0.42314057  1
  V  V70  1  0.75327553  0.00165176  0.24965790  1
  V  V71  1  0.37668245  0.75756935  0.12029867  1
  V  V72  1  0.74694902  0.87325434  0.12276342  1
  V  V73  1  0.50684395  0.64043697  0.62366585  1
  V  V74  1  0.87035877  0.62566738  0.75053209  1
  V  V75  1  0.36376569  0.25099559  0.62634615  1
  V  V76  1  0.86862415  0.74679106  0.12672864  1
  V  V77  1  0.74968852  0.37577789  0.62518579  1
  V  V78  1  0.00354202  0.25572841  0.26394101  1
  V  V79  1  0.37414834  0.25190921  0.12354470  1
  V  V80  1  0.12823690  0.61574248  0.50872339  1
  V  V81  1  0.60775522  0.74672654  0.86976977  1
  V  V82  1  0.62431054  0.12498479  0.50277221  1
  V  V83  1  0.75020164  0.74373425  -0.01757193  1
  V  V84  1  0.74462169  0.50447806  0.74806287  1
  Zn  Zn85  1  0.75343746  0.88017436  0.62537266  1
  Zn  Zn86  1  0.87525430  0.75584773  0.61584735  1
  Zn  Zn87  1  0.49720814  0.12475375  0.62503201  1
  Zn  Zn88  1  0.49292127  0.76204207  0.74464868  1
  Zn  Zn89  1  0.75103522  0.12301764  0.37448267  1
  Zn  Zn90  1  0.00074133  0.62450548  0.12250553  1
  Zn  Zn91  1  0.12835901  0.74807938  0.88679223  1
  Zn  Zn92  1  0.49934673  0.75055002  0.25241446  1
  Zn  Zn93  1  0.24532084  0.38056326  0.61763292  1
  Zn  Zn94  1  0.62575392  0.37536416  0.24995782  1
  Zn  Zn95  1  0.11927316  0.37559217  0.26463164  1
  Zn  Zn96  1  0.63287244  0.62114203  -0.00551966  1
  Zn  Zn97  1  0.37432978  0.86910064  -0.00680711  1
  Zn  Zn98  1  0.62908537  0.74116913  0.37303260  1
  Zn  Zn99  1  0.50684498  0.37247855  0.87683701  1
  Zn  Zn100  1  0.63148892  0.00580110  0.63588856  1
  Zn  Zn101  1  0.87463681  0.12349540  0.25232382  1
  Zn  Zn102  1  0.18891118  0.18160717  0.44619853  1
  Zn  Zn103  1  0.76303085  0.76066270  0.49222724  1
  Zn  Zn104  1  0.00509250  0.50799900  -0.00597639  1
  Zn  Zn105  1  0.37280057  0.12860736  0.75228634  1
  Zn  Zn106  1  0.01130799  0.48939408  0.50270077  1
  Zn  Zn107  1  0.18615996  0.18387711  0.28574076  1
  Zn  Zn108  1  0.14482478  0.22575200  0.62769328  1
  Zn  Zn109  1  0.18521938  0.68233475  0.19320372  1
  Zn  Zn110  1  0.18847859  0.68881787  0.68872944  1
  Zn  Zn111  1  0.68766171  0.18717349  0.18469150  1
  Zn  Zn112  1  0.68522310  0.18967219  0.68614324  1
  Zn  Zn113  1  0.68854797  0.68659519  0.18989178  1
  Zn  Zn114  1  0.68830870  0.69252347  0.68235925  1
  Zn  Zn115  1  0.31135069  0.31298325  0.31831168  1
  Zn  Zn116  1  0.30966977  0.31433927  0.80960271  1
  Zn  Zn117  1  0.30549085  0.81123761  0.31372238  1
  Zn  Zn118  1  0.30964360  0.80846181  0.81343778  1
  Zn  Zn119  1  0.81393871  0.31435028  0.31450087  1
  Zn  Zn120  1  0.81689897  0.31268941  0.81080399  1
  Zn  Zn121  1  0.80822049  0.81202532  0.31829971  1
  Zn  Zn122  1  0.82436462  0.82671998  0.78220882  1
  Zn  Zn123  1  0.18989254  0.43766512  0.43456931  1
  Zn  Zn124  1  0.18926683  0.43964364  0.93205063  1
  Zn  Zn125  1  0.18589111  0.93512217  0.43975842  1
  Zn  Zn126  1  0.18562977  0.94565907  0.92951514  1
  Zn  Zn127  1  0.68770671  0.43755915  0.44064056  1
  Zn  Zn128  1  0.68970064  0.43810873  0.93344994  1
  Zn  Zn129  1  0.69246835  0.93800496  0.43475035  1
  Zn  Zn130  1  0.68368133  0.93492647  0.92959564  1
  Zn  Zn131  1  0.31182745  0.06300403  0.05769125  1
  Zn  Zn132  1  0.31244393  0.05499042  0.59124490  1
  Zn  Zn133  1  0.31488252  0.56216666  0.06507173  1
  Zn  Zn134  1  0.31926214  0.56455073  0.56330411  1
  Zn  Zn135  1  0.81043925  0.06430787  0.06105518  1
  Zn  Zn136  1  0.80967019  0.05559760  0.56375049  1
  Zn  Zn137  1  0.81621194  0.56432192  0.06418351  1
  Zn  Zn138  1  0.81831464  0.55885102  0.56742223  1
  Zn  Zn139  1  0.43691552  0.43850726  0.18892292  1
  Zn  Zn140  1  0.43540031  0.43591797  0.68999924  1
  Zn  Zn141  1  0.44149860  0.93648182  0.18425897  1
  Zn  Zn142  1  0.45011844  0.93881911  0.68980180  1
  Zn  Zn143  1  0.93736902  0.43772522  0.18905796  1
  Zn  Zn144  1  0.93365682  0.43258877  0.68662317  1
  Zn  Zn145  1  0.93712205  0.93394273  0.18961283  1
  Zn  Zn146  1  0.93740934  0.94040291  0.68578107  1
  Zn  Zn147  1  0.06007513  0.06075684  0.31698954  1
  Zn  Zn148  1  0.06169006  0.06311579  0.81428882  1
  Zn  Zn149  1  0.06475709  0.56915238  0.31542941  1
  Zn  Zn150  1  0.06420131  0.55993853  0.81554211  1
  Zn  Zn151  1  0.56092902  0.06038206  0.31332409  1
  Zn  Zn152  1  0.55462427  0.06828835  0.81875277  1
  Zn  Zn153  1  0.56256889  0.56086862  0.31325510  1
  Zn  Zn154  1  0.56457330  0.56650886  0.81043477  1
  Zn  Zn155  1  0.44190837  0.19214946  0.44140682  1
  Zn  Zn156  1  0.43480761  0.18799040  0.93381270  1
  Zn  Zn157  1  0.44461973  0.69057768  0.43804738  1
  Zn  Zn158  1  0.43172489  0.68239819  0.94108617  1
  Zn  Zn159  1  0.92760941  0.17892900  0.43521740  1
  Zn  Zn160  1  0.93566198  0.19116252  0.93451365  1
  Zn  Zn161  1  0.93574299  0.68464544  0.44126792  1
  Zn  Zn162  1  0.93852232  0.68468076  0.93780732  1
  Zn  Zn163  1  0.06367958  0.31688329  0.06598823  1
  Zn  Zn164  1  0.06833265  0.30618682  0.44931352  1
  Zn  Zn165  1  0.03928851  0.81296339  0.06497670  1
  Zn  Zn166  1  0.06516133  0.80417038  0.57666501  1
  Zn  Zn167  1  0.56430649  0.31456992  0.06172703  1
  Zn  Zn168  1  0.56240647  0.31254275  0.56921247  1
  Zn  Zn169  1  0.56541037  0.80921995  0.06121774  1
  Zn  Zn170  1  0.59795085  0.82565468  0.55054294  1
  O  O171  1  0.11193309  0.11696196  0.11274979  1
  O  O172  1  0.11141809  0.10667240  0.63089705  1
  O  O173  1  0.12700122  0.60800175  0.12812334  1
  O  O174  1  0.11723871  0.62540725  0.62243575  1
  O  O175  1  0.62089146  0.12067707  0.11268458  1
  O  O176  1  0.62001446  0.12648580  0.61554424  1
  O  O177  1  0.61751290  0.61784097  0.12317050  1
  O  O178  1  0.61161801  0.62240660  0.61795811  1
  O  O179  1  0.38249815  0.38112553  0.38206343  1
  O  O180  1  0.37333121  0.38908680  0.87875174  1
  O  O181  1  0.38884998  0.86685713  0.37010777  1
  O  O182  1  0.36514431  0.88973806  0.87479434  1
  O  O183  1  0.87060165  0.38419566  0.38656543  1
  O  O184  1  0.88432132  0.38286832  0.87774573  1
  O  O185  1  0.87099936  0.89414237  0.36194539  1
  O  O186  1  0.87741907  0.88477931  0.87446468  1
  O  O187  1  0.26403529  -0.01075843  0.36701047  1
  O  O188  1  0.26314211  0.01265169  0.88073598  1
  O  O189  1  0.25805809  0.50813708  0.36815567  1
  O  O190  1  0.25665616  0.50922786  0.86615363  1
  O  O191  1  0.75336134  0.00198886  0.36268425  1
  O  O192  1  0.75748176  0.01310132  0.88214146  1
  O  O193  1  0.75706501  0.49379004  0.36408225  1
  O  O194  1  0.76098696  0.49315748  0.86118565  1
  O  O195  1  0.24325842  0.49536385  0.13241397  1
  O  O196  1  0.25859035  0.49994128  0.63905044  1
  O  O197  1  0.23805890  1.00414830  0.12763250  1
  O  O198  1  0.23318978  0.98522220  0.62786109  1
  O  O199  1  0.74561923  0.49597715  0.13155230  1
  O  O200  1  0.75510589  0.49021018  0.63944300  1
  O  O201  1  0.74182337  0.99433384  0.12560075  1
  O  O202  1  0.74375267  0.99549083  0.62798696  1
  O  O203  1  -0.00329786  0.35845910  0.24859785  1
  O  O204  1  0.00411255  0.36767854  0.75422975  1
  O  O205  1  0.01254223  0.86518594  0.24145865  1
  O  O206  1  0.00800176  0.86515883  0.75760282  1
  O  O207  1  0.50102537  0.36918057  0.25664740  1
  O  O208  1  0.50890728  0.36941072  0.75073307  1
  O  O209  1  0.50704074  0.87515207  0.25569390  1
  O  O210  1  0.51049858  0.87344115  0.75952405  1
  O  O211  1  0.49134023  0.12746802  0.24208495  1
  O  O212  1  0.49791458  0.13978880  0.74922643  1
  O  O213  1  0.49450995  0.62385526  0.23966064  1
  O  O214  1  0.49507660  0.62445470  0.73567625  1
  O  O215  1  0.99732674  0.13549458  0.23971776  1
  O  O216  1  0.99158411  0.13225621  0.75729373  1
  O  O217  1  0.99364577  0.63187973  0.24478347  1
  O  O218  1  0.99777789  0.62775339  0.74694284  1
  O  O219  1  0.36962170  0.25801755  0.00458913  1
  O  O220  1  0.38273061  0.26069657  0.51134087  1
  O  O221  1  0.37480200  0.75222263  0.01008195  1
  O  O222  1  0.35983788  0.74456172  0.49743657  1
  O  O223  1  0.86841951  0.25638663  0.00739574  1
  O  O224  1  0.86279896  0.25710275  0.49166558  1
  O  O225  1  0.86326178  0.75616984  0.00152627  1
  O  O226  1  0.87749957  0.75359845  0.50205551  1
  O  O227  1  0.12881312  0.24121745  0.51682510  1
  O  O228  1  0.13276236  0.24357411  1.00675813  1
  O  O229  1  0.14024441  0.73219164  0.51088301  1
  O  O230  1  0.13298676  0.76316925  1.01139892  1
  O  O231  1  0.62782642  0.24329875  0.49340754  1
  O  O232  1  0.63586972  0.24220975  1.00588127  1
  O  O233  1  0.61947633  0.72468695  0.49807183  1
  O  O234  1  0.63484474  0.74878947  0.98925451  1
  O  O235  1  0.49513956  0.24624476  0.12885953  1
  O  O236  1  0.49061394  0.25101507  0.63770965  1
  O  O237  1  0.49402517  0.74055039  0.12608719  1
  O  O238  1  0.50457972  0.74042629  0.62343844  1
  O  O239  1  0.98933226  0.24536509  0.12588534  1
  O  O240  1  1.00339471  0.22387508  0.63705085  1
  O  O241  1  0.98664210  0.74696199  0.13740059  1
  O  O242  1  0.99681377  0.73833087  0.63921973  1
  O  O243  1  -0.00284270  0.24366384  0.36632984  1
  O  O244  1  -0.00385682  0.26049937  0.86596449  1
  O  O245  1  0.01010837  0.73915756  0.36122056  1
  O  O246  1  0.00712379  0.75507613  0.87297952  1
  O  O247  1  0.50734250  0.25681912  0.36907192  1
  O  O248  1  0.49145194  0.25517668  0.85826938  1
  O  O249  1  0.50848931  0.75970099  0.37260382  1
  O  O250  1  0.50659367  0.74524249  0.87774590  1
  O  O251  1  0.26879205  0.10339706  0.48963988  1
  O  O252  1  0.24094913  0.13570338  0.99688473  1
  O  O253  1  0.24862743  0.63191570  0.49949693  1
  O  O254  1  0.25430405  0.61742620  0.98537855  1
  O  O255  1  0.74250526  0.13361105  0.49804526  1
  O  O256  1  0.74269124  0.13301605  0.99267341  1
  O  O257  1  0.73633513  0.61414019  0.50779684  1
  O  O258  1  0.75135788  0.64065069  1.00387325  1
  O  O259  1  0.25312188  0.37126872  0.00485865  1
  O  O260  1  0.26818068  0.38526657  0.50076089  1
  O  O261  1  0.25064398  0.87763917  0.00312905  1
  O  O262  1  0.24592394  0.86388180  0.51520963  1
  O  O263  1  0.75496182  0.36744020  0.00427447  1
  O  O264  1  0.75363523  0.36903311  0.50782289  1
  O  O265  1  0.75089824  0.86655261  0.00265055  1
  O  O266  1  0.70698957  0.86345455  0.51405622  1
  O  O267  1  0.13628195  0.49965902  0.24616774  1
  O  O268  1  0.13431299  0.49260032  0.75390618  1
  O  O269  1  0.13044026  0.99095722  0.23622268  1
  O  O270  1  0.12090696  0.98670862  0.75224358  1
  O  O271  1  0.63423764  0.49893540  0.24472493  1
  O  O272  1  0.63494909  0.49305492  0.75423890  1
  O  O273  1  0.63260955  0.99631124  0.24136025  1
  O  O274  1  0.61782413  0.99390474  0.76040209  1
  O  O275  1  0.36790687  0.00637154  0.23761384  1
  O  O276  1  0.38070498  0.00544577  0.76316480  1
  O  O277  1  0.36445734  0.50743397  0.25322462  1
  O  O278  1  0.37032319  0.50750644  0.75753493  1
  O  O279  1  0.85907560  0.00237415  0.23667904  1
  O  O280  1  0.88156413  0.01441938  0.76446509  1
  O  O281  1  0.87079393  0.50493021  0.25762075  1
  O  O282  1  0.87024592  0.50748880  0.75597356  1
  O  O283  1  0.12173160  0.37379204  0.37721859  1
  O  O284  1  0.11288096  0.37986569  0.86795623  1
  O  O285  1  0.13649101  0.87436176  0.35397449  1
  O  O286  1  0.12072129  0.87191240  0.87050768  1
  O  O287  1  0.62060629  0.36410764  0.37505528  1
  O  O288  1  0.62655746  0.37474298  0.86040017  1
  O  O289  1  0.61879953  0.88011649  0.35859343  1
  O  O290  1  0.62195721  0.85775588  0.87183452  1
  O  O291  1  0.38018933  0.13163206  0.12834474  1
  O  O292  1  0.37728685  0.13507901  0.63267936  1
  O  O293  1  0.38167517  0.63113044  0.13115497  1
  O  O294  1  0.39011312  0.62179437  0.63319910  1
  O  O295  1  0.88499885  0.13331524  0.12156933  1
  O  O296  1  0.88830695  0.11322814  0.63563038  1
  O  O297  1  0.87370234  0.63087373  0.13958132  1
  O  O298  1  0.88490385  0.62583411  0.63652719  1
  O  O299  1  0.25760056  0.26231368  0.11340557  1
  O  O300  1  0.26134900  0.25715000  0.63143663  1
  O  O301  1  0.25529726  0.74902566  0.12450471  1
  O  O302  1  0.25057692  0.76181741  0.61857817  1
  O  O303  1  0.76116305  0.25324821  0.11808037  1
  O  O304  1  0.74680058  0.25569851  0.61243029  1
  O  O305  1  0.75212442  0.75697607  0.11942875  1
  O  O306  1  0.75480624  0.75580682  0.61942363  1
  O  O307  1  0.25194430  0.23476870  0.36407467  1
  O  O308  1  0.25582194  0.24656861  0.88871143  1
  O  O309  1  0.23444453  0.75493593  0.39345360  1
  O  O310  1  0.24793069  0.73293743  0.87561662  1
  O  O311  1  0.74118818  0.24945497  0.38206740  1
  O  O312  1  0.75749784  0.24391689  0.88747016  1
  O  O313  1  0.74142266  0.75083873  0.37905117  1
  O  O314  1  0.74913584  0.75124686  0.88437216  1
  O  O315  1  0.00467060  0.12453716  0.00366384  1
  O  O316  1  -0.00669681  0.12533119  0.51231120  1
  O  O317  1  -0.00741188  0.61947267  0.00938598  1
  O  O318  1  0.01165255  0.62069963  0.51118626  1
  O  O319  1  0.50682330  0.12357823  0.00251214  1
  O  O320  1  0.50808576  0.11741916  0.49936864  1
  O  O321  1  0.50004582  0.61714343  0.01282370  1
  O  O322  1  0.50058949  0.61674725  0.51210795  1
  O  O323  1  0.49562858  0.38160199  0.49692709  1
  O  O324  1  0.49433642  0.38084803  0.99729480  1
  O  O325  1  0.51381933  0.88692771  0.49041904  1
  O  O326  1  0.49986120  0.88710189  1.00365153  1
  O  O327  1  0.98635319  0.37186361  0.50563064  1
  O  O328  1  0.99533354  0.37750944  0.99209672  1
  O  O329  1  1.05350631  0.84350783  0.47098806  1
  O  O330  1  0.98736539  0.88257145  0.99287168  1
  O  O331  1  0.49409436  0.49330204  0.38010971  1
  O  O332  1  0.49263941  0.50065878  0.88030066  1
  O  O333  1  0.50212419  0.98983569  0.38227202  1
  O  O334  1  0.48183108  1.00856835  0.88541820  1
  O  O335  1  0.99146120  0.50168580  0.37749900  1
  O  O336  1  0.99209342  0.49001560  0.87499164  1
  O  O337  1  0.98361201  0.99833587  0.36777700  1
  O  O338  1  0.99141810  0.99559012  0.88296396  1
  O  O339  1  0.00555444  0.00756057  0.11995688  1
  O  O340  1  0.01032976  0.00535675  0.62880318  1
  O  O341  1  0.01729521  0.49530067  0.12851451  1
  O  O342  1  -0.00409971  0.50931410  0.62515139  1
  O  O343  1  0.50486693  0.00827433  0.11494465  1
  O  O344  1  0.50607526  0.00402271  0.61273181  1
  O  O345  1  0.50735010  0.50522934  0.12170060  1
  O  O346  1  0.49791575  0.50071128  0.61644155  1
  O  O347  1  0.25237055  0.38451751  0.24275604  1
  O  O348  1  0.23921145  0.38536881  0.75258226  1
  O  O349  1  0.24595978  0.88424260  0.24299684  1
  O  O350  1  0.23955633  0.86413719  0.73906359  1
  O  O351  1  0.75081372  0.38301359  0.24207742  1
  O  O352  1  0.74597584  0.37727709  0.74397959  1
  O  O353  1  0.74145105  0.88263863  0.24020527  1
  O  O354  1  0.72307051  0.87154465  0.76120164  1
  O  O355  1  0.26618928  0.11049692  0.24112007  1
  O  O356  1  0.24849478  0.13488798  0.76648769  1
  O  O357  1  0.25430244  0.61972523  0.26015415  1
  O  O358  1  0.25805222  0.61937499  0.75423480  1
  O  O359  1  0.75007173  0.11594329  0.24874736  1
  O  O360  1  0.75618025  0.13646343  0.76152393  1
  O  O361  1  0.75904092  0.61380101  0.24711960  1
  O  O362  1  0.75888079  0.61672155  0.74353663  1
  O  O363  1  0.38371871  0.11774802  0.36735650  1
  O  O364  1  0.36461266  0.11799448  0.87508013  1
  O  O365  1  0.37078191  0.62311514  0.36996253  1
  O  O366  1  0.36806915  0.61448747  0.86922994  1
  O  O367  1  0.86883726  0.10798148  0.36926694  1
  O  O368  1  0.86527589  0.12081728  0.87098803  1
  O  O369  1  0.87998104  0.61429770  0.36442777  1
  O  O370  1  0.87926274  0.60916486  0.86864274  1
  O  O371  1  0.13634838  0.38389345  0.13149417  1
  O  O372  1  0.12764775  0.37506020  0.63689453  1
  O  O373  1  0.13047936  0.87721382  0.12235898  1
  O  O374  1  0.12598416  0.88509593  0.63461755  1
  O  O375  1  0.63239914  0.38376987  0.12668403  1
  O  O376  1  0.63871219  0.37091834  0.63618169  1
  O  O377  1  0.62647372  0.88102657  0.13164905  1
  O  O378  1  0.61756075  0.88083770  0.64979467  1
  O  O379  1  0.10546316  0.25366013  0.24038520  1
  O  O380  1  0.11283642  0.25848332  0.74240902  1
  O  O381  1  0.11695941  0.75848774  0.24372642  1
  O  O382  1  0.11521614  0.75536534  0.75293846  1
  O  O383  1  0.61930737  0.25078386  0.25624828  1
  O  O384  1  0.61073054  0.25749103  0.74659386  1
  O  O385  1  0.62130932  0.75989841  0.24790341  1
  O  O386  1  0.61789852  0.74675882  0.76310537  1
  O  O387  1  0.38164442  0.24202840  0.24229679  1
  O  O388  1  0.38393983  0.25498645  0.74266581  1
  O  O389  1  0.37322961  0.74239967  0.24266940  1
  O  O390  1  0.37843697  0.73473777  0.75751440  1
  O  O391  1  0.88291389  0.24767045  0.24302832  1
  O  O392  1  0.88467534  0.23829769  0.75186737  1
  O  O393  1  0.88024470  0.74334885  0.24987298  1
  O  O394  1  0.88949665  0.73158347  0.76564843  1
  O  O395  1  0.38617348  0.49500153  0.49457608  1
  O  O396  1  0.38103767  0.49487216  0.99405908  1
  O  O397  1  0.38296565  1.00289322  0.49404591  1
  O  O398  1  0.38191869  0.99649190  0.99423141  1
  O  O399  1  0.87796605  0.49097591  0.49251733  1
  O  O400  1  0.87144301  0.49185171  0.99177969  1
  O  O401  1  0.87342224  0.99460851  0.48987863  1
  O  O402  1  0.87708307  0.99712592  0.99131809  1
  O  O403  1  0.11781623  0.00659420  0.00569299  1
  O  O404  1  0.12392024  -0.00230898  0.51205715  1
  O  O405  1  0.12679255  0.49298363  0.01557466  1
  O  O406  1  0.12948155  0.51101039  0.50137404  1
  O  O407  1  0.61621589  0.00739155  0.00054208  1
  O  O408  1  0.62000624  0.01646024  0.49241356  1
  O  O409  1  0.62212760  0.50121689  0.00537807  1
  O  O410  1  0.61387436  0.50674747  0.49712702  1
  O  O411  1  0.36469517  0.37509356  0.11978448  1
  O  O412  1  0.37433489  0.36940159  0.61743541  1
  O  O413  1  0.37899786  0.86035793  0.12356695  1
  O  O414  1  0.35899521  0.88711887  0.63539830  1
  O  O415  1  0.87131093  0.36885479  0.11883427  1
  O  O416  1  0.86174855  0.37575613  0.61600876  1
  O  O417  1  0.86776674  0.86790145  0.11633686  1
  O  O418  1  0.86335976  0.86063815  0.67109417  1
  O  O419  1  0.14079924  0.11524915  0.36444274  1
  O  O420  1  0.13126758  0.11907997  0.88865940  1
  O  O421  1  0.13196790  0.63244130  0.38825328  1
  O  O422  1  0.13938925  0.62473054  0.87568025  1
  O  O423  1  0.62408250  0.13771664  0.37918729  1
  O  O424  1  0.63167098  0.12477952  0.88620162  1
  O  O425  1  0.62047186  0.61960297  0.39113979  1
  O  O426  1  0.62355119  0.64009651  0.87856205  1
