# generated using pymatgen
data_V85Zn86O256
_symmetry_space_group_name_H-M   'P 1'
_cell_length_a   16.91452413
_cell_length_b   16.92453357
_cell_length_c   16.92272867
_cell_angle_alpha   90.05496676
_cell_angle_beta   90.04122205
_cell_angle_gamma   90.06069092
_symmetry_Int_Tables_number   1
_chemical_formula_structural   V85Zn86O256
_chemical_formula_sum   'V85 Zn86 O256'
_cell_volume   4844.47063350
_cell_formula_units_Z   1
loop_
 _symmetry_equiv_pos_site_id
 _symmetry_equiv_pos_as_xyz
  1  'x, y, z'
loop_
 _atom_site_type_symbol
 _atom_site_label
 _atom_site_symmetry_multiplicity
 _atom_site_fract_x
 _atom_site_fract_y
 _atom_site_fract_z
 _atom_site_occupancy
  V  V0  1  0.25205448  0.38029206  0.63405352  1
  V  V1  1  0.00123257  0.24589166  0.73453372  1
  V  V2  1  0.63305581  0.12866875  0.49736745  1
  V  V3  1  0.87340370  0.87531121  -0.00017649  1
  V  V4  1  0.87049487  0.12736973  0.73560886  1
  V  V5  1  0.37611987  0.74977455  0.62570596  1
  V  V6  1  0.37645433  0.50236664  0.87226240  1
  V  V7  1  0.74021648  0.62467190  0.37935837  1
  V  V8  1  0.50655083  0.35841914  0.37380425  1
  V  V9  1  0.24461618  0.61736458  0.87063255  1
  V  V10  1  0.86920171  0.62520937  0.74254032  1
  V  V11  1  0.37193461  0.00048840  0.37017819  1
  V  V12  1  0.62082667  0.49436516  0.11905473  1
  V  V13  1  0.50197410  0.13327001  0.63324757  1
  V  V14  1  0.37616206  0.87628381  0.50013970  1
  V  V15  1  0.74667685  0.61828541  0.87240897  1
  V  V16  1  0.00369081  0.62562868  0.11400713  1
  V  V17  1  0.37235210  0.74780276  0.12535945  1
  V  V18  1  0.75029701  0.75218151  0.51005451  1
  V  V19  1  0.25118438  0.12589474  0.36739471  1
  V  V20  1  0.38626493  0.50108373  0.37708615  1
  V  V21  1  0.49964312  0.87276397  0.37500418  1
  V  V22  1  0.61798827  0.24995085  0.87172653  1
  V  V23  1  0.50450419  -0.00034043  0.50542883  1
  V  V24  1  0.00307642  0.37192362  0.87431561  1
  V  V25  1  0.24813602  0.75090675  0.49870448  1
  V  V26  1  0.75057519  0.36757459  0.11897907  1
  V  V27  1  0.38179995  0.38054503  0.50222400  1
  V  V28  1  0.24247914  0.12468600  0.88208532  1
  V  V29  1  0.11661136  0.75279093  0.37251094  1
  V  V30  1  0.39200627  0.12710996  0.24659286  1
  V  V31  1  0.87280881  0.36793324  -0.00299776  1
  V  V32  1  0.74799635  0.49420567  0.24866762  1
  V  V33  1  0.49985707  0.74455939  0.75158674  1
  V  V34  1  0.49920486  0.74710834  0.24918593  1
  V  V35  1  0.00176603  -0.00572254  0.49288366  1
  V  V36  1  -0.00786459  0.75206766  0.74211902  1
  V  V37  1  0.75562933  0.36783518  0.63239952  1
  V  V38  1  0.24668570  0.61667772  0.37089792  1
  V  V39  1  0.63002760  0.87729159  0.74755529  1
  V  V40  1  0.24667679  0.37627400  0.14084927  1
  V  V41  1  0.61976553  0.00434940  0.11887152  1
  V  V42  1  0.25135597  0.00275843  0.74972343  1
  V  V43  1  0.00016104  0.50051999  0.50231735  1
  V  V44  1  0.49663969  0.37644933  0.86600659  1
  V  V45  1  0.86718562  0.00382188  0.87205119  1
  V  V46  1  0.12087206  0.74435935  0.87878116  1
  V  V47  1  0.63602138  0.50413898  0.61999308  1
  V  V48  1  0.36909788  0.61682182  0.24686729  1
  V  V49  1  0.00822192  0.00498724  -0.00112637  1
  V  V50  1  0.87873248  -0.01113537  0.37182822  1
  V  V51  1  0.12719190  0.50286651  0.63482826  1
  V  V52  1  0.87639778  0.36429654  0.50228022  1
  V  V53  1  0.37589354  0.87390699  0.00049057  1
  V  V54  1  0.00741305  0.25496571  0.24742738  1
  V  V55  1  0.62484575  0.87263807  0.24970070  1
  V  V56  1  0.37586286  0.00126996  0.87529968  1
  V  V57  1  -0.00170866  0.87610810  0.87615521  1
  V  V58  1  0.50206452  0.61746327  0.61065122  1
  V  V59  1  0.24918622  0.88204110  0.13154172  1
  V  V60  1  0.00962936  0.37732980  0.37015314  1
  V  V61  1  0.25107606  0.87742868  0.62530966  1
  V  V62  1  0.11928248  0.12935257  0.50041521  1
  V  V63  1  0.25390191  0.25046149  0.50337456  1
  V  V64  1  0.37802855  0.37984032  0.00101061  1
  V  V65  1  0.74995349  0.00380246  0.25393382  1
  V  V66  1  0.87543567  0.62481752  0.24731970  1
  V  V67  1  0.24383999  0.74360212  0.00142743  1
  V  V68  1  0.11986515  0.00758023  0.62508614  1
  V  V69  1  0.12059275  0.88528772  0.25400932  1
  V  V70  1  0.62914882  0.62448949  0.00150417  1
  V  V71  1  0.62839166  0.74868312  0.88018015  1
  V  V72  1  0.12408778  0.87599172  0.75093227  1
  V  V73  1  0.87148445  0.49797003  0.87159794  1
  V  V74  1  0.75239181  0.13481865  0.88454018  1
  V  V75  1  0.87441806  0.12893848  0.25471005  1
  V  V76  1  0.49727865  0.61742399  0.11825200  1
  V  V77  1  0.38841224  0.24889922  0.12705264  1
  V  V78  1  0.87025665  0.74758538  0.11785649  1
  V  V79  1  0.12342169  0.62656268  0.50013373  1
  V  V80  1  0.74830429  0.87094108  0.12078638  1
  V  V81  1  0.87502999  0.49935085  0.37506715  1
  V  V82  1  0.00738343  0.12777679  0.12161612  1
  V  V83  1  0.24374750  0.24969196  0.00431870  1
  V  V84  1  0.13068195  0.50404245  0.13210155  1
  Zn  Zn85  1  0.37917672  0.13205823  0.75480930  1
  Zn  Zn86  1  0.13093967  0.00641568  0.12485881  1
  Zn  Zn87  1  0.61471831  0.36222748  0.24409424  1
  Zn  Zn88  1  0.62286891  0.74488995  0.37924763  1
  Zn  Zn89  1  0.00705366  0.50069819  -0.00227979  1
  Zn  Zn90  1  0.62365622  0.37694873  0.74745494  1
  Zn  Zn91  1  0.38381620  0.25777566  0.63296595  1
  Zn  Zn92  1  0.88235935  0.86634812  0.50463966  1
  Zn  Zn93  1  0.49474617  0.01071828  0.00478094  1
  Zn  Zn94  1  0.77030840  0.87612087  0.63788810  1
  Zn  Zn95  1  0.75879481  0.24413459  0.50068337  1
  Zn  Zn96  1  0.61991972  0.13799003  0.00347691  1
  Zn  Zn97  1  0.66343273  0.21919524  0.35075515  1
  Zn  Zn98  1  0.50103458  0.87398748  0.87719566  1
  Zn  Zn99  1  0.12736970  0.37594819  0.75359550  1
  Zn  Zn100  1  -0.00495041  0.62848918  0.62330463  1
  Zn  Zn101  1  0.36882921  0.62074963  0.74619793  1
  Zn  Zn102  1  0.12381259  0.24770632  0.87708186  1
  Zn  Zn103  1  0.13079375  0.25667280  0.37118648  1
  Zn  Zn104  1  0.63258241  0.00207357  0.63259359  1
  Zn  Zn105  1  -0.00382558  0.75567847  0.25054302  1
  Zn  Zn106  1  0.87524379  0.24700699  0.11969913  1
  Zn  Zn107  1  0.18935758  0.19019821  0.18841673  1
  Zn  Zn108  1  0.19103248  0.19004369  0.68999199  1
  Zn  Zn109  1  0.18449377  0.68994286  0.18920195  1
  Zn  Zn110  1  0.18418583  0.68917661  0.68936491  1
  Zn  Zn111  1  0.68846745  0.18736349  0.18179055  1
  Zn  Zn112  1  0.68845829  0.18911955  0.69058344  1
  Zn  Zn113  1  0.68743505  0.68559310  0.18855400  1
  Zn  Zn114  1  0.68442987  0.68610558  0.68811903  1
  Zn  Zn115  1  0.32135264  0.30851745  0.31530761  1
  Zn  Zn116  1  0.31429855  0.30889292  0.81372614  1
  Zn  Zn117  1  0.30799879  0.80876530  0.31174476  1
  Zn  Zn118  1  0.31092210  0.81005283  0.81365195  1
  Zn  Zn119  1  0.81864983  0.31360508  0.31298510  1
  Zn  Zn120  1  0.81401466  0.30639271  0.80995443  1
  Zn  Zn121  1  0.80985340  0.81010052  0.31171294  1
  Zn  Zn122  1  0.80953766  0.80659517  0.81885165  1
  Zn  Zn123  1  0.19113974  0.43965593  0.44241740  1
  Zn  Zn124  1  0.18634306  0.43700509  0.94635909  1
  Zn  Zn125  1  0.18814746  0.93972335  0.43576693  1
  Zn  Zn126  1  0.18962413  0.93306258  0.93879571  1
  Zn  Zn127  1  0.68625275  0.43598717  0.44323617  1
  Zn  Zn128  1  0.68443413  0.43583605  0.93694679  1
  Zn  Zn129  1  0.68934254  0.93528509  0.43877598  1
  Zn  Zn130  1  0.68968226  0.93651810  0.93589915  1
  Zn  Zn131  1  0.31487666  0.06515404  0.06352963  1
  Zn  Zn132  1  0.31430478  0.06540213  0.56175410  1
  Zn  Zn133  1  0.30688586  0.55834520  0.05808128  1
  Zn  Zn134  1  0.31254219  0.56249638  0.56073194  1
  Zn  Zn135  1  0.81492060  0.06137656  0.06438432  1
  Zn  Zn136  1  0.81085653  0.04894984  0.56400950  1
  Zn  Zn137  1  0.81151608  0.55598922  0.05801711  1
  Zn  Zn138  1  0.81027355  0.56157228  0.55916116  1
  Zn  Zn139  1  0.43545224  0.43493121  0.19098879  1
  Zn  Zn140  1  0.43697318  0.44332855  0.69086081  1
  Zn  Zn141  1  0.43542983  0.93886761  0.19013209  1
  Zn  Zn142  1  0.44304533  0.93720299  0.69074703  1
  Zn  Zn143  1  0.93946878  0.43898239  0.18440052  1
  Zn  Zn144  1  0.93716344  0.43765581  0.68961076  1
  Zn  Zn145  1  0.93940914  0.93931851  0.18531265  1
  Zn  Zn146  1  0.93713265  0.94408645  0.68552719  1
  Zn  Zn147  1  0.06197670  0.06705268  0.31281861  1
  Zn  Zn148  1  0.05882264  0.06555069  0.81136091  1
  Zn  Zn149  1  0.06135104  0.56249103  0.30755931  1
  Zn  Zn150  1  0.05648400  0.56444427  0.81341263  1
  Zn  Zn151  1  0.56334579  0.05664625  0.31458456  1
  Zn  Zn152  1  0.56273983  0.06195997  0.81907253  1
  Zn  Zn153  1  0.56170580  0.55680339  0.30482099  1
  Zn  Zn154  1  0.56024539  0.55718666  0.80661731  1
  Zn  Zn155  1  0.43836902  0.18560301  0.44489808  1
  Zn  Zn156  1  0.43680160  0.18843480  0.94094329  1
  Zn  Zn157  1  0.43481962  0.68784161  0.43580474  1
  Zn  Zn158  1  0.43720491  0.68435468  0.93813791  1
  Zn  Zn159  1  0.93786621  0.18593213  0.43171467  1
  Zn  Zn160  1  0.94003864  0.18813135  0.93561138  1
  Zn  Zn161  1  0.93274381  0.68574062  0.43642212  1
  Zn  Zn162  1  0.93302713  0.68788461  0.93535208  1
  Zn  Zn163  1  0.06440760  0.31827120  0.06334455  1
  Zn  Zn164  1  0.06734349  0.31635654  0.55993274  1
  Zn  Zn165  1  0.06085959  0.81473036  0.06568118  1
  Zn  Zn166  1  0.06183707  0.81679229  0.56378790  1
  Zn  Zn167  1  0.56266184  0.31335113  0.05152596  1
  Zn  Zn168  1  0.56857398  0.31475466  0.55889436  1
  Zn  Zn169  1  0.56055923  0.81038791  0.06275116  1
  Zn  Zn170  1  0.56719941  0.80602484  0.56224230  1
  O  O171  1  0.11342102  0.12330706  0.13123550  1
  O  O172  1  0.13650182  0.11784745  0.61355545  1
  O  O173  1  0.11701990  0.61741177  0.12951312  1
  O  O174  1  0.12379478  0.61988763  0.61771062  1
  O  O175  1  0.63393595  0.10721241  0.11961048  1
  O  O176  1  0.61749823  0.12282874  0.61905716  1
  O  O177  1  0.61816124  0.61799067  0.11951722  1
  O  O178  1  0.61474063  0.61514555  0.62705052  1
  O  O179  1  0.38361684  0.38232355  0.38175335  1
  O  O180  1  0.37656910  0.38167652  0.88146980  1
  O  O181  1  0.37734498  0.88135219  0.37778717  1
  O  O182  1  0.37232719  0.88072553  0.88460604  1
  O  O183  1  0.88700390  0.38348977  0.38400217  1
  O  O184  1  0.87893708  0.38044422  0.87756717  1
  O  O185  1  0.87558113  0.88574586  0.37218155  1
  O  O186  1  0.87745286  0.88232324  0.87862127  1
  O  O187  1  0.26503712  0.00947414  0.38343908  1
  O  O188  1  0.25742059  0.00359302  0.87292290  1
  O  O189  1  0.25702147  0.51257789  0.37936088  1
  O  O190  1  0.25048952  0.51306035  0.88307567  1
  O  O191  1  0.75685645  -0.00532988  0.36057915  1
  O  O192  1  0.76260339  0.00494086  0.87544904  1
  O  O193  1  0.75391096  0.50265925  0.36837575  1
  O  O194  1  0.75455048  0.50943075  0.87671655  1
  O  O195  1  0.24351085  0.48907010  0.12654184  1
  O  O196  1  0.24029189  0.49302852  0.61839693  1
  O  O197  1  0.24876282  0.98613434  0.11795040  1
  O  O198  1  0.24461810  0.99588763  0.62873259  1
  O  O199  1  0.74268839  0.49311484  0.13135436  1
  O  O200  1  0.74123431  0.49412847  0.62320873  1
  O  O201  1  0.74334903  0.99054363  0.13300416  1
  O  O202  1  0.74323086  0.98626168  0.62454120  1
  O  O203  1  -0.00704670  0.36840616  0.25864809  1
  O  O204  1  -0.00021378  0.36362813  0.75574148  1
  O  O205  1  0.01579930  0.87398283  0.24475923  1
  O  O206  1  0.00413415  0.87030390  0.75790642  1
  O  O207  1  0.49775155  0.37794224  0.26919982  1
  O  O208  1  0.49603356  0.37462894  0.76207714  1
  O  O209  1  0.50292463  0.86783607  0.25452556  1
  O  O210  1  0.50704388  0.86066579  0.75455222  1
  O  O211  1  0.49051254  0.12152014  0.25203324  1
  O  O212  1  0.50195570  0.11763676  0.73611525  1
  O  O213  1  0.49211795  0.62785880  0.23885602  1
  O  O214  1  0.49634182  0.63501865  0.74287298  1
  O  O215  1  0.99488382  0.13318513  0.24282878  1
  O  O216  1  0.99206107  0.13911335  0.75241549  1
  O  O217  1  0.98554619  0.62543186  0.24122417  1
  O  O218  1  0.98934169  0.63535063  0.74999992  1
  O  O219  1  0.36521438  0.25673765  0.00935390  1
  O  O220  1  0.36915724  0.25791869  0.50688002  1
  O  O221  1  0.36748064  0.75448602  0.00578881  1
  O  O222  1  0.36830900  0.75705335  0.50446838  1
  O  O223  1  0.87784041  0.26371199  -0.00111023  1
  O  O224  1  0.88537573  0.26170962  0.50237500  1
  O  O225  1  0.87666693  0.75668077  0.01047525  1
  O  O226  1  0.85851747  0.75028056  0.49112747  1
  O  O227  1  0.13323666  0.24445318  0.49637959  1
  O  O228  1  0.13933298  0.25597905  1.00064405  1
  O  O229  1  0.12818950  0.74779027  0.49316710  1
  O  O230  1  0.13138369  0.75805093  0.99124621  1
  O  O231  1  0.62789111  0.23333965  0.49810189  1
  O  O232  1  0.62978900  0.25383392  0.98047386  1
  O  O233  1  0.64091834  0.75077917  0.49472983  1
  O  O234  1  0.61817383  0.73835001  0.99280661  1
  O  O235  1  0.48731648  0.26037122  0.12157153  1
  O  O236  1  0.50390502  0.23646127  0.62030454  1
  O  O237  1  0.49126172  0.74094171  0.13005903  1
  O  O238  1  0.49692960  0.74045858  0.63162180  1
  O  O239  1  0.99943668  0.24621284  0.12925820  1
  O  O240  1  1.00506784  0.25451490  0.63604606  1
  O  O241  1  0.99186269  0.74243149  0.12731129  1
  O  O242  1  1.00670244  0.74887844  0.63865007  1
  O  O243  1  0.00264900  0.26014244  0.36664235  1
  O  O244  1  0.00252947  0.26078350  0.87007277  1
  O  O245  1  0.01296220  0.74358096  0.37320050  1
  O  O246  1  0.00514048  0.75510511  0.87006809  1
  O  O247  1  0.49793500  0.25921942  0.37766831  1
  O  O248  1  0.50978180  0.25734824  0.87533379  1
  O  O249  1  0.50047089  0.75401021  0.36789301  1
  O  O250  1  0.50857683  0.74686841  0.86885104  1
  O  O251  1  0.24696718  0.13345528  0.49215995  1
  O  O252  1  0.25446785  0.13509594  0.99481127  1
  O  O253  1  0.24355750  0.63171966  0.49230493  1
  O  O254  1  0.25119629  0.63845223  0.99345038  1
  O  O255  1  0.73560661  0.12113990  0.50729090  1
  O  O256  1  0.74749581  0.11844362  0.98785326  1
  O  O257  1  0.75425753  0.63403634  0.48917068  1
  O  O258  1  0.73616381  0.62030749  0.99451239  1
  O  O259  1  0.26022355  0.36781125  0.00880925  1
  O  O260  1  0.26068758  0.36860928  0.50517035  1
  O  O261  1  0.25861347  0.86441830  0.00689447  1
  O  O262  1  0.25592878  0.87160161  0.50462687  1
  O  O263  1  0.75943722  0.38438686  0.00823614  1
  O  O264  1  0.76205186  0.37532139  0.50854846  1
  O  O265  1  0.75672109  0.87917021  0.01281365  1
  O  O266  1  0.75447594  0.86038801  0.49703240  1
  O  O267  1  0.12003378  0.49869711  0.23383529  1
  O  O268  1  0.11848818  0.50069257  0.73780800  1
  O  O269  1  0.12490183  0.98854936  0.25076932  1
  O  O270  1  0.12868057  0.99777943  0.74253188  1
  O  O271  1  0.63267158  0.49251797  0.23772380  1
  O  O272  1  0.61554604  0.49323366  0.72898424  1
  O  O273  1  0.63158073  0.99428621  0.24112505  1
  O  O274  1  0.61810167  0.97970863  0.75640089  1
  O  O275  1  0.37624681  0.01258245  0.25761122  1
  O  O276  1  0.36915346  -0.00016421  0.75889541  1
  O  O277  1  0.37481006  0.51113342  0.25733395  1
  O  O278  1  0.37099558  0.50267522  0.76546271  1
  O  O279  1  0.86945090  0.00416841  0.25296581  1
  O  O280  1  0.88810254  0.01842034  0.76049409  1
  O  O281  1  0.86821336  0.50611948  0.25260754  1
  O  O282  1  0.88091154  0.50937312  0.76391336  1
  O  O283  1  0.11375928  0.37792982  0.38161213  1
  O  O284  1  0.11691203  0.37574714  0.87335571  1
  O  O285  1  0.13300658  0.86832020  0.36212182  1
  O  O286  1  0.12032801  0.86649293  0.86939095  1
  O  O287  1  0.60952788  0.37818149  0.37761773  1
  O  O288  1  0.61478626  0.37054766  0.87261895  1
  O  O289  1  0.61690108  0.87555930  0.36572805  1
  O  O290  1  0.62388657  0.86442201  0.87091165  1
  O  O291  1  0.37188459  0.13158012  0.13935477  1
  O  O292  1  0.39281080  0.12372978  0.62334375  1
  O  O293  1  0.37813752  0.62401864  0.12909306  1
  O  O294  1  0.38387568  0.63026940  0.62474677  1
  O  O295  1  0.88613611  0.12481714  0.13416356  1
  O  O296  1  0.87136193  0.12039384  0.63715494  1
  O  O297  1  0.87726793  0.62970971  0.12719566  1
  O  O298  1  0.87408325  0.61821771  0.63889066  1
  O  O299  1  0.25620688  0.26057754  0.12280505  1
  O  O300  1  0.24860443  0.26002809  0.61428583  1
  O  O301  1  0.25303188  0.75639117  0.11853423  1
  O  O302  1  0.25402076  0.75674999  0.61957065  1
  O  O303  1  0.75518862  0.26387980  0.12448429  1
  O  O304  1  0.74886503  0.26407753  0.62047254  1
  O  O305  1  0.75776136  0.75744164  0.12931136  1
  O  O306  1  0.74677680  0.75028006  0.61315670  1
  O  O307  1  0.25221968  0.24551382  0.38590825  1
  O  O308  1  0.24783878  0.24202094  0.88557157  1
  O  O309  1  0.24022139  0.74048358  0.38035220  1
  O  O310  1  0.24017704  0.74497933  0.88275990  1
  O  O311  1  0.76399707  0.25014282  0.38626050  1
  O  O312  1  0.74282002  0.24319215  0.87454932  1
  O  O313  1  0.74614912  0.73813142  0.37536371  1
  O  O314  1  0.73614838  0.73613088  0.87767156  1
  O  O315  1  -0.00351611  0.11751284  0.00780351  1
  O  O316  1  0.01490154  0.11897919  0.49289854  1
  O  O317  1  -0.00514006  0.62432211  0.01076239  1
  O  O318  1  0.00358983  0.61838214  0.50162844  1
  O  O319  1  0.50662622  0.12294450  -0.00261354  1
  O  O320  1  0.50861856  0.11648846  0.50954071  1
  O  O321  1  0.50646912  0.62621217  0.01290210  1
  O  O322  1  0.49932262  0.63174811  0.51245619  1
  O  O323  1  0.49003946  0.37042466  0.49103945  1
  O  O324  1  0.48397748  0.37197656  0.98854205  1
  O  O325  1  0.49670664  0.87950903  0.49654123  1
  O  O326  1  0.48487978  0.87336047  1.00022602  1
  O  O327  1  0.99627269  0.38376656  0.49486981  1
  O  O328  1  0.99266582  0.37696066  0.99167078  1
  O  O329  1  1.00432895  0.88954051  0.49709154  1
  O  O330  1  0.99269842  0.88132411  0.99542732  1
  O  O331  1  0.48852977  0.50204731  0.37494671  1
  O  O332  1  0.48984896  0.49256016  0.87478171  1
  O  O333  1  0.48951257  0.99322155  0.38222288  1
  O  O334  1  0.48648022  0.99547981  0.87735239  1
  O  O335  1  0.99628886  0.49686810  0.38094291  1
  O  O336  1  0.99334533  0.48905835  0.87571617  1
  O  O337  1  0.99352536  1.00320428  0.38095393  1
  O  O338  1  0.99305069  0.99627772  0.88140489  1
  O  O339  1  0.00225377  0.00868691  0.11595761  1
  O  O340  1  0.01542314  0.00249449  0.61657062  1
  O  O341  1  0.00787525  0.50892970  0.12297446  1
  O  O342  1  0.00715917  0.50153707  0.61722299  1
  O  O343  1  0.51652854  -0.00828181  0.12621885  1
  O  O344  1  0.50630633  0.00541914  0.61848684  1
  O  O345  1  0.50763695  0.50543962  0.13110857  1
  O  O346  1  0.49959746  0.51448288  0.62379099  1
  O  O347  1  0.25807884  0.37079165  0.23915364  1
  O  O348  1  0.24759773  0.37220912  0.73708906  1
  O  O349  1  0.23907267  0.86928780  0.24097482  1
  O  O350  1  0.24391587  0.88169250  0.74639111  1
  O  O351  1  0.75529718  0.38554038  0.24192818  1
  O  O352  1  0.75566469  0.37482732  0.73514230  1
  O  O353  1  0.74462544  0.88000022  0.24004064  1
  O  O354  1  0.73380342  0.86211392  0.75245653  1
  O  O355  1  0.25625936  0.13058760  0.26438777  1
  O  O356  1  0.25139186  0.11609194  0.75856218  1
  O  O357  1  0.25760701  0.63133988  0.25829666  1
  O  O358  1  0.25129083  0.63488834  0.76498496  1
  O  O359  1  0.76074389  0.11488477  0.24183007  1
  O  O360  1  0.76603337  0.13177575  0.75854023  1
  O  O361  1  0.75822343  0.61324509  0.25111236  1
  O  O362  1  0.75608076  0.62980186  0.75988343  1
  O  O363  1  0.37376949  0.12002330  0.36775426  1
  O  O364  1  0.36492010  0.11548660  0.87591522  1
  O  O365  1  0.36809102  0.61960363  0.36785202  1
  O  O366  1  0.36533365  0.61847553  0.87582701  1
  O  O367  1  0.88150666  0.11410171  0.35934193  1
  O  O368  1  0.86873156  0.12083321  0.87278359  1
  O  O369  1  0.86696632  0.61819602  0.36369342  1
  O  O370  1  0.86497404  0.61811850  0.87120701  1
  O  O371  1  0.14034357  0.38109783  0.12798990  1
  O  O372  1  0.13445577  0.38601792  0.62435112  1
  O  O373  1  0.13212483  0.87641543  0.13670426  1
  O  O374  1  0.13187001  0.88436137  0.63123854  1
  O  O375  1  0.63114288  0.37951561  0.12205949  1
  O  O376  1  0.63879123  0.38058813  0.62456627  1
  O  O377  1  0.63168060  0.87785125  0.12967945  1
  O  O378  1  0.62063626  0.87079251  0.64331864  1
  O  O379  1  0.11275452  0.24890597  0.25289064  1
  O  O380  1  0.11352584  0.25078286  0.75343207  1
  O  O381  1  0.12139777  0.75950330  0.25760447  1
  O  O382  1  0.11581995  0.75652861  0.75880783  1
  O  O383  1  0.62939679  0.25052611  0.25106467  1
  O  O384  1  0.63103115  0.25792426  0.76524382  1
  O  O385  1  0.61671087  0.75484912  0.24986131  1
  O  O386  1  0.61715338  0.75297491  0.75919993  1
  O  O387  1  0.37602702  0.23611901  0.24368807  1
  O  O388  1  0.36968306  0.24414843  0.74345263  1
  O  O389  1  0.37841563  0.73866248  0.24489030  1
  O  O390  1  0.38203817  0.74977450  0.74339894  1
  O  O391  1  0.88642117  0.24292936  0.24556688  1
  O  O392  1  0.88830045  0.23845276  0.75051304  1
  O  O393  1  0.87507694  0.74189768  0.23981666  1
  O  O394  1  0.88311429  0.74008412  0.75968762  1
  O  O395  1  0.37110862  0.49129363  0.49046337  1
  O  O396  1  0.36854240  0.49113540  0.98867236  1
  O  O397  1  0.38666076  0.99599776  0.49472285  1
  O  O398  1  0.37410968  0.99085544  0.99474392  1
  O  O399  1  0.88636041  0.49604397  0.49557811  1
  O  O400  1  0.87930618  0.49298006  0.98651089  1
  O  O401  1  0.88565534  1.00233143  0.48791503  1
  O  O402  1  0.88417590  0.99462668  0.99252599  1
  O  O403  1  0.11176623  -0.00831451  0.00097474  1
  O  O404  1  0.12196986  0.00763696  0.50423276  1
  O  O405  1  0.12214879  0.49525721  0.02081586  1
  O  O406  1  0.11525869  0.50629499  0.50575966  1
  O  O407  1  0.62286664  -0.00816327  0.01346605  1
  O  O408  1  0.61473807  0.00461424  0.49910766  1
  O  O409  1  0.62510294  0.50623233  0.01194166  1
  O  O410  1  0.62166282  0.49505915  0.51960996  1
  O  O411  1  0.36681580  0.37188384  0.12062706  1
  O  O412  1  0.37022767  0.37998588  0.61818535  1
  O  O413  1  0.36760443  0.86944871  0.12186927  1
  O  O414  1  0.37170768  0.87070162  0.62030080  1
  O  O415  1  0.86856557  0.37811612  0.11347392  1
  O  O416  1  0.86352380  0.38486696  0.61703992  1
  O  O417  1  0.86876751  0.86743496  0.12189580  1
  O  O418  1  0.88278789  0.87412685  0.62021266  1
  O  O419  1  0.13597360  0.12723246  0.38192456  1
  O  O420  1  0.13820875  0.12265890  0.87420534  1
  O  O421  1  0.13022606  0.63029946  0.37747579  1
  O  O422  1  0.12797150  0.63603441  0.87240913  1
  O  O423  1  0.62099307  0.11912739  0.39165811  1
  O  O424  1  0.63321444  0.13516951  0.87234428  1
  O  O425  1  0.63749546  0.62076157  0.36463165  1
  O  O426  1  0.62769267  0.62458408  0.88129577  1
