# generated using pymatgen
data_V85Zn86O256
_symmetry_space_group_name_H-M   'P 1'
_cell_length_a   16.96028875
_cell_length_b   16.94531409
_cell_length_c   16.94786969
_cell_angle_alpha   89.95350139
_cell_angle_beta   89.94719379
_cell_angle_gamma   89.94930090
_symmetry_Int_Tables_number   1
_chemical_formula_structural   V85Zn86O256
_chemical_formula_sum   'V85 Zn86 O256'
_cell_volume   4870.76844573
_cell_formula_units_Z   1
loop_
 _symmetry_equiv_pos_site_id
 _symmetry_equiv_pos_as_xyz
  1  'x, y, z'
loop_
 _atom_site_type_symbol
 _atom_site_label
 _atom_site_symmetry_multiplicity
 _atom_site_fract_x
 _atom_site_fract_y
 _atom_site_fract_z
 _atom_site_occupancy
  V  V0  1  0.00590833  0.49921131  -0.00267795  1
  V  V1  1  0.25830327  0.74992352  0.00060642  1
  V  V2  1  0.25103050  0.87444710  0.62111769  1
  V  V3  1  0.12713886  0.12531581  -0.00842068  1
  V  V4  1  0.12633916  0.87309459  0.75094934  1
  V  V5  1  0.13344532  0.74639287  0.37424357  1
  V  V6  1  0.61685799  0.37580441  0.25649527  1
  V  V7  1  0.00035818  0.26304411  0.75665869  1
  V  V8  1  0.75965677  0.50181350  0.74340216  1
  V  V9  1  0.13388186  0.12490632  0.49777779  1
  V  V10  1  0.87214356  0.00190127  0.87513996  1
  V  V11  1  0.88176900  0.26002811  0.61071391  1
  V  V12  1  0.12578565  0.74736524  0.88429211  1
  V  V13  1  0.49633081  0.75518415  0.25365821  1
  V  V14  1  0.87566188  0.86829356  0.00250189  1
  V  V15  1  0.49013344  0.49460108  0.49343121  1
  V  V16  1  0.62747473  0.50302150  0.12955680  1
  V  V17  1  0.74600306  -0.00278202  0.75186407  1
  V  V18  1  0.75795388  0.37709893  0.60571237  1
  V  V19  1  0.74530668  0.13252101  0.86797702  1
  V  V20  1  0.12348581  0.87552110  0.25100451  1
  V  V21  1  0.75067403  0.62095292  0.37050241  1
  V  V22  1  0.49335280  0.62647784  0.12602763  1
  V  V23  1  0.87257474  0.87193559  0.50347525  1
  V  V24  1  0.62374298  0.00157099  0.12331176  1
  V  V25  1  0.75060221  0.86899128  0.12343603  1
  V  V26  1  0.62431141  0.74814419  0.87060692  1
  V  V27  1  0.37182237  0.49587898  0.86864864  1
  V  V28  1  0.38047046  0.00886963  0.37137770  1
  V  V29  1  0.87012797  0.61952973  0.24179214  1
  V  V30  1  0.75903914  0.62375103  0.86938891  1
  V  V31  1  0.75142537  0.74870581  -0.00105305  1
  V  V32  1  0.87728632  0.48850814  0.87363181  1
  V  V33  1  0.86985039  0.24610107  0.12895650  1
  V  V34  1  0.49677734  0.49805915  -0.00106056  1
  V  V35  1  0.74931135  0.38095169  0.12906858  1
  V  V36  1  0.12344563  0.00174853  0.12589681  1
  V  V37  1  0.62387532  0.49838359  0.62368584  1
  V  V38  1  0.12560721  -0.00072613  0.62666607  1
  V  V39  1  0.62252488  0.75511109  0.37372099  1
  V  V40  1  0.37030737  -0.00520807  0.87825778  1
  V  V41  1  0.87400230  0.74470542  0.63169611  1
  V  V42  1  0.38488076  0.88355819  0.49191346  1
  V  V43  1  -0.00212032  0.00100534  -0.00044824  1
  V  V44  1  0.49449771  -0.00895171  0.00118153  1
  V  V45  1  0.25703040  0.36883858  0.63238877  1
  V  V46  1  0.13520449  0.24487671  0.37636419  1
  V  V47  1  0.00105326  0.62299886  0.62467427  1
  V  V48  1  0.37019015  0.62397786  0.26458651  1
  V  V49  1  0.76086900  0.00132944  0.24902558  1
  V  V50  1  0.74292794  0.87464950  0.63062960  1
  V  V51  1  0.25188926  0.50299133  0.26470204  1
  V  V52  1  0.37648807  0.12883746  0.75174898  1
  V  V53  1  0.62178021  0.12602091  -0.00488323  1
  V  V54  1  0.61823765  -0.00303474  0.62691314  1
  V  V55  1  0.37577132  0.36939156  0.00463387  1
  V  V56  1  0.00228528  0.12828364  0.63041344  1
  V  V57  1  -0.00122471  0.87004708  0.37759292  1
  V  V58  1  0.37163869  0.62274031  0.74975299  1
  V  V59  1  -0.00070061  0.87441689  0.87544697  1
  V  V60  1  0.12411125  0.25949832  0.87668390  1
  V  V61  1  -0.00524814  0.37550508  0.38362594  1
  V  V62  1  0.24338663  0.00841082  0.25754972  1
  V  V63  1  0.24469972  0.61935072  0.87849647  1
  V  V64  1  0.00145697  -0.00476149  0.50494186  1
  V  V65  1  0.25067218  0.00243347  0.75304018  1
  V  V66  1  0.48991447  0.13356157  0.12302946  1
  V  V67  1  0.74549730  0.25091971  -0.00177194  1
  V  V68  1  0.62136681  0.87710841  0.25751230  1
  V  V69  1  -0.00789579  0.74918434  0.24335858  1
  V  V70  1  0.25659687  0.87693241  0.12226026  1
  V  V71  1  -0.00463724  0.12709014  0.12291326  1
  V  V72  1  0.49895297  0.12935833  0.61958739  1
  V  V73  1  0.12486674  0.37586215  0.24775949  1
  V  V74  1  0.12768290  0.51120479  0.12387743  1
  V  V75  1  0.74898242  0.75119823  0.49979320  1
  V  V76  1  0.13266778  0.62058734  0.49708766  1
  V  V77  1  0.50242876  0.74932278  0.74858300  1
  V  V78  1  -0.00201499  0.74460555  0.75342035  1
  V  V79  1  0.37466258  0.75181812  0.62434400  1
  V  V80  1  0.62525244  0.62543276  -0.00112409  1
  V  V81  1  0.25399547  0.24577031  0.00211041  1
  V  V82  1  -0.00558819  0.24928501  0.25055639  1
  V  V83  1  0.62146723  0.62823915  0.49990973  1
  V  V84  1  0.50150537  0.87211648  0.87435669  1
  Zn  Zn85  1  0.49373603  0.25029920  0.25876255  1
  Zn  Zn86  1  0.13398348  0.39250150  0.75718193  1
  Zn  Zn87  1  0.52249186  0.24305271  0.75841635  1
  Zn  Zn88  1  0.49775317  0.62212041  0.62669995  1
  Zn  Zn89  1  0.25652353  0.74780837  0.49323234  1
  Zn  Zn90  1  0.87379813  0.12991476  0.74851145  1
  Zn  Zn91  1  0.48319489  0.36812458  0.38181618  1
  Zn  Zn92  1  0.50722965  0.36186072  0.87105525  1
  Zn  Zn93  1  0.82298724  0.15765180  0.32597388  1
  Zn  Zn94  1  0.87807846  0.37298013  -0.00043151  1
  Zn  Zn95  1  0.62860729  0.36410868  0.75083217  1
  Zn  Zn96  1  0.33816371  0.32188780  0.49435090  1
  Zn  Zn97  1  0.35785243  0.14190978  0.24683813  1
  Zn  Zn98  1  0.87137841  0.49748327  0.37589319  1
  Zn  Zn99  1  0.53473258  0.01371599  0.46568147  1
  Zn  Zn100  1  0.67719948  0.19191325  0.43516064  1
  Zn  Zn101  1  -0.00205039  0.63037807  0.11974597  1
  Zn  Zn102  1  0.37580940  0.75396078  0.12360205  1
  Zn  Zn103  1  -0.00271606  0.49713483  0.50334219  1
  Zn  Zn104  1  0.25606833  0.37325079  0.12777822  1
  Zn  Zn105  1  0.87226007  0.00359178  0.38400872  1
  Zn  Zn106  1  0.13614059  0.50304166  0.63656645  1
  Zn  Zn107  1  0.18108020  0.19036784  0.18124956  1
  Zn  Zn108  1  0.18990966  0.18918395  0.69182590  1
  Zn  Zn109  1  0.18793674  0.68804484  0.18946734  1
  Zn  Zn110  1  0.18797996  0.68464559  0.69077193  1
  Zn  Zn111  1  0.69950877  0.20628181  0.22253129  1
  Zn  Zn112  1  0.67105488  0.20990081  0.63706673  1
  Zn  Zn113  1  0.68608992  0.68864481  0.18691484  1
  Zn  Zn114  1  0.68678370  0.68341448  0.68861722  1
  Zn  Zn115  1  0.31935929  0.31605625  0.31113849  1
  Zn  Zn116  1  0.30935465  0.31110663  0.81781258  1
  Zn  Zn117  1  0.31302772  0.81824864  0.30960544  1
  Zn  Zn118  1  0.31458354  0.81281187  0.81380550  1
  Zn  Zn119  1  0.80537965  0.32404693  0.31445515  1
  Zn  Zn120  1  0.80716467  0.31175586  0.80356954  1
  Zn  Zn121  1  0.81182629  0.81204330  0.31283041  1
  Zn  Zn122  1  0.81322451  0.81236370  0.81353265  1
  Zn  Zn123  1  0.18695386  0.43368103  0.44256240  1
  Zn  Zn124  1  0.18928818  0.43628296  0.94076141  1
  Zn  Zn125  1  0.19036942  0.93798737  0.43866164  1
  Zn  Zn126  1  0.18707181  0.93594643  0.93923754  1
  Zn  Zn127  1  0.68468827  0.44311524  0.43701876  1
  Zn  Zn128  1  0.68700913  0.43609683  0.93715254  1
  Zn  Zn129  1  0.69792325  1.02847380  0.44003921  1
  Zn  Zn130  1  0.68340448  0.93579449  0.93486057  1
  Zn  Zn131  1  0.31014909  0.06073985  0.06081580  1
  Zn  Zn132  1  0.34017744  0.11048132  0.53558839  1
  Zn  Zn133  1  0.31053869  0.56158542  0.06262268  1
  Zn  Zn134  1  0.31002650  0.55689434  0.56780189  1
  Zn  Zn135  1  0.80959056  0.06258518  0.06194483  1
  Zn  Zn136  1  0.81385512  0.07082137  0.56309055  1
  Zn  Zn137  1  0.81518270  0.56138795  0.05924989  1
  Zn  Zn138  1  0.81658158  0.56310940  0.55640603  1
  Zn  Zn139  1  0.43393496  0.44001820  0.18881991  1
  Zn  Zn140  1  0.43748316  0.42539323  0.68291721  1
  Zn  Zn141  1  0.43479338  0.94184464  0.19135678  1
  Zn  Zn142  1  0.43473461  0.93344371  0.69073552  1
  Zn  Zn143  1  0.93895024  0.43839351  0.18530600  1
  Zn  Zn144  1  0.94094917  0.43882203  0.68962880  1
  Zn  Zn145  1  0.93858775  0.93100710  0.18265680  1
  Zn  Zn146  1  0.93415065  0.93628460  0.69039481  1
  Zn  Zn147  1  0.04426144  0.06676045  0.31673413  1
  Zn  Zn148  1  0.06215169  0.06472494  0.81297886  1
  Zn  Zn149  1  0.06181380  0.56333368  0.31106995  1
  Zn  Zn150  1  0.05914172  0.56402405  0.81625871  1
  Zn  Zn151  1  0.56531703  0.06720887  0.30318697  1
  Zn  Zn152  1  0.56246045  0.06133365  0.81054333  1
  Zn  Zn153  1  0.56034984  0.56323960  0.31320339  1
  Zn  Zn154  1  0.57565601  0.53590449  0.82261644  1
  Zn  Zn155  1  0.44998409  0.19210812  0.43096288  1
  Zn  Zn156  1  0.43680492  0.18518735  0.93080320  1
  Zn  Zn157  1  0.43894447  0.69085354  0.43878486  1
  Zn  Zn158  1  0.43440776  0.68445139  0.93645419  1
  Zn  Zn159  1  0.95131573  0.18487043  0.44133482  1
  Zn  Zn160  1  0.93370387  0.19045106  0.93705114  1
  Zn  Zn161  1  0.93771441  0.68215918  0.43717812  1
  Zn  Zn162  1  0.93808629  0.68196600  0.93971411  1
  Zn  Zn163  1  0.06200750  0.31691553  0.06239139  1
  Zn  Zn164  1  0.08305252  0.31350013  0.56550425  1
  Zn  Zn165  1  0.06636528  0.81287513  0.06358466  1
  Zn  Zn166  1  0.06509175  0.80577792  0.56253337  1
  Zn  Zn167  1  0.56476125  0.31406116  0.06047726  1
  Zn  Zn168  1  0.56295507  0.31200154  0.55718000  1
  Zn  Zn169  1  0.56326541  0.81219668  0.06365037  1
  Zn  Zn170  1  0.56014499  0.81857437  0.56247505  1
  O  O171  1  0.11486584  0.11980394  0.11232529  1
  O  O172  1  0.11956529  0.11905720  0.62199804  1
  O  O173  1  0.12109742  0.61419983  0.13060101  1
  O  O174  1  0.11890637  0.62840798  0.61529407  1
  O  O175  1  0.61816385  0.11054536  0.11137262  1
  O  O176  1  0.60820051  0.10833925  0.62923891  1
  O  O177  1  0.61488084  0.62137783  0.12139433  1
  O  O178  1  0.62337916  0.62237267  0.61312555  1
  O  O179  1  0.36896318  0.36961904  0.39426242  1
  O  O180  1  0.37725229  0.38368056  0.88411757  1
  O  O181  1  0.36814112  0.88502079  0.38338831  1
  O  O182  1  0.38734911  0.88289494  0.87333744  1
  O  O183  1  0.88966659  0.37672489  0.36923897  1
  O  O184  1  0.86731127  0.38589042  0.87619736  1
  O  O185  1  0.88239928  0.87225827  0.38647187  1
  O  O186  1  0.88062959  0.88141326  0.88197383  1
  O  O187  1  0.25292334  -0.00361771  0.36173094  1
  O  O188  1  0.25844336  -0.01035803  0.86698484  1
  O  O189  1  0.23885200  0.50100536  0.36244400  1
  O  O190  1  0.25936505  0.50898938  0.88360927  1
  O  O191  1  0.75838176  -0.01590316  0.35270150  1
  O  O192  1  0.75270180  0.00307486  0.86966567  1
  O  O193  1  0.74835312  0.51772815  0.37428485  1
  O  O194  1  0.75937423  0.50658567  0.86766605  1
  O  O195  1  0.24000440  0.49652491  0.12810786  1
  O  O196  1  0.24944599  0.48400417  0.62439425  1
  O  O197  1  0.24131863  0.99288657  0.12893714  1
  O  O198  1  0.24145069  0.98452509  0.63683922  1
  O  O199  1  0.73943537  0.49383407  0.11671952  1
  O  O200  1  0.75059885  0.49840988  0.62758210  1
  O  O201  1  0.74339745  0.98928200  0.12752895  1
  O  O202  1  0.74790176  0.99376719  0.63417280  1
  O  O203  1  0.00581045  0.36602836  0.25335962  1
  O  O204  1  0.00504694  0.36464579  0.75108154  1
  O  O205  1  0.00241580  0.86808961  0.25798190  1
  O  O206  1  0.00526007  0.86619505  0.75618484  1
  O  O207  1  0.50873339  0.38478623  0.25408911  1
  O  O208  1  0.50534634  0.36558075  0.74982189  1
  O  O209  1  0.50873323  0.86607139  0.23869961  1
  O  O210  1  0.49530893  0.85864226  0.75932147  1
  O  O211  1  0.50568241  0.12775174  0.22848513  1
  O  O212  1  0.49064618  0.12355685  0.74496287  1
  O  O213  1  0.49231749  0.63086543  0.24341892  1
  O  O214  1  0.48684096  0.63567563  0.75217213  1
  O  O215  1  1.00944325  0.14165230  0.23580637  1
  O  O216  1  0.99944893  0.12851200  0.73948174  1
  O  O217  1  0.98731746  0.63262845  0.24962831  1
  O  O218  1  1.00316593  0.63933821  0.74329219  1
  O  O219  1  0.36527565  0.25534240  -0.00738252  1
  O  O220  1  0.36990028  0.21553888  0.50340090  1
  O  O221  1  0.36258707  0.74977649  0.00193127  1
  O  O222  1  0.37571118  0.76135653  0.50531013  1
  O  O223  1  0.86251818  0.25310011  0.00809169  1
  O  O224  1  0.88911235  0.25055573  0.51255080  1
  O  O225  1  0.86987187  0.76116318  -0.00783124  1
  O  O226  1  0.87066922  0.75422785  0.50803122  1
  O  O227  1  0.11960498  0.23980198  0.48507800  1
  O  O228  1  0.12500854  0.24363577  0.99416675  1
  O  O229  1  0.12937377  0.74205948  0.49092731  1
  O  O230  1  0.13137237  0.75311628  0.98875905  1
  O  O231  1  0.64601398  0.24475171  0.52855611  1
  O  O232  1  0.63732211  0.23989821  1.00633798  1
  O  O233  1  0.62731396  0.74797013  0.49566530  1
  O  O234  1  0.62955115  0.74380274  0.99195669  1
  O  O235  1  0.49986810  0.23285144  0.11124515  1
  O  O236  1  0.50081507  0.23073776  0.62604697  1
  O  O237  1  0.49892249  0.74265288  0.13272717  1
  O  O238  1  0.49357282  0.74987844  0.63268855  1
  O  O239  1  0.98983240  0.24921219  0.12953909  1
  O  O240  1  0.99821088  0.24560612  0.63283288  1
  O  O241  1  1.00623585  0.74993635  0.13842320  1
  O  O242  1  0.99458914  0.74467023  0.63436854  1
  O  O243  1  0.00576461  0.26066646  0.36605908  1
  O  O244  1  0.00716056  0.24459471  0.86734548  1
  O  O245  1  0.00664436  0.75733640  0.36864106  1
  O  O246  1  0.00621010  0.75135620  0.87149624  1
  O  O247  1  0.51553180  0.25648209  0.37252358  1
  O  O248  1  0.50744955  0.24748753  0.87392251  1
  O  O249  1  0.50585685  0.74859368  0.36109881  1
  O  O250  1  0.50253456  0.75360953  0.87099129  1
  O  O251  1  0.23110134  0.10808409  0.50300851  1
  O  O252  1  0.23862074  0.13101688  1.00511329  1
  O  O253  1  0.23596851  0.62867832  0.50561509  1
  O  O254  1  0.25257552  0.63481470  0.99050005  1
  O  O255  1  0.76738538  0.11309302  0.47118916  1
  O  O256  1  0.74138781  0.12983456  0.99201117  1
  O  O257  1  0.73924835  0.63304045  0.49244171  1
  O  O258  1  0.74605209  0.63131306  0.99380658  1
  O  O259  1  0.25955144  0.36654941  0.00146109  1
  O  O260  1  0.23634531  0.36907326  0.51687306  1
  O  O261  1  0.24215623  0.86547762  0.01138823  1
  O  O262  1  0.25667855  0.87264952  0.50889396  1
  O  O263  1  0.74635192  0.36682723  0.00899918  1
  O  O264  1  0.75585362  0.38623272  0.50624691  1
  O  O265  1  0.75598418  0.87004253  0.00324805  1
  O  O266  1  0.76386294  0.86781473  0.51259177  1
  O  O267  1  0.13206424  0.49631778  0.24385050  1
  O  O268  1  0.12376543  0.50602538  0.75077342  1
  O  O269  1  0.12554466  0.99623750  0.24782372  1
  O  O270  1  0.13181320  0.99429637  0.74887387  1
  O  O271  1  0.61901506  0.49626522  0.23567549  1
  O  O272  1  0.63685346  0.51192922  0.72922196  1
  O  O273  1  0.63398201  0.99305392  0.23933873  1
  O  O274  1  0.63887416  0.99945030  0.74439168  1
  O  O275  1  0.36053036  -0.00054148  0.25787146  1
  O  O276  1  0.36650282  -0.00030132  0.75863461  1
  O  O277  1  0.35976467  0.50747104  0.24829392  1
  O  O278  1  0.38394670  0.50711848  0.76228199  1
  O  O279  1  0.86236476  -0.00817035  0.24258096  1
  O  O280  1  0.86576600  0.00370783  0.75682793  1
  O  O281  1  0.87886422  0.51612828  0.25378067  1
  O  O282  1  0.87142866  0.50084170  0.75912223  1
  O  O283  1  0.11798307  0.36492352  0.36510977  1
  O  O284  1  0.12646521  0.36363346  0.87611777  1
  O  O285  1  0.11803403  0.86619511  0.37158987  1
  O  O286  1  0.11752566  0.86781751  0.87113228  1
  O  O287  1  0.63148909  0.38266041  0.35607746  1
  O  O288  1  0.61158700  0.41957629  0.85710045  1
  O  O289  1  0.62692804  0.87124691  0.35866149  1
  O  O290  1  0.61086656  0.86567393  0.87804407  1
  O  O291  1  0.38811468  0.11573360  0.12632002  1
  O  O292  1  0.38975342  0.10716231  0.64254126  1
  O  O293  1  0.38489570  0.62620786  0.13017443  1
  O  O294  1  0.37446382  0.63219539  0.63368659  1
  O  O295  1  0.87844416  0.13781622  0.11796074  1
  O  O296  1  0.88503774  0.13797934  0.62700168  1
  O  O297  1  0.87318637  0.62504012  0.13806195  1
  O  O298  1  0.88253170  0.63923547  0.62171937  1
  O  O299  1  0.23970900  0.25628426  0.10817269  1
  O  O300  1  0.23903173  0.26559684  0.62723266  1
  O  O301  1  0.24789966  0.75750498  0.11771439  1
  O  O302  1  0.25555486  0.76129328  0.62734876  1
  O  O303  1  0.75527295  0.25590124  0.12343974  1
  O  O304  1  0.77609026  0.26423776  0.62782326  1
  O  O305  1  0.74204645  0.76193018  0.11636069  1
  O  O306  1  0.75682318  0.75500304  0.62421270  1
  O  O307  1  0.23236756  0.24874388  0.36445959  1
  O  O308  1  0.23732219  0.24883952  0.88927897  1
  O  O309  1  0.23669649  0.75399463  0.37155574  1
  O  O310  1  0.24391009  0.74683745  0.88270331  1
  O  O311  1  0.73996054  0.23293561  0.33913164  1
  O  O312  1  0.75416127  0.24277732  0.88422549  1
  O  O313  1  0.74245662  0.74525584  0.38105799  1
  O  O314  1  0.74494343  0.74283719  0.87695040  1
  O  O315  1  0.00321738  0.12021818  0.00439387  1
  O  O316  1  0.01051150  0.11587166  0.51544287  1
  O  O317  1  -0.00614390  0.60825628  0.00553143  1
  O  O318  1  0.01255634  0.63330799  0.51106875  1
  O  O319  1  0.50470284  0.11238917  0.00557916  1
  O  O320  1  0.48892070  0.10799775  0.51806094  1
  O  O321  1  0.50284956  0.62180684  0.00891627  1
  O  O322  1  0.51175786  0.62311986  0.50014025  1
  O  O323  1  0.50275327  0.38998234  0.50219972  1
  O  O324  1  0.49621119  0.38385483  0.99580583  1
  O  O325  1  0.48680737  0.88740584  0.50426222  1
  O  O326  1  0.50222913  0.88429197  0.99537207  1
  O  O327  1  1.01006129  0.37406039  0.48478642  1
  O  O328  1  0.99531476  0.39211613  1.00549067  1
  O  O329  1  0.99251503  0.87195467  0.49669247  1
  O  O330  1  0.99286757  0.87851236  0.99650694  1
  O  O331  1  0.50706128  0.49822792  0.39073742  1
  O  O332  1  0.48582069  0.51345293  0.89183025  1
  O  O333  1  0.48348750  0.99533361  0.36207475  1
  O  O334  1  0.49604190  0.99004046  0.88086760  1
  O  O335  1  1.00512446  0.48167730  0.37007676  1
  O  O336  1  0.99073016  0.50625010  0.88783161  1
  O  O337  1  1.00342692  0.98045639  0.38412216  1
  O  O338  1  0.99350185  0.99497111  0.88010981  1
  O  O339  1  0.00318055  0.00485713  0.11884663  1
  O  O340  1  0.00521667  0.00535702  0.62520724  1
  O  O341  1  0.00748693  0.50337490  0.11732365  1
  O  O342  1  -0.00158350  0.51658577  0.62621131  1
  O  O343  1  0.50578035  0.00198448  0.11785253  1
  O  O344  1  0.51272778  -0.00263584  0.63861168  1
  O  O345  1  0.50335338  0.50831608  0.11579653  1
  O  O346  1  0.50938790  0.50224404  0.61672317  1
  O  O347  1  0.24242897  0.38785523  0.24795505  1
  O  O348  1  0.25086933  0.37148941  0.74212326  1
  O  O349  1  0.23992881  0.88249339  0.24130999  1
  O  O350  1  0.24509476  0.87996108  0.74588683  1
  O  O351  1  0.73664962  0.37732257  0.23553717  1
  O  O352  1  0.75093549  0.39160314  0.74032606  1
  O  O353  1  0.74360616  0.87816206  0.23879013  1
  O  O354  1  0.75815382  0.88387297  0.74210579  1
  O  O355  1  0.24381466  0.11214425  0.23766683  1
  O  O356  1  0.25999413  0.10936678  0.74408725  1
  O  O357  1  0.25655164  0.61318993  0.24612293  1
  O  O358  1  0.26386741  0.63278088  0.76141733  1
  O  O359  1  0.75176355  0.10487364  0.24004725  1
  O  O360  1  0.75239766  0.11627484  0.76372941  1
  O  O361  1  0.76192130  0.63460588  0.25499964  1
  O  O362  1  0.75074042  0.61446964  0.75698987  1
  O  O363  1  0.37767531  0.11156653  0.36321146  1
  O  O364  1  0.37971111  0.10614288  0.86209133  1
  O  O365  1  0.37633269  0.63128319  0.36349558  1
  O  O366  1  0.36463310  0.61915996  0.86958844  1
  O  O367  1  0.91354910  0.10964258  0.36526761  1
  O  O368  1  0.86359206  0.11799881  0.87692832  1
  O  O369  1  0.86541109  0.63034140  0.36303441  1
  O  O370  1  0.86249226  0.61775675  0.87951012  1
  O  O371  1  0.12277607  0.38270078  0.13871757  1
  O  O372  1  0.12984098  0.38322457  0.63687728  1
  O  O373  1  0.12906638  0.88326895  0.13225184  1
  O  O374  1  0.13027631  0.87659674  0.63092143  1
  O  O375  1  0.62866829  0.38697498  0.12706970  1
  O  O376  1  0.63972123  0.38720256  0.62255445  1
  O  O377  1  0.63172305  0.88452264  0.12740183  1
  O  O378  1  0.63879326  0.87370149  0.63057488  1
  O  O379  1  0.11741356  0.25781316  0.25487271  1
  O  O380  1  0.11618157  0.24364850  0.76447639  1
  O  O381  1  0.11680495  0.75342421  0.25776791  1
  O  O382  1  0.11936777  0.75500989  0.76103930  1
  O  O383  1  0.60971782  0.27375319  0.23089997  1
  O  O384  1  0.63718975  0.25017453  0.73699859  1
  O  O385  1  0.61637973  0.75747951  0.25125357  1
  O  O386  1  0.61506249  0.74086356  0.75873858  1
  O  O387  1  0.38020905  0.25184412  0.24322160  1
  O  O388  1  0.36850409  0.22811459  0.75938099  1
  O  O389  1  0.38035795  0.74509082  0.24661833  1
  O  O390  1  0.38048063  0.74440106  0.74468582  1
  O  O391  1  0.88043941  0.24962760  0.24457235  1
  O  O392  1  0.88706843  0.24920617  0.74559233  1
  O  O393  1  0.88417518  0.74307007  0.25307342  1
  O  O394  1  0.88547744  0.75523593  0.74388484  1
  O  O395  1  0.39373109  0.51459736  0.50185559  1
  O  O396  1  0.38053522  0.49399835  0.99379020  1
  O  O397  1  0.36555757  0.99981239  0.47883198  1
  O  O398  1  0.38217688  1.00218295  0.99094644  1
  O  O399  1  0.88739169  0.51582397  0.48686110  1
  O  O400  1  0.88170791  0.49519160  0.99221806  1
  O  O401  1  0.88396059  0.98645171  0.50534890  1
  O  O402  1  0.87786551  0.99071295  0.99505595  1
  O  O403  1  0.11787394  0.00644377  0.00311439  1
  O  O404  1  0.11725806  -0.00015619  0.50713355  1
  O  O405  1  0.11453914  0.49619274  0.00748194  1
  O  O406  1  0.11788439  0.51421173  0.50059386  1
  O  O407  1  0.61733214  0.00318538  0.00491482  1
  O  O408  1  0.63045568  -0.01934501  0.52178005  1
  O  O409  1  0.61583558  0.50740666  0.00936728  1
  O  O410  1  0.62076662  0.51131512  0.50738933  1
  O  O411  1  0.37654067  0.38124627  0.10860081  1
  O  O412  1  0.36144509  0.37224196  0.61639258  1
  O  O413  1  0.36005112  0.87532549  0.12963007  1
  O  O414  1  0.36705360  0.87278641  0.61758106  1
  O  O415  1  0.86503412  0.36717819  0.12634016  1
  O  O416  1  0.87696386  0.36803699  0.62337269  1
  O  O417  1  0.86505715  0.87573965  0.11294130  1
  O  O418  1  0.87102472  0.86396199  0.62125594  1
  O  O419  1  0.11409428  0.13672617  0.38190625  1
  O  O420  1  0.12049931  0.12930833  0.88785602  1
  O  O421  1  0.11697808  0.63263913  0.38779439  1
  O  O422  1  0.13632809  0.63451913  0.87278642  1
  O  O423  1  0.61291956  0.09600205  0.39878196  1
  O  O424  1  0.63180912  0.11530593  0.88759795  1
  O  O425  1  0.63083975  0.63398165  0.37825456  1
  O  O426  1  0.63618389  0.62501242  0.88130061  1
