# generated using pymatgen
data_V85Zn86O256
_symmetry_space_group_name_H-M   'P 1'
_cell_length_a   16.92288939
_cell_length_b   16.91771367
_cell_length_c   16.91783394
_cell_angle_alpha   89.97406281
_cell_angle_beta   90.01875856
_cell_angle_gamma   89.90452229
_symmetry_Int_Tables_number   1
_chemical_formula_structural   V85Zn86O256
_chemical_formula_sum   'V85 Zn86 O256'
_cell_volume   4843.51080631
_cell_formula_units_Z   1
loop_
 _symmetry_equiv_pos_site_id
 _symmetry_equiv_pos_as_xyz
  1  'x, y, z'
loop_
 _atom_site_type_symbol
 _atom_site_label
 _atom_site_symmetry_multiplicity
 _atom_site_fract_x
 _atom_site_fract_y
 _atom_site_fract_z
 _atom_site_occupancy
  V  V0  1  0.12651816  0.49840029  0.63935905  1
  V  V1  1  0.74552851  0.24693925  0.48801706  1
  V  V2  1  0.62509114  0.74844453  0.37324529  1
  V  V3  1  0.75071419  0.00314798  0.74887628  1
  V  V4  1  0.37214424  0.88088055  0.49715097  1
  V  V5  1  0.00479646  0.62404381  0.62735163  1
  V  V6  1  0.74968844  0.75078539  0.49685037  1
  V  V7  1  0.12776933  0.61795160  0.00031081  1
  V  V8  1  0.87464287  0.74994575  0.12441467  1
  V  V9  1  0.24659099  0.49887439  0.24305502  1
  V  V10  1  0.25122170  0.87481991  0.12352029  1
  V  V11  1  0.49437924  0.88290721  0.37307315  1
  V  V12  1  0.12415025  0.13094943  0.50500777  1
  V  V13  1  0.12565162  0.00079914  0.12526281  1
  V  V14  1  0.51051479  0.36994899  0.37946598  1
  V  V15  1  0.25015100  0.75161228  0.49822733  1
  V  V16  1  0.25464283  0.00146233  0.25407293  1
  V  V17  1  0.51032662  0.24923459  0.75128112  1
  V  V18  1  0.26983553  0.49377399  0.75671190  1
  V  V19  1  -0.00383158  -0.00241178  -0.00028851  1
  V  V20  1  0.11876441  0.74824163  0.36982513  1
  V  V21  1  0.12109037  0.87438669  0.75134735  1
  V  V22  1  0.36959081  0.36565677  0.50196523  1
  V  V23  1  0.00336520  0.50026875  0.49891078  1
  V  V24  1  0.62467969  0.87982365  0.24474966  1
  V  V25  1  0.25299864  0.12410284  0.38061711  1
  V  V26  1  0.12569814  0.12677241  -0.00072023  1
  V  V27  1  0.74556392  0.00499035  0.24540232  1
  V  V28  1  0.49272382  0.87302366  0.86960689  1
  V  V29  1  0.49980998  0.74981794  0.24878557  1
  V  V30  1  0.62162772  0.12890134  0.49301605  1
  V  V31  1  0.74753575  0.87622806  0.62427175  1
  V  V32  1  0.74672770  0.87367921  0.11837845  1
  V  V33  1  0.86885944  0.12942880  0.25330684  1
  V  V34  1  0.00201426  0.49642264  0.00688470  1
  V  V35  1  0.87647205  0.23808611  0.62751247  1
  V  V36  1  0.49395411  0.00033518  -0.00613460  1
  V  V37  1  0.75205669  0.63377704  0.89758211  1
  V  V38  1  0.62654205  0.12054208  0.00039750  1
  V  V39  1  0.87212905  0.00358413  0.87324718  1
  V  V40  1  0.25545431  0.00056105  0.75905082  1
  V  V41  1  -0.00191296  0.37653347  0.37534345  1
  V  V42  1  0.87495876  0.87719421  0.49767048  1
  V  V43  1  0.37550608  0.62284038  0.24855757  1
  V  V44  1  0.37403531  0.49669568  0.37570611  1
  V  V45  1  0.00702968  0.62938749  0.12999114  1
  V  V46  1  0.51382879  0.61491016  0.12270912  1
  V  V47  1  0.12453477  0.37692904  0.24283833  1
  V  V48  1  0.12293956  0.87472292  0.24929075  1
  V  V49  1  0.87524551  0.75095127  0.62457716  1
  V  V50  1  -0.00245194  0.12703400  0.12689097  1
  V  V51  1  0.12960162  0.25108553  0.37736188  1
  V  V52  1  0.75118267  0.37316325  0.62951415  1
  V  V53  1  0.50567042  0.12004935  0.12481911  1
  V  V54  1  0.12060750  0.00302382  0.62867601  1
  V  V55  1  -0.00253612  0.87494137  0.36812040  1
  V  V56  1  0.49526316  0.62590652  0.64176377  1
  V  V57  1  0.49724264  0.00463287  0.50699243  1
  V  V58  1  0.87465557  0.37972571  0.50041551  1
  V  V59  1  0.51229586  0.49881355  -0.00992593  1
  V  V60  1  0.75175465  0.38381275  0.12572033  1
  V  V61  1  0.62229803  0.86467737  0.74839439  1
  V  V62  1  0.00097305  0.74978960  0.75184088  1
  V  V63  1  0.25286040  0.25143277  -0.00124112  1
  V  V64  1  -0.00230533  0.00679918  0.50350598  1
  V  V65  1  0.24862782  0.36656089  0.62733869  1
  V  V66  1  0.62434911  0.74913574  0.89201566  1
  V  V67  1  0.87877179  0.62297550  0.25726054  1
  V  V68  1  0.26318560  0.62214689  0.87282665  1
  V  V69  1  -0.00117197  0.37741514  0.86388094  1
  V  V70  1  0.37582052  0.74854195  0.11985296  1
  V  V71  1  -0.00275967  0.23438248  0.74706953  1
  V  V72  1  0.49856995  0.50328753  0.50134613  1
  V  V73  1  0.24911316  0.62311238  0.37544157  1
  V  V74  1  0.62350464  0.38219264  0.23917228  1
  V  V75  1  0.86815538  0.62543838  0.75037254  1
  V  V76  1  0.38007713  0.25445278  0.12422292  1
  V  V77  1  0.74580329  0.13281678  0.86873385  1
  V  V78  1  0.86778283  0.00576137  0.37511998  1
  V  V79  1  0.38134146  0.38122814  -0.01534848  1
  V  V80  1  0.12670597  0.25422414  0.86972014  1
  V  V81  1  0.50921468  0.24649086  0.25312337  1
  V  V82  1  0.62702371  0.49785355  0.62713104  1
  V  V83  1  0.37460231  0.12551432  0.25137304  1
  V  V84  1  0.74308475  0.25573339  -0.00045039  1
  Zn  Zn85  1  0.25945219  0.12131034  0.87722072  1
  Zn  Zn86  1  0.74992857  0.50142829  0.75481372  1
  Zn  Zn87  1  0.38964158  0.12211002  0.75062170  1
  Zn  Zn88  1  0.61992670  0.00552904  0.62795791  1
  Zn  Zn89  1  0.12487202  0.74634176  0.87673097  1
  Zn  Zn90  1  0.87501109  0.50150520  0.87755693  1
  Zn  Zn91  1  -0.00113310  0.25104941  0.25060362  1
  Zn  Zn92  1  0.62247784  0.37636978  0.76809050  1
  Zn  Zn93  1  0.38627768  0.74976632  0.63204814  1
  Zn  Zn94  1  -0.00475385  0.87328708  0.87704198  1
  Zn  Zn95  1  0.87731516  0.37274777  0.00054566  1
  Zn  Zn96  1  0.37025649  0.87894049  -0.00772112  1
  Zn  Zn97  1  0.24804447  0.74811101  -0.00074155  1
  Zn  Zn98  1  0.75027507  0.50203435  0.25709871  1
  Zn  Zn99  1  0.25252127  0.87115681  0.63014405  1
  Zn  Zn100  1  0.75574192  0.61686701  0.37827490  1
  Zn  Zn101  1  0.87225271  0.25145257  0.12446176  1
  Zn  Zn102  1  0.86637230  0.87025925  -0.00255382  1
  Zn  Zn103  1  0.12775340  0.62528882  0.50420161  1
  Zn  Zn104  1  0.24953618  0.37806964  0.12152964  1
  Zn  Zn105  1  0.38113018  0.23578659  0.62550146  1
  Zn  Zn106  1  0.62464618  0.62486983  0.49974866  1
  Zn  Zn107  1  0.18808138  0.19142175  0.18745330  1
  Zn  Zn108  1  0.18587606  0.18543154  0.68951845  1
  Zn  Zn109  1  0.18682939  0.68725113  0.18705207  1
  Zn  Zn110  1  0.21051987  0.69443491  0.69700489  1
  Zn  Zn111  1  0.68600645  0.19229586  0.18471078  1
  Zn  Zn112  1  0.68163185  0.18680948  0.68101593  1
  Zn  Zn113  1  0.69309546  0.68923890  0.18778655  1
  Zn  Zn114  1  0.68261283  0.68770312  0.68477253  1
  Zn  Zn115  1  0.31345829  0.31116080  0.31415356  1
  Zn  Zn116  1  0.31788202  0.30726019  0.80793047  1
  Zn  Zn117  1  0.31199193  0.81168923  0.31143988  1
  Zn  Zn118  1  0.31067565  0.80534424  0.80906583  1
  Zn  Zn119  1  0.81425394  0.31795667  0.31125822  1
  Zn  Zn120  1  0.81445818  0.31359760  0.81284055  1
  Zn  Zn121  1  0.81352220  0.80950772  0.30586353  1
  Zn  Zn122  1  0.81056411  0.81373526  0.81455491  1
  Zn  Zn123  1  0.18601086  0.43806969  0.44039614  1
  Zn  Zn124  1  0.18833864  0.43588417  0.93554855  1
  Zn  Zn125  1  0.18490321  0.94057660  0.43740273  1
  Zn  Zn126  1  0.18249568  0.93319028  0.93743861  1
  Zn  Zn127  1  0.68832472  0.43836364  0.43766496  1
  Zn  Zn128  1  0.69320654  0.44960616  0.94300899  1
  Zn  Zn129  1  0.68271762  0.93977838  0.43385441  1
  Zn  Zn130  1  0.67970450  0.94183216  0.93563672  1
  Zn  Zn131  1  0.31473333  0.06479476  0.06224395  1
  Zn  Zn132  1  0.30889828  0.06012275  0.56796990  1
  Zn  Zn133  1  0.31756904  0.56069859  0.06044250  1
  Zn  Zn134  1  0.31271874  0.55900110  0.56571879  1
  Zn  Zn135  1  0.81083930  0.06267222  0.06332715  1
  Zn  Zn136  1  0.80509245  0.06663325  0.56257759  1
  Zn  Zn137  1  0.81948147  0.55962002  0.06922428  1
  Zn  Zn138  1  0.81350591  0.56274734  0.56140748  1
  Zn  Zn139  1  0.43908789  0.43598354  0.18650252  1
  Zn  Zn140  1  0.44217154  0.42650393  0.68919187  1
  Zn  Zn141  1  0.43589349  0.93977449  0.18450520  1
  Zn  Zn142  1  0.43574743  0.93347458  0.68517025  1
  Zn  Zn143  1  0.93755477  0.44168928  0.18657724  1
  Zn  Zn144  1  0.93535473  0.43751433  0.68772341  1
  Zn  Zn145  1  0.93304976  0.93913391  0.18676176  1
  Zn  Zn146  1  0.93529541  0.94035533  0.68743128  1
  Zn  Zn147  1  0.06123951  0.06288378  0.31376461  1
  Zn  Zn148  1  0.06392581  0.06416447  0.81683721  1
  Zn  Zn149  1  0.06155028  0.56098326  0.31223560  1
  Zn  Zn150  1  0.06341229  0.56348271  0.81690505  1
  Zn  Zn151  1  0.56517120  0.06394770  0.31869939  1
  Zn  Zn152  1  0.56407278  0.06171198  0.81231138  1
  Zn  Zn153  1  0.56286622  0.56134803  0.31417168  1
  Zn  Zn154  1  0.57066459  0.56496206  0.81447962  1
  Zn  Zn155  1  0.43636047  0.18637714  0.43780946  1
  Zn  Zn156  1  0.43568687  0.18430285  0.92909377  1
  Zn  Zn157  1  0.43547766  0.68944628  0.43850932  1
  Zn  Zn158  1  0.44339832  0.68508443  0.93890822  1
  Zn  Zn159  1  0.93676090  0.19091619  0.43795897  1
  Zn  Zn160  1  0.93184861  0.18804176  0.93607269  1
  Zn  Zn161  1  0.94182093  0.68923353  0.43896081  1
  Zn  Zn162  1  0.93864452  0.68708382  0.94166360  1
  Zn  Zn163  1  0.06210405  0.31193796  0.06032783  1
  Zn  Zn164  1  0.06428493  0.31329972  0.56843626  1
  Zn  Zn165  1  0.06252844  0.80792623  0.06194107  1
  Zn  Zn166  1  0.06436285  0.81435145  0.56092734  1
  Zn  Zn167  1  0.56602342  0.31561316  -0.06871867  1
  Zn  Zn168  1  0.56293465  0.31085439  0.56854029  1
  Zn  Zn169  1  0.55844702  0.81538106  0.06319305  1
  Zn  Zn170  1  0.56079461  0.81245440  0.56198851  1
  O  O171  1  0.11762326  0.12089684  0.12083874  1
  O  O172  1  0.12645138  0.11766446  0.61546027  1
  O  O173  1  0.11798942  0.62699581  0.11863273  1
  O  O174  1  0.11963672  0.61708281  0.62684173  1
  O  O175  1  0.61629751  0.12977010  0.11604123  1
  O  O176  1  0.63803709  0.11730961  0.60230723  1
  O  O177  1  0.61154536  0.62990094  0.13103131  1
  O  O178  1  0.61564620  0.61524116  0.62196216  1
  O  O179  1  0.38120381  0.37887684  0.38244911  1
  O  O180  1  0.37195433  0.37528926  0.88709346  1
  O  O181  1  0.38439461  0.86871219  0.38108427  1
  O  O182  1  0.38830106  0.86103311  0.87281948  1
  O  O183  1  0.89050797  0.37042877  0.38281568  1
  O  O184  1  0.88435930  0.37871767  0.87862461  1
  O  O185  1  0.88064026  0.88062903  0.37736272  1
  O  O186  1  0.87418408  0.88614946  0.87952056  1
  O  O187  1  0.24163795  0.00997523  0.36373305  1
  O  O188  1  0.24181573  -0.00222564  0.86247652  1
  O  O189  1  0.25448962  0.50447457  0.36837612  1
  O  O190  1  0.25057631  0.50319755  0.86445049  1
  O  O191  1  0.76197702  -0.00698320  0.36533548  1
  O  O192  1  0.75399792  0.00570924  0.86825585  1
  O  O193  1  0.74929023  0.50349675  0.37290523  1
  O  O194  1  0.75324919  0.52279508  0.87484977  1
  O  O195  1  0.25639089  0.49839267  0.13942077  1
  O  O196  1  0.24481993  0.49747535  0.63996419  1
  O  O197  1  0.24480460  0.99565506  0.13098483  1
  O  O198  1  0.23287618  0.99285163  0.63392202  1
  O  O199  1  0.75257433  0.48830593  0.13094929  1
  O  O200  1  0.74346133  0.49385724  0.62381259  1
  O  O201  1  0.75514493  0.99264922  0.13952663  1
  O  O202  1  0.75110581  0.99202549  0.63161306  1
  O  O203  1  0.00658983  0.37763184  0.25863449  1
  O  O204  1  -0.00225206  0.37073015  0.76126683  1
  O  O205  1  0.00452562  0.88450446  0.26075668  1
  O  O206  1  0.00226463  0.86630926  0.75039213  1
  O  O207  1  0.50903663  0.36854544  0.25511919  1
  O  O208  1  0.50725552  0.36336687  0.75350129  1
  O  O209  1  0.50494177  0.87306671  0.25436365  1
  O  O210  1  0.50910006  0.87903424  0.75690282  1
  O  O211  1  0.49730967  0.12832050  0.24723728  1
  O  O212  1  0.50902573  0.13832287  0.75091512  1
  O  O213  1  0.49500880  0.62801395  0.24202238  1
  O  O214  1  0.50129927  0.62304787  0.74033339  1
  O  O215  1  0.99166717  0.12428474  0.24247838  1
  O  O216  1  0.99737754  0.13566993  0.75315802  1
  O  O217  1  0.99293968  0.62122768  0.24239140  1
  O  O218  1  0.99051963  0.63145907  0.74773011  1
  O  O219  1  0.37538453  0.26075635  0.00575482  1
  O  O220  1  0.37859583  0.26205728  0.50398981  1
  O  O221  1  0.37527089  0.75069882  0.01162375  1
  O  O222  1  0.36504911  0.75824792  0.50168128  1
  O  O223  1  0.86032579  0.24889238  0.00336022  1
  O  O224  1  0.86970762  0.26001719  0.50606352  1
  O  O225  1  0.88235809  0.75423996  0.01610979  1
  O  O226  1  0.86945513  0.75657647  0.50402066  1
  O  O227  1  0.11856854  0.23860161  0.49509820  1
  O  O228  1  0.13170801  0.24526255  0.99445191  1
  O  O229  1  0.12612323  0.75044736  0.48338583  1
  O  O230  1  0.12671791  0.73541730  0.99843991  1
  O  O231  1  0.63734311  0.24677267  0.50267504  1
  O  O232  1  0.63739673  0.23871245  0.99575428  1
  O  O233  1  0.63256180  0.75116286  0.49091227  1
  O  O234  1  0.62678648  0.75451684  0.99069014  1
  O  O235  1  0.49160324  0.23630951  0.13731817  1
  O  O236  1  0.49764053  0.25390999  0.63895121  1
  O  O237  1  0.49356675  0.74199575  0.12956242  1
  O  O238  1  0.50266091  0.73127969  0.62020389  1
  O  O239  1  0.99910889  0.23692622  0.12560810  1
  O  O240  1  0.99424593  0.25460822  0.63957734  1
  O  O241  1  0.99567457  0.73723250  0.12520052  1
  O  O242  1  0.99692151  0.74557471  0.63307984  1
  O  O243  1  0.01107052  0.25793812  0.37433777  1
  O  O244  1  0.00184773  0.25424923  0.86558453  1
  O  O245  1  0.00642330  0.76260465  0.37695143  1
  O  O246  1  -0.00092551  0.74983164  0.86264716  1
  O  O247  1  0.49165084  0.25869129  0.36480353  1
  O  O248  1  0.50234667  0.25036836  0.86337126  1
  O  O249  1  0.50597000  0.75796565  0.36907332  1
  O  O250  1  0.51570257  0.75390522  0.87933494  1
  O  O251  1  0.23714288  0.11435546  0.48992938  1
  O  O252  1  0.24407895  0.13211154  0.99891195  1
  O  O253  1  0.25053760  0.63140623  0.49333057  1
  O  O254  1  0.24544389  0.61874505  0.99029064  1
  O  O255  1  0.74935002  0.14189266  0.49569725  1
  O  O256  1  0.74240104  0.12926384  0.99658198  1
  O  O257  1  0.74999780  0.63882095  0.49898791  1
  O  O258  1  0.75666357  0.62753122  0.99559720  1
  O  O259  1  0.26198825  0.37118129  0.00235902  1
  O  O260  1  0.25949715  0.38186255  0.51055296  1
  O  O261  1  0.25091786  0.87246604  0.00817512  1
  O  O262  1  0.25748652  0.87084309  0.49364607  1
  O  O263  1  0.75361631  0.37100927  0.00940378  1
  O  O264  1  0.75701260  0.36833569  0.50866747  1
  O  O265  1  0.74519904  0.88683122  0.01531223  1
  O  O266  1  0.75326192  0.86754191  0.50144015  1
  O  O267  1  0.13469691  0.48945069  0.25750145  1
  O  O268  1  0.12222912  0.49797399  0.74105345  1
  O  O269  1  0.13275610  0.99651879  0.24373778  1
  O  O270  1  0.12141972  0.99301174  0.74473201  1
  O  O271  1  0.62344380  0.48564936  0.25229052  1
  O  O272  1  0.63071887  0.49824880  0.74155431  1
  O  O273  1  0.63350427  0.99219254  0.25659610  1
  O  O274  1  0.63635725  0.98868057  0.74919580  1
  O  O275  1  0.36205049  0.00734132  0.24522705  1
  O  O276  1  0.35653031  -0.00742039  0.74601825  1
  O  O277  1  0.36919499  0.50189327  0.25718734  1
  O  O278  1  0.36758765  0.49861724  0.74766130  1
  O  O279  1  0.86763677  0.00848770  0.25719282  1
  O  O280  1  0.86122320  -0.00485481  0.75758097  1
  O  O281  1  0.87518842  0.51835998  0.24650595  1
  O  O282  1  0.87369227  0.51164389  0.75388941  1
  O  O283  1  0.11797165  0.36814480  0.37199468  1
  O  O284  1  0.11557418  0.36102197  0.88159207  1
  O  O285  1  0.11622557  0.87152289  0.36946654  1
  O  O286  1  0.11692941  0.87048174  0.86428599  1
  O  O287  1  0.61280075  0.37457090  0.36991527  1
  O  O288  1  0.64536861  0.37313113  0.87855418  1
  O  O289  1  0.61786192  0.86613752  0.36521466  1
  O  O290  1  0.62033011  0.86371857  0.86984783  1
  O  O291  1  0.38053980  0.13473210  0.13122045  1
  O  O292  1  0.36456600  0.12357048  0.63748141  1
  O  O293  1  0.38021856  0.63223169  0.13127806  1
  O  O294  1  0.39358085  0.62158451  0.61946786  1
  O  O295  1  0.88183034  0.12498836  0.13453653  1
  O  O296  1  0.87490804  0.13867832  0.61811776  1
  O  O297  1  0.88409113  0.63227954  0.13274832  1
  O  O298  1  0.88265421  0.63117860  0.63136032  1
  O  O299  1  0.26027951  0.25111469  0.11759607  1
  O  O300  1  0.24933076  0.26403034  0.63431692  1
  O  O301  1  0.25879768  0.75564053  0.12491674  1
  O  O302  1  0.22373934  0.75729899  0.59885916  1
  O  O303  1  0.74886438  0.26246990  0.11693663  1
  O  O304  1  0.75865961  0.25755598  0.61854477  1
  O  O305  1  0.75892098  0.76197870  0.12825465  1
  O  O306  1  0.75337992  0.75606306  0.61580515  1
  O  O307  1  0.23728323  0.24262048  0.37287444  1
  O  O308  1  0.24134615  0.25027414  0.87896449  1
  O  O309  1  0.24287509  0.74479814  0.38080116  1
  O  O310  1  0.24660013  0.73354987  0.87871285  1
  O  O311  1  0.75399802  0.25961622  0.39051246  1
  O  O312  1  0.75915819  0.23782840  0.88037063  1
  O  O313  1  0.74254680  0.75103315  0.38069636  1
  O  O314  1  0.74271641  0.74219560  0.87702551  1
  O  O315  1  0.00227535  0.11617720  0.00653890  1
  O  O316  1  0.00707796  0.11335960  0.49218455  1
  O  O317  1  0.00863556  0.61703641  0.00594273  1
  O  O318  1  0.00048561  0.61654102  0.50788691  1
  O  O319  1  0.50623841  0.12155641  0.00578259  1
  O  O320  1  0.50577430  0.11570585  0.49339095  1
  O  O321  1  0.49449044  0.61280605  0.01496190  1
  O  O322  1  0.50085094  0.61114209  0.49646446  1
  O  O323  1  0.49505898  0.38272147  0.49503916  1
  O  O324  1  0.49221395  0.38554570  0.99656805  1
  O  O325  1  0.49228471  0.87945427  0.49190846  1
  O  O326  1  0.49834457  0.88377602  0.99197589  1
  O  O327  1  0.99500285  0.37998791  0.49628300  1
  O  O328  1  0.99988796  0.38207057  0.99437305  1
  O  O329  1  0.99544950  0.88650284  0.49040050  1
  O  O330  1  1.00122935  0.88872808  1.00170798  1
  O  O331  1  0.49475331  0.49111840  0.38197009  1
  O  O332  1  0.50490891  0.51181216  0.89096224  1
  O  O333  1  0.50121331  0.98713944  0.38175761  1
  O  O334  1  0.50677040  0.98660530  0.88224916  1
  O  O335  1  1.00715190  0.49236777  0.39048313  1
  O  O336  1  1.00063252  0.49211872  0.88413397  1
  O  O337  1  0.98941016  0.99455317  0.38058769  1
  O  O338  1  0.99068780  1.00065735  0.88289778  1
  O  O339  1  0.00292161  0.00949242  0.12003782  1
  O  O340  1  0.00714667  -0.00311727  0.61579399  1
  O  O341  1  -0.00081452  0.51041140  0.11442883  1
  O  O342  1  0.00696945  0.50196176  0.61846083  1
  O  O343  1  0.49650085  0.01353721  0.11978570  1
  O  O344  1  0.50087993  -0.00627963  0.61070101  1
  O  O345  1  0.49835089  0.51194961  0.12403928  1
  O  O346  1  0.50656909  0.50583917  0.61994909  1
  O  O347  1  0.24245840  0.38146827  0.25104908  1
  O  O348  1  0.25406114  0.38697633  0.74510176  1
  O  O349  1  0.24578315  0.88354267  0.24477430  1
  O  O350  1  0.23643403  0.88541192  0.75123602  1
  O  O351  1  0.73791208  0.37371178  0.24616072  1
  O  O352  1  0.75395544  0.37803214  0.73733460  1
  O  O353  1  0.74186565  0.88242880  0.24357632  1
  O  O354  1  0.74373389  0.88018105  0.74384685  1
  O  O355  1  0.25201329  0.11920965  0.25627800  1
  O  O356  1  0.23720730  0.10575531  0.75477600  1
  O  O357  1  0.25451987  0.61754805  0.25527546  1
  O  O358  1  0.24176066  0.60582174  0.76664481  1
  O  O359  1  0.75768115  0.11947976  0.24447962  1
  O  O360  1  0.74252231  0.11653003  0.75696116  1
  O  O361  1  0.76448430  0.62527606  0.25175877  1
  O  O362  1  0.76238613  0.62931620  0.74674148  1
  O  O363  1  0.35983177  0.13110206  0.36918016  1
  O  O364  1  0.37162075  0.12079678  0.86488866  1
  O  O365  1  0.37026594  0.61941102  0.36812089  1
  O  O366  1  0.36222146  0.62646912  0.87969857  1
  O  O367  1  0.87973351  0.11755228  0.36596565  1
  O  O368  1  0.86339498  0.11092298  0.88021450  1
  O  O369  1  0.87865363  0.63498042  0.36059769  1
  O  O370  1  0.86376744  0.63142254  0.86957823  1
  O  O371  1  0.12663628  0.36848274  0.13920464  1
  O  O372  1  0.13696497  0.38585791  0.61898550  1
  O  O373  1  0.13029345  0.87903687  0.13033147  1
  O  O374  1  0.12080997  0.88276690  0.63633214  1
  O  O375  1  0.63034992  0.37374392  0.14012915  1
  O  O376  1  0.63493291  0.38641829  0.62252428  1
  O  O377  1  0.62909682  0.87019897  0.13766108  1
  O  O378  1  0.62987060  0.87589674  0.63144256  1
  O  O379  1  0.12222861  0.25780827  0.25934589  1
  O  O380  1  0.11076833  0.24630355  0.75763862  1
  O  O381  1  0.13146069  0.75849839  0.26172256  1
  O  O382  1  0.11760538  0.75641763  0.74970495  1
  O  O383  1  0.61402098  0.25785055  0.25037231  1
  O  O384  1  0.61781445  0.25653690  0.74347358  1
  O  O385  1  0.61991864  0.75758606  0.25593241  1
  O  O386  1  0.63139278  0.76153228  0.75744229  1
  O  O387  1  0.38162122  0.24533365  0.24351576  1
  O  O388  1  0.39022840  0.24945931  0.74572897  1
  O  O389  1  0.38060460  0.74478999  0.24141935  1
  O  O390  1  0.31793350  0.74032700  0.72006216  1
  O  O391  1  0.87728083  0.24185261  0.24928818  1
  O  O392  1  0.88758026  0.25247111  0.74216536  1
  O  O393  1  0.87550958  0.73987679  0.23762261  1
  O  O394  1  0.88161963  0.74710030  0.74376865  1
  O  O395  1  0.38135646  0.49178119  0.49493137  1
  O  O396  1  0.38485117  0.48473412  1.00703664  1
  O  O397  1  0.37913343  0.98866626  0.50049058  1
  O  O398  1  0.38846040  0.99857026  1.00351319  1
  O  O399  1  0.88452771  0.48702991  0.50748001  1
  O  O400  1  0.88780796  0.49924176  0.99769709  1
  O  O401  1  0.87798873  0.99884851  0.49361991  1
  O  O402  1  0.88127864  0.99751664  0.99483251  1
  O  O403  1  0.11725919  0.00615506  0.00540495  1
  O  O404  1  0.11561506  0.00612364  0.50719738  1
  O  O405  1  0.11920570  0.50843530  -0.00187613  1
  O  O406  1  0.11810829  0.50334468  0.51051686  1
  O  O407  1  0.61304113  0.01209002  0.00074121  1
  O  O408  1  0.61410919  0.00430624  0.49917506  1
  O  O409  1  0.61067959  0.49882846  0.00728165  1
  O  O410  1  0.61561436  0.50092818  0.50761741  1
  O  O411  1  0.37644224  0.36287957  0.12256451  1
  O  O412  1  0.36530028  0.37800601  0.61604195  1
  O  O413  1  0.36837697  0.86608542  0.12461023  1
  O  O414  1  0.37132551  0.86897986  0.61313489  1
  O  O415  1  0.86759087  0.37167933  0.12648431  1
  O  O416  1  0.86968851  0.36851501  0.61791637  1
  O  O417  1  0.86587027  0.86868049  0.12606251  1
  O  O418  1  0.86937237  0.87013032  0.61655354  1
  O  O419  1  0.13013612  0.13246066  0.38034595  1
  O  O420  1  0.12458881  0.13674542  0.88446997  1
  O  O421  1  0.12906368  0.63322063  0.37588127  1
  O  O422  1  0.13281243  0.62437211  0.88512773  1
  O  O423  1  0.63091780  0.12103858  0.39076426  1
  O  O424  1  0.63786810  0.11823317  0.88486840  1
  O  O425  1  0.62449371  0.63916885  0.37498649  1
  O  O426  1  0.63937729  0.64035600  0.87342183  1
