# generated using pymatgen
data_V85Zn86O256
_symmetry_space_group_name_H-M   'P 1'
_cell_length_a   16.94962500
_cell_length_b   16.95218121
_cell_length_c   16.95398181
_cell_angle_alpha   90.00509851
_cell_angle_beta   89.92608068
_cell_angle_gamma   90.10481540
_symmetry_Int_Tables_number   1
_chemical_formula_structural   V85Zn86O256
_chemical_formula_sum   'V85 Zn86 O256'
_cell_volume   4871.42817380
_cell_formula_units_Z   1
loop_
 _symmetry_equiv_pos_site_id
 _symmetry_equiv_pos_as_xyz
  1  'x, y, z'
loop_
 _atom_site_type_symbol
 _atom_site_label
 _atom_site_symmetry_multiplicity
 _atom_site_fract_x
 _atom_site_fract_y
 _atom_site_fract_z
 _atom_site_occupancy
  V  V0  1  -0.01170456  0.62512571  0.62475609  1
  V  V1  1  0.62521308  -0.00089903  0.62384869  1
  V  V2  1  0.49721706  0.75673945  0.23933272  1
  V  V3  1  0.26023023  0.87761504  0.11994383  1
  V  V4  1  0.37284237  0.87572857  0.48906376  1
  V  V5  1  0.75735811  0.62598100  0.35418354  1
  V  V6  1  0.49421614  0.87380029  0.87573911  1
  V  V7  1  -0.00472354  0.62052838  0.12403325  1
  V  V8  1  0.74096627  0.49200310  0.75611894  1
  V  V9  1  0.25052061  0.12734045  0.87627052  1
  V  V10  1  0.50361274  0.39097184  0.38540426  1
  V  V11  1  0.44905479  0.57991947  0.17869403  1
  V  V12  1  0.24710429  0.49921125  0.74746704  1
  V  V13  1  0.25103260  -0.01077042  0.25593609  1
  V  V14  1  0.24994115  -0.00166748  0.75117747  1
  V  V15  1  0.87110022  0.74689929  0.12721510  1
  V  V16  1  0.12046774  0.62279866  0.49617180  1
  V  V17  1  0.00010540  -0.00019402  0.00154875  1
  V  V18  1  0.13179985  0.25511896  0.38183713  1
  V  V19  1  0.37475789  0.12071545  0.24835567  1
  V  V20  1  0.13040205  0.74972968  0.36854030  1
  V  V21  1  0.88660642  0.49685124  0.88018392  1
  V  V22  1  0.25136879  0.87059989  0.62619219  1
  V  V23  1  0.25130943  0.74031586  0.49970421  1
  V  V24  1  0.74870754  0.87342466  0.62426630  1
  V  V25  1  0.25799181  0.75374956  -0.00250536  1
  V  V26  1  0.12787231  0.50050511  0.14678153  1
  V  V27  1  0.37823050  0.00045518  0.87744238  1
  V  V28  1  -0.00107630  0.74868674  0.24930585  1
  V  V29  1  0.01251538  0.25846292  0.24740343  1
  V  V30  1  0.63152028  0.50671166  0.12962518  1
  V  V31  1  0.12370705  0.74829353  0.87702107  1
  V  V32  1  0.87626608  0.25483329  0.62019187  1
  V  V33  1  0.36750209  0.38820337  0.49655304  1
  V  V34  1  0.49624270  -0.00312582  0.49274883  1
  V  V35  1  0.75092472  0.00325279  0.24826253  1
  V  V36  1  0.62693128  0.12867078  0.49407309  1
  V  V37  1  0.00428053  0.87422581  0.37037407  1
  V  V38  1  0.61978606  0.87120414  0.75072020  1
  V  V39  1  0.38562799  0.75054452  0.63223493  1
  V  V40  1  0.38334599  0.25495000  0.11945489  1
  V  V41  1  0.61827504  0.63016462  0.00389580  1
  V  V42  1  0.62473372  0.37648312  0.25287835  1
  V  V43  1  0.74959872  0.87507264  0.12077079  1
  V  V44  1  0.12359827  0.49869272  0.62265682  1
  V  V45  1  0.86600243  0.49394841  0.36734728  1
  V  V46  1  0.50152668  0.24314523  0.26267329  1
  V  V47  1  0.62568947  0.74954996  0.37398989  1
  V  V48  1  0.00358773  0.12767330  0.12718354  1
  V  V49  1  0.12044264  0.61348883  -0.00121781  1
  V  V50  1  -0.00170915  0.87361542  0.87494771  1
  V  V51  1  0.75217643  0.25744455  0.49550870  1
  V  V52  1  0.12220540  0.25783278  0.87383602  1
  V  V53  1  0.25136063  0.12214023  0.37868575  1
  V  V54  1  0.37400989  0.12951583  0.74890608  1
  V  V55  1  0.87744377  0.12514605  0.74986843  1
  V  V56  1  0.50437227  0.61939675  0.61161672  1
  V  V57  1  0.62525385  0.75030948  0.87677779  1
  V  V58  1  0.74811085  0.62504918  0.88006198  1
  V  V59  1  0.38548331  0.62395905  0.75163740  1
  V  V60  1  0.74703493  0.74185395  0.49973925  1
  V  V61  1  0.12713745  0.12713761  0.00040007  1
  V  V62  1  0.89302812  0.37988587  0.00309225  1
  V  V63  1  0.87518417  0.87403503  0.50033490  1
  V  V64  1  0.49569790  0.00337374  0.00088632  1
  V  V65  1  0.87707914  0.00016718  0.37361102  1
  V  V66  1  0.87798776  0.12808854  0.24983097  1
  V  V67  1  -0.00347982  0.37486273  0.38148306  1
  V  V68  1  0.62314526  0.13086155  0.00410697  1
  V  V69  1  0.75048358  0.12923064  0.37482829  1
  V  V70  1  0.36733478  0.24848572  0.61182817  1
  V  V71  1  0.74115112  0.37238467  0.63298891  1
  V  V72  1  0.37256792  0.48762429  0.87762704  1
  V  V73  1  0.75241570  0.12727220  0.88012712  1
  V  V74  1  0.75294218  0.37978674  0.12869776  1
  V  V75  1  0.87867232  0.25300293  0.12525871  1
  V  V76  1  0.62040889  0.00586239  0.12547101  1
  V  V77  1  0.49492823  0.49293827  0.00111454  1
  V  V78  1  0.12414818  0.87224061  0.75104989  1
  V  V79  1  0.12333037  -0.00100476  0.62245050  1
  V  V80  1  -0.00210157  0.25972548  0.75219869  1
  V  V81  1  0.49819270  0.12519164  0.62093565  1
  V  V82  1  0.87134886  0.86920846  -0.00119307  1
  V  V83  1  0.87518388  -0.00055897  0.87568981  1
  V  V84  1  0.12691584  -0.00708632  0.12984131  1
  Zn  Zn85  1  0.00185017  0.00054199  0.49913508  1
  Zn  Zn86  1  0.62813619  0.25800116  0.85973296  1
  Zn  Zn87  1  -0.00499608  0.74784594  0.74990014  1
  Zn  Zn88  1  0.87293573  0.74936485  0.62886813  1
  Zn  Zn89  1  0.26165936  0.25750368  -0.00108699  1
  Zn  Zn90  1  0.12069804  0.37783464  0.75028529  1
  Zn  Zn91  1  0.87196033  0.62484356  0.75341348  1
  Zn  Zn92  1  0.62620071  0.87786222  0.25006113  1
  Zn  Zn93  1  0.75011181  0.25625098  0.00049354  1
  Zn  Zn94  1  0.37850883  0.75110559  0.12001827  1
  Zn  Zn95  1  0.49868770  0.87640108  0.37062514  1
  Zn  Zn96  1  0.25083878  0.62386158  0.87403488  1
  Zn  Zn97  1  0.25018245  0.37576943  0.13329956  1
  Zn  Zn98  1  -0.01473609  0.49625225  0.50319501  1
  Zn  Zn99  1  0.50499837  0.26492138  0.74451904  1
  Zn  Zn100  1  0.51311427  0.37672805  0.86643543  1
  Zn  Zn101  1  0.25912279  0.51468958  0.26887489  1
  Zn  Zn102  1  0.75011406  -0.00017826  0.74996014  1
  Zn  Zn103  1  0.61426439  0.49347417  0.61937924  1
  Zn  Zn104  1  0.24201602  0.36933816  0.61937949  1
  Zn  Zn105  1  0.12623714  0.12814409  0.50262914  1
  Zn  Zn106  1  0.00019123  0.12420443  0.62168989  1
  Zn  Zn107  1  0.19417821  0.18630933  0.18937137  1
  Zn  Zn108  1  0.18697121  0.18729286  0.68780023  1
  Zn  Zn109  1  0.18574541  0.68847165  0.18361661  1
  Zn  Zn110  1  0.18748603  0.68174040  0.68557759  1
  Zn  Zn111  1  0.68713999  0.19270834  0.18745366  1
  Zn  Zn112  1  0.69117987  0.18478652  0.68483773  1
  Zn  Zn113  1  0.68430648  0.69439247  0.18458642  1
  Zn  Zn114  1  0.68663067  0.68629513  0.69288529  1
  Zn  Zn115  1  0.30972604  0.31711504  0.31687677  1
  Zn  Zn116  1  0.31260939  0.31252434  0.80629368  1
  Zn  Zn117  1  0.31257888  0.69464726  0.31013466  1
  Zn  Zn118  1  0.31299323  0.81062385  0.81288678  1
  Zn  Zn119  1  0.81279210  0.31275129  0.30963734  1
  Zn  Zn120  1  0.81481478  0.31455048  0.81707877  1
  Zn  Zn121  1  0.81322518  0.81396487  0.30878972  1
  Zn  Zn122  1  0.80663263  0.80905520  0.81083611  1
  Zn  Zn123  1  0.18271830  0.43531342  0.43679927  1
  Zn  Zn124  1  0.19217124  0.43554940  0.94018941  1
  Zn  Zn125  1  0.18913702  0.93255472  0.43729180  1
  Zn  Zn126  1  0.18823427  0.93793819  0.93885632  1
  Zn  Zn127  1  0.68335434  0.44073136  0.43685021  1
  Zn  Zn128  1  0.68856288  0.43744659  0.94520523  1
  Zn  Zn129  1  0.68836008  0.93618401  0.43633197  1
  Zn  Zn130  1  0.68527080  0.94151495  0.93812446  1
  Zn  Zn131  1  0.31500343  0.06860265  0.06520368  1
  Zn  Zn132  1  0.30992955  0.05874926  0.56092098  1
  Zn  Zn133  1  0.30536436  0.56366172  0.05834622  1
  Zn  Zn134  1  0.31782434  0.56347707  0.44335088  1
  Zn  Zn135  1  0.81358715  0.06298421  0.06274375  1
  Zn  Zn136  1  0.81326208  0.06288938  0.56202453  1
  Zn  Zn137  1  0.80909387  0.56327802  0.06018464  1
  Zn  Zn138  1  0.78162900  0.53921377  0.54255536  1
  Zn  Zn139  1  0.40468943  0.40861077  0.21823373  1
  Zn  Zn140  1  0.43480242  0.43836010  0.68388278  1
  Zn  Zn141  1  0.43623693  0.93871026  0.18743122  1
  Zn  Zn142  1  0.43820883  0.93923857  0.68746664  1
  Zn  Zn143  1  0.94013502  0.44013710  0.19361466  1
  Zn  Zn144  1  0.92885748  0.44070991  0.68838705  1
  Zn  Zn145  1  0.93900887  0.93584992  0.18836461  1
  Zn  Zn146  1  0.93797875  0.93600282  0.68808129  1
  Zn  Zn147  1  0.06675126  0.06495159  0.31264885  1
  Zn  Zn148  1  0.06177231  0.06445909  0.81111595  1
  Zn  Zn149  1  0.05156354  0.56693587  0.31612202  1
  Zn  Zn150  1  0.06132515  0.56489446  0.80951523  1
  Zn  Zn151  1  0.56304105  0.06274931  0.31297606  1
  Zn  Zn152  1  0.57291047  0.08981482  0.80031032  1
  Zn  Zn153  1  0.57024246  0.56522224  0.31885409  1
  Zn  Zn154  1  0.56263607  0.55599522  0.81282273  1
  Zn  Zn155  1  0.43586177  0.18440806  0.43335738  1
  Zn  Zn156  1  0.44527300  0.19055355  0.93410072  1
  Zn  Zn157  1  0.44666807  0.69908979  0.44270024  1
  Zn  Zn158  1  0.43961829  0.68363848  0.93347759  1
  Zn  Zn159  1  0.94180947  0.18615311  0.43883774  1
  Zn  Zn160  1  0.94002569  0.19184028  0.94021296  1
  Zn  Zn161  1  0.93249661  0.68499222  0.43758941  1
  Zn  Zn162  1  0.93645789  0.68574345  0.94013492  1
  Zn  Zn163  1  0.09292504  0.33230965  0.05005204  1
  Zn  Zn164  1  0.05883765  0.31247707  0.56104817  1
  Zn  Zn165  1  0.06362616  0.81040571  0.06113470  1
  Zn  Zn166  1  0.06125292  0.81012900  0.56120963  1
  Zn  Zn167  1  0.55992605  0.31390332  0.06845898  1
  Zn  Zn168  1  0.56136900  0.30858313  0.56134418  1
  Zn  Zn169  1  0.56501590  0.81895043  0.05723673  1
  Zn  Zn170  1  0.56333311  0.81029916  0.55997398  1
  O  O171  1  0.12335059  0.11913093  0.11705275  1
  O  O172  1  0.12648158  0.11369432  0.62374311  1
  O  O173  1  0.11515356  0.61951833  0.11752209  1
  O  O174  1  0.11394778  0.61943147  0.61543993  1
  O  O175  1  0.63304937  0.11332845  0.12018908  1
  O  O176  1  0.62241363  0.11474332  0.61160742  1
  O  O177  1  0.63271780  0.61890129  0.11637224  1
  O  O178  1  0.60383768  0.63095155  0.63739844  1
  O  O179  1  0.38859886  0.36952442  0.39004067  1
  O  O180  1  0.37112566  0.38581211  0.87491147  1
  O  O181  1  0.37696053  0.86926791  0.39074171  1
  O  O182  1  0.38795006  0.87993168  0.86782021  1
  O  O183  1  0.87776656  0.38587788  0.37045240  1
  O  O184  1  0.87278833  0.38738903  0.88807706  1
  O  O185  1  0.88274703  0.87992041  0.38009538  1
  O  O186  1  0.87556769  0.87799335  0.88196103  1
  O  O187  1  0.24084106  0.00491579  0.36411378  1
  O  O188  1  0.25684429  0.00618605  0.87183958  1
  O  O189  1  0.24727373  0.50413793  0.38112521  1
  O  O190  1  0.25429560  0.50067804  0.86847345  1
  O  O191  1  0.75682809  0.00671912  0.36812276  1
  O  O192  1  0.75754934  0.01044246  0.87527163  1
  O  O193  1  0.75578447  0.51385810  0.36852610  1
  O  O194  1  0.75420014  0.50565770  0.87135319  1
  O  O195  1  0.23231504  0.50327132  0.12493460  1
  O  O196  1  0.23023849  0.49896120  0.63209147  1
  O  O197  1  0.24436391  0.99566245  0.12632464  1
  O  O198  1  0.24369236  0.99082602  0.63142234  1
  O  O199  1  0.74189646  0.49448720  0.12618338  1
  O  O200  1  0.77009490  0.48170622  0.64441716  1
  O  O201  1  0.74570336  0.99584508  0.13053356  1
  O  O202  1  0.74149769  0.99234823  0.62349826  1
  O  O203  1  -0.00496290  0.36376361  0.26291402  1
  O  O204  1  -0.00323498  0.36249198  0.74778359  1
  O  O205  1  -0.00342570  0.86433291  0.25860945  1
  O  O206  1  0.00629326  0.87201575  0.75785382  1
  O  O207  1  0.50097187  0.36534736  0.26783061  1
  O  O208  1  0.49739268  0.37786260  0.75110799  1
  O  O209  1  0.50342392  0.86890374  0.25112692  1
  O  O210  1  0.51268311  0.88464617  0.75893869  1
  O  O211  1  0.49367706  0.13511364  0.25745819  1
  O  O212  1  0.47943813  0.11108671  0.73659719  1
  O  O213  1  0.50940935  0.63650058  0.24286564  1
  O  O214  1  0.48753913  0.62038931  0.75246992  1
  O  O215  1  0.99669350  0.13232871  0.24488880  1
  O  O216  1  0.98826523  0.13031726  0.74833683  1
  O  O217  1  1.00035679  0.64074237  0.24107362  1
  O  O218  1  0.99548090  0.62686863  0.73952430  1
  O  O219  1  0.37759660  0.23650514  0.01617872  1
  O  O220  1  0.37684659  0.24915089  0.51003631  1
  O  O221  1  0.36155388  0.74512355  -0.00331515  1
  O  O222  1  0.36732485  0.75870326  0.51382040  1
  O  O223  1  0.87629531  0.26007874  0.00856333  1
  O  O224  1  0.86583640  0.23953958  0.51050660  1
  O  O225  1  0.87891249  0.76353729  0.00851538  1
  O  O226  1  0.86813338  0.76255347  0.50031406  1
  O  O227  1  0.12267728  0.24818067  0.48552130  1
  O  O228  1  0.11394402  0.23462256  0.99021915  1
  O  O229  1  0.13142831  0.74415719  0.49420251  1
  O  O230  1  0.13041103  0.74612040  0.98893082  1
  O  O231  1  0.63569219  0.23733591  0.50505384  1
  O  O232  1  0.62654216  0.23643192  1.01161334  1
  O  O233  1  0.63557677  0.75675444  0.48837626  1
  O  O234  1  0.62221405  0.74197230  0.99275774  1
  O  O235  1  0.48910677  0.25142990  0.13876865  1
  O  O236  1  0.48820886  0.24044537  0.62432275  1
  O  O237  1  0.50247565  0.75920682  0.13438607  1
  O  O238  1  0.48948137  0.74929955  0.62510591  1
  O  O239  1  0.99901078  0.24648193  0.13430477  1
  O  O240  1  0.99254787  0.24588993  0.63199271  1
  O  O241  1  0.99460793  0.74617922  0.13111933  1
  O  O242  1  0.99686376  0.74049273  0.62658185  1
  O  O243  1  0.00810940  0.25423512  0.36815481  1
  O  O244  1  0.00965161  0.24179717  0.86379015  1
  O  O245  1  0.00165170  0.75532821  0.36734452  1
  O  O246  1  0.00658159  0.75616012  0.87568782  1
  O  O247  1  0.50220972  0.25158868  0.36499805  1
  O  O248  1  0.50504425  0.25540144  0.86752447  1
  O  O249  1  0.51189924  0.75464449  0.36404651  1
  O  O250  1  0.51072409  0.76214815  0.88087620  1
  O  O251  1  0.24856410  0.11595909  0.48326954  1
  O  O252  1  0.24118151  0.13028939  0.99566531  1
  O  O253  1  0.23912858  0.63693957  0.50638840  1
  O  O254  1  0.23675126  0.63639963  0.99796635  1
  O  O255  1  0.74396734  0.12988448  0.49444322  1
  O  O256  1  0.74615382  0.12789327  0.99483610  1
  O  O257  1  0.75908780  0.64233806  0.48912980  1
  O  O258  1  0.73511864  0.61810277  0.98705187  1
  O  O259  1  0.21229896  0.35928582  0.02109064  1
  O  O260  1  0.26389314  0.37358366  0.50020381  1
  O  O261  1  0.24593810  0.86646749  0.00618200  1
  O  O262  1  0.25573772  0.86611428  0.50740663  1
  O  O263  1  0.75958974  0.37521845  0.01749576  1
  O  O264  1  0.74938767  0.35967443  0.50597869  1
  O  O265  1  0.75864263  0.88433102  0.01035999  1
  O  O266  1  0.75744728  0.86863966  0.50421944  1
  O  O267  1  0.12781952  0.51257158  0.24712134  1
  O  O268  1  0.12865511  0.49847029  0.74469507  1
  O  O269  1  0.13535283  1.00763870  0.23790590  1
  O  O270  1  0.13006995  0.99472989  0.74276245  1
  O  O271  1  0.61535616  0.48891759  0.23974371  1
  O  O272  1  0.63876560  0.50296955  0.74269806  1
  O  O273  1  0.63076542  1.00045834  0.24211483  1
  O  O274  1  0.62638423  1.00070146  0.73564817  1
  O  O275  1  0.36536170  0.00786972  0.24621311  1
  O  O276  1  0.36591845  0.00476719  0.75529589  1
  O  O277  1  0.39500115  0.52173949  0.23999121  1
  O  O278  1  0.36534902  0.50648969  0.75491252  1
  O  O279  1  0.87128419  0.00785139  0.25290153  1
  O  O280  1  0.87456248  0.00677559  0.75741696  1
  O  O281  1  0.88201424  0.50594421  0.26705115  1
  O  O282  1  0.86693081  0.50040885  0.76808494  1
  O  O283  1  0.11623301  0.36143005  0.37593094  1
  O  O284  1  0.12710335  0.36073055  0.87270571  1
  O  O285  1  0.11102530  0.86475306  0.38236323  1
  O  O286  1  0.11948360  0.86877186  0.87121001  1
  O  O287  1  0.61488246  0.37902716  0.36859465  1
  O  O288  1  0.62829814  0.36823953  0.88423305  1
  O  O289  1  0.62863988  0.86389121  0.37005799  1
  O  O290  1  0.62094623  0.87113710  0.86914706  1
  O  O291  1  0.37180022  0.13459322  0.14179808  1
  O  O292  1  0.37389285  0.13280390  0.62699680  1
  O  O293  1  0.38390085  0.63041565  0.11710293  1
  O  O294  1  0.39064371  0.63586530  0.63414582  1
  O  O295  1  0.88337751  0.13111809  0.12929429  1
  O  O296  1  0.87327591  0.13240068  0.63505583  1
  O  O297  1  0.88144160  0.63611815  0.11368905  1
  O  O298  1  0.88494126  0.62252732  0.62288947  1
  O  O299  1  0.26732318  0.25241823  0.13169960  1
  O  O300  1  0.26280911  0.25074668  0.62748374  1
  O  O301  1  0.24843056  0.76205093  0.11438238  1
  O  O302  1  0.25448320  0.75373944  0.61899812  1
  O  O303  1  0.76183052  0.25906642  0.12618898  1
  O  O304  1  0.75688319  0.25358446  0.62050297  1
  O  O305  1  0.75838081  0.76258745  0.12622922  1
  O  O306  1  0.74831236  0.75511672  0.61691245  1
  O  O307  1  0.23684431  0.24337022  0.36683957  1
  O  O308  1  0.24362621  0.24404242  0.87642725  1
  O  O309  1  0.23797768  0.75493260  0.38476130  1
  O  O310  1  0.24143964  0.74959740  0.88129660  1
  O  O311  1  0.75772558  0.24090461  0.38283443  1
  O  O312  1  0.75104235  0.23807559  0.87905085  1
  O  O313  1  0.74859203  0.74399003  0.37582174  1
  O  O314  1  0.73582658  0.74140960  0.87436945  1
  O  O315  1  0.00499916  0.11769226  0.00725052  1
  O  O316  1  0.00599431  0.11791959  0.50307759  1
  O  O317  1  0.00964995  0.63405337  0.01198535  1
  O  O318  1  0.00438563  0.62500261  0.50742201  1
  O  O319  1  0.51111632  0.11366284  -0.00459772  1
  O  O320  1  0.50683147  0.11771112  0.50142444  1
  O  O321  1  0.51315978  0.61559823  -0.00638812  1
  O  O322  1  0.50651556  0.63200768  0.51333098  1
  O  O323  1  0.49628910  0.37074332  0.48934106  1
  O  O324  1  0.50408354  0.39147048  1.00427118  1
  O  O325  1  0.49171919  0.88110961  0.50045147  1
  O  O326  1  0.50702822  0.89135235  0.98749865  1
  O  O327  1  0.99537778  0.37291994  0.48613431  1
  O  O328  1  0.99215136  0.37403898  1.01006804  1
  O  O329  1  0.99063187  0.87596257  0.49204896  1
  O  O330  1  0.99284142  0.88075632  0.99514314  1
  O  O331  1  0.50423242  0.49000513  0.37792725  1
  O  O332  1  0.49115270  0.49734512  0.88446689  1
  O  O333  1  0.50634538  0.99567332  0.38853747  1
  O  O334  1  0.49337739  0.99629634  0.87977680  1
  O  O335  1  0.99067678  0.49072124  0.37753978  1
  O  O336  1  0.98496859  0.50551085  0.87429646  1
  O  O337  1  0.99652865  0.99090669  0.37242017  1
  O  O338  1  0.99482978  0.99424858  0.88039548  1
  O  O339  1  0.00867774  0.00495816  0.12235003  1
  O  O340  1  0.01023999  0.00022489  0.62527818  1
  O  O341  1  0.00896097  0.51505995  0.13495928  1
  O  O342  1  0.00393806  0.50538642  0.62436379  1
  O  O343  1  0.50971477  -0.00506093  0.11571354  1
  O  O344  1  0.50708865  0.00412212  0.61435052  1
  O  O345  1  0.50434711  0.51225047  0.12095702  1
  O  O346  1  0.49905669  0.51444013  0.62248616  1
  O  O347  1  0.28603019  0.39929482  0.24384208  1
  O  O348  1  0.24845249  0.38741814  0.74326009  1
  O  O349  1  0.24850794  0.88920092  0.23617481  1
  O  O350  1  0.24295317  0.87881529  0.74665882  1
  O  O351  1  0.73730248  0.36885075  0.24119526  1
  O  O352  1  0.75093571  0.37795586  0.74615326  1
  O  O353  1  0.75222839  0.88438772  0.23713410  1
  O  O354  1  0.73810418  0.87953044  0.74402606  1
  O  O355  1  0.25659063  0.11489215  0.25844754  1
  O  O356  1  0.25817868  0.11932479  0.75438111  1
  O  O357  1  0.25713402  0.62693721  0.24072579  1
  O  O358  1  0.25589782  0.61201425  0.74920006  1
  O  O359  1  0.75592454  0.12427913  0.25577047  1
  O  O360  1  0.76379028  0.12258299  0.75892576  1
  O  O361  1  0.75300298  0.63301270  0.25616652  1
  O  O362  1  0.75064268  0.61619237  0.76325835  1
  O  O363  1  0.36407970  0.13039374  0.36229919  1
  O  O364  1  0.36981128  0.12289962  0.86536293  1
  O  O365  1  0.37329306  0.64019367  0.38648650  1
  O  O366  1  0.37128207  0.61736151  0.86622951  1
  O  O367  1  0.87196343  0.11806601  0.36932076  1
  O  O368  1  0.87133073  0.12085895  0.87189481  1
  O  O369  1  0.86254209  0.62218451  0.37033989  1
  O  O370  1  0.86557223  0.61557179  0.88107091  1
  O  O371  1  0.11587859  0.39871864  0.14159893  1
  O  O372  1  0.12254292  0.38243086  0.62585845  1
  O  O373  1  0.13039069  0.88959053  0.11556176  1
  O  O374  1  0.12990550  0.87811985  0.63215074  1
  O  O375  1  0.63232506  0.38378423  0.13206864  1
  O  O376  1  0.63730952  0.37082164  0.62390605  1
  O  O377  1  0.63515412  0.88733538  0.12308784  1
  O  O378  1  0.62696003  0.88021071  0.63173066  1
  O  O379  1  0.11683998  0.24361148  0.25867634  1
  O  O380  1  0.11620284  0.24979898  0.75640927  1
  O  O381  1  0.11732263  0.74822898  0.26177089  1
  O  O382  1  0.12586014  0.75170703  0.76267935  1
  O  O383  1  0.60907512  0.26127954  0.24170527  1
  O  O384  1  0.60803188  0.20453653  0.75588727  1
  O  O385  1  0.61607231  0.75604370  0.25360637  1
  O  O386  1  0.62685218  0.76252514  0.75988696  1
  O  O387  1  0.38715482  0.24594161  0.24723314  1
  O  O388  1  0.37581135  0.24145430  0.73781558  1
  O  O389  1  0.39417252  0.75173998  0.24420277  1
  O  O390  1  0.36625358  0.73822863  0.74155606  1
  O  O391  1  0.88531731  0.24470321  0.24433266  1
  O  O392  1  0.88090656  0.24285918  0.74711779  1
  O  O393  1  0.88201394  0.75622508  0.23429853  1
  O  O394  1  0.87462916  0.74469047  0.74742144  1
  O  O395  1  0.37543483  0.48545285  0.50840335  1
  O  O396  1  0.38128476  0.50753363  0.99002747  1
  O  O397  1  0.38475759  0.98887877  0.50807175  1
  O  O398  1  0.38412148  1.01004250  0.99215309  1
  O  O399  1  0.87219506  0.50747039  0.47690048  1
  O  O400  1  0.87252010  0.49400909  0.98992759  1
  O  O401  1  0.87480111  0.98930832  0.49347158  1
  O  O402  1  0.88131908  0.99094756  0.99628965  1
  O  O403  1  0.12048147  0.01117960  0.00413589  1
  O  O404  1  0.12625578  -0.00579694  0.51431388  1
  O  O405  1  0.12505293  0.51222409  0.00114845  1
  O  O406  1  0.11657903  0.50764226  0.50684638  1
  O  O407  1  0.62041836  0.01002358  0.00781050  1
  O  O408  1  0.62009574  0.00210633  0.50826423  1
  O  O409  1  0.61754291  0.50686192  0.01420776  1
  O  O410  1  0.67072154  0.50790386  0.52265738  1
  O  O411  1  0.37785547  0.35816207  0.11769531  1
  O  O412  1  0.37566402  0.36284920  0.61027502  1
  O  O413  1  0.36359702  0.87487952  0.12139903  1
  O  O414  1  0.36857563  0.86756736  0.62626510  1
  O  O415  1  0.87133961  0.37506218  0.12409613  1
  O  O416  1  0.86784226  0.35858517  0.62988142  1
  O  O417  1  0.87012484  0.87126726  0.11689587  1
  O  O418  1  0.86793538  0.87521475  0.61692046  1
  O  O419  1  0.13233003  0.13612854  0.37665919  1
  O  O420  1  0.13171076  0.12881193  0.88072392  1
  O  O421  1  0.11336406  0.63585650  0.38903635  1
  O  O422  1  0.12416866  0.63229937  0.88153775  1
  O  O423  1  0.63398110  0.11814268  0.38654521  1
  O  O424  1  0.63857204  0.12111572  0.88967501  1
  O  O425  1  0.64188798  0.63819117  0.36956601  1
  O  O426  1  0.62775575  0.63207066  0.87916080  1
