# generated using pymatgen
data_V85Zn86O256
_symmetry_space_group_name_H-M   'P 1'
_cell_length_a   16.94392978
_cell_length_b   16.94113676
_cell_length_c   16.95391661
_cell_angle_alpha   89.93318549
_cell_angle_beta   89.93916958
_cell_angle_gamma   89.88373144
_symmetry_Int_Tables_number   1
_chemical_formula_structural   V85Zn86O256
_chemical_formula_sum   'V85 Zn86 O256'
_cell_volume   4866.59606931
_cell_formula_units_Z   1
loop_
 _symmetry_equiv_pos_site_id
 _symmetry_equiv_pos_as_xyz
  1  'x, y, z'
loop_
 _atom_site_type_symbol
 _atom_site_label
 _atom_site_symmetry_multiplicity
 _atom_site_fract_x
 _atom_site_fract_y
 _atom_site_fract_z
 _atom_site_occupancy
  V  V0  1  0.24627938  0.75079832  0.49816943  1
  V  V1  1  0.87305496  0.11385170  0.25331220  1
  V  V2  1  0.24707485  0.50121393  0.24391265  1
  V  V3  1  0.61036901  0.25454120  0.87434969  1
  V  V4  1  0.38621476  0.11743855  0.25410373  1
  V  V5  1  0.00365767  0.61955872  0.12548628  1
  V  V6  1  0.62019633  0.37976241  0.74882567  1
  V  V7  1  -0.00016624  0.75007491  0.25166481  1
  V  V8  1  0.73685595  0.24795292  0.50293460  1
  V  V9  1  0.37062236  0.88229640  0.49887215  1
  V  V10  1  0.12909464  0.75441122  0.86745525  1
  V  V11  1  0.50179859  0.49078800  -0.00946102  1
  V  V12  1  0.74855099  0.49597147  0.25288102  1
  V  V13  1  0.00579499  0.87725370  0.86681351  1
  V  V14  1  0.49806988  0.00220240  0.51701840  1
  V  V15  1  0.87606774  0.37678271  -0.00120907  1
  V  V16  1  0.75579951  0.61862270  0.38196868  1
  V  V17  1  0.50564251  0.25924050  0.24900908  1
  V  V18  1  0.24351474  -0.00148690  0.75144301  1
  V  V19  1  0.75275725  0.37133892  0.62828855  1
  V  V20  1  0.00151863  0.12394552  0.12369556  1
  V  V21  1  0.00213907  -0.00020557  -0.00136038  1
  V  V22  1  0.88262018  0.62417347  0.75031115  1
  V  V23  1  0.87708003  0.88439197  0.49434357  1
  V  V24  1  0.49625276  0.25242808  0.72723015  1
  V  V25  1  -0.00087966  0.50024189  0.49634271  1
  V  V26  1  0.12839056  0.00109543  0.12458950  1
  V  V27  1  -0.00444574  0.37720329  0.37370390  1
  V  V28  1  0.37521337  0.62304404  0.25019986  1
  V  V29  1  0.61160055  0.88071935  0.75402275  1
  V  V30  1  0.38222554  -0.00048722  0.87134859  1
  V  V31  1  0.61375055  0.12427629  0.00261241  1
  V  V32  1  0.12440424  0.62301478  0.49930523  1
  V  V33  1  0.74292103  0.00231647  0.74888976  1
  V  V34  1  0.00188951  0.25017915  0.76055962  1
  V  V35  1  0.13759268  0.37098657  0.75443247  1
  V  V36  1  0.00167746  0.25004525  0.24683284  1
  V  V37  1  0.74435171  0.87711422  0.62807974  1
  V  V38  1  0.50463710  0.74761647  0.25276099  1
  V  V39  1  0.25447229  0.87610459  0.12443242  1
  V  V40  1  0.37943306  0.37297175  0.51531069  1
  V  V41  1  0.37419656  0.73917454  0.62817225  1
  V  V42  1  0.12366550  0.37897409  0.24344578  1
  V  V43  1  0.87584409  0.62016406  0.25428267  1
  V  V44  1  0.25393892  0.25330029  0.50951590  1
  V  V45  1  0.12752701  0.13181316  -0.00598766  1
  V  V46  1  0.37803320  0.12999573  0.73551167  1
  V  V47  1  0.87757903  0.13033684  0.75168756  1
  V  V48  1  0.25070721  0.37393443  0.12136181  1
  V  V49  1  0.13215097  0.48941421  0.62290885  1
  V  V50  1  0.74628308  0.12704452  0.87566560  1
  V  V51  1  0.87427082  0.38341527  0.50281026  1
  V  V52  1  0.37768846  0.24139041  0.12360526  1
  V  V53  1  0.13157762  0.24651214  0.37566316  1
  V  V54  1  0.25142600  0.74909043  -0.00464287  1
  V  V55  1  0.74935157  0.50199366  0.74523398  1
  V  V56  1  0.36063043  0.50412172  0.87262498  1
  V  V57  1  0.00588321  0.50056610  -0.00294054  1
  V  V58  1  0.75047494  0.75019070  0.00065022  1
  V  V59  1  0.93165573  0.19267043  0.57925732  1
  V  V60  1  0.62671834  0.87261878  0.25652477  1
  V  V61  1  0.11817327  0.01471369  0.62127024  1
  V  V62  1  0.12698785  0.87565803  0.25239556  1
  V  V63  1  0.87468057  0.00135466  0.87563497  1
  V  V64  1  0.50124299  0.62106588  0.12525870  1
  V  V65  1  0.75200450  0.62424388  0.87568356  1
  V  V66  1  0.87662171  0.75173666  0.62993949  1
  V  V67  1  0.37990126  0.48969238  0.37483431  1
  V  V68  1  0.61732218  0.11937364  0.51061124  1
  V  V69  1  0.49593163  0.73775035  0.75002460  1
  V  V70  1  0.13034448  0.62384110  0.00053985  1
  V  V71  1  0.87505309  0.24800986  0.12530069  1
  V  V72  1  0.74490797  0.37490295  0.12859926  1
  V  V73  1  0.62612213  0.62337343  0.00151202  1
  V  V74  1  0.75093982  0.74844135  0.49704896  1
  V  V75  1  0.74840174  0.24917695  -0.00201431  1
  V  V76  1  0.25347462  0.12090822  0.37506710  1
  V  V77  1  0.25047612  0.13538337  0.87161468  1
  V  V78  1  0.58263789  0.69591472  0.43456072  1
  V  V79  1  0.49682164  0.88713955  0.37645166  1
  V  V80  1  0.61597604  0.75645358  0.87820974  1
  V  V81  1  0.38342459  0.87427214  -0.00559751  1
  V  V82  1  0.23916683  0.87509830  0.62908503  1
  V  V83  1  0.61948956  0.00237525  0.12946964  1
  V  V84  1  0.87585912  0.87478594  0.00077829  1
  Zn  Zn85  1  0.25631395  -0.00151272  0.25621053  1
  Zn  Zn86  1  -0.00147261  0.62258217  0.62563400  1
  Zn  Zn87  1  0.00380740  0.75308704  0.74905071  1
  Zn  Zn88  1  0.74835159  0.87460927  0.12679657  1
  Zn  Zn89  1  0.24729539  0.62162150  0.37273121  1
  Zn  Zn90  1  0.87420116  0.74921392  0.12550731  1
  Zn  Zn91  1  0.87850054  0.49952197  0.87379923  1
  Zn  Zn92  1  0.24999831  0.25206459  -0.00370037  1
  Zn  Zn93  1  0.38251165  0.36837492  -0.00452145  1
  Zn  Zn94  1  0.12246594  0.75055045  0.37615231  1
  Zn  Zn95  1  0.62239174  0.49266032  0.12783481  1
  Zn  Zn96  1  -0.00621325  0.88751268  0.37038802  1
  Zn  Zn97  1  0.63095344  0.24876219  0.36764838  1
  Zn  Zn98  1  0.00080773  0.01515824  0.49833226  1
  Zn  Zn99  1  0.37671925  0.75010472  0.12512408  1
  Zn  Zn100  1  0.00484041  0.37557399  0.87452576  1
  Zn  Zn101  1  0.50101634  -0.00315734  -0.00157636  1
  Zn  Zn102  1  0.52159944  0.61017580  0.61152385  1
  Zn  Zn103  1  0.25607417  0.51338126  0.74367293  1
  Zn  Zn104  1  0.51450496  0.37632589  0.37924754  1
  Zn  Zn105  1  0.75237948  -0.00808174  0.25548200  1
  Zn  Zn106  1  0.74935159  0.11535702  0.38121858  1
  Zn  Zn107  1  0.19197298  0.18656848  0.18922071  1
  Zn  Zn108  1  0.18763935  0.18973886  0.68940418  1
  Zn  Zn109  1  0.18691945  0.68924769  0.18341577  1
  Zn  Zn110  1  0.18734773  0.68471741  0.68355549  1
  Zn  Zn111  1  0.68847915  0.18421849  0.18359995  1
  Zn  Zn112  1  0.68430810  0.19128039  0.68569663  1
  Zn  Zn113  1  0.68712130  0.68592291  0.18916764  1
  Zn  Zn114  1  0.68945172  0.69393274  0.69352481  1
  Zn  Zn115  1  0.31436248  0.30891966  0.30786811  1
  Zn  Zn116  1  0.32331435  0.31916111  0.81288698  1
  Zn  Zn117  1  0.31435349  0.81174629  0.31421327  1
  Zn  Zn118  1  0.31412160  0.81299801  0.81207166  1
  Zn  Zn119  1  0.81134222  0.30829841  0.31485675  1
  Zn  Zn120  1  0.81258426  0.31169994  0.81428860  1
  Zn  Zn121  1  0.81069157  0.80690466  0.31578671  1
  Zn  Zn122  1  0.81057785  0.81410790  0.81512901  1
  Zn  Zn123  1  0.19095019  0.43276478  0.43243980  1
  Zn  Zn124  1  0.18529405  0.43705486  0.93708800  1
  Zn  Zn125  1  0.18120657  0.94123860  0.43896209  1
  Zn  Zn126  1  0.19207500  0.94033117  0.93675452  1
  Zn  Zn127  1  0.68950806  0.43020957  0.42892732  1
  Zn  Zn128  1  0.68826639  0.43695630  0.93414191  1
  Zn  Zn129  1  0.68569187  0.93982419  0.43602306  1
  Zn  Zn130  1  0.68661908  0.93840977  0.93708704  1
  Zn  Zn131  1  0.31499561  0.06234917  0.06151519  1
  Zn  Zn132  1  0.30599972  0.06340304  0.55928925  1
  Zn  Zn133  1  0.31651585  0.56084064  0.06012460  1
  Zn  Zn134  1  0.31410007  0.55819617  0.55855268  1
  Zn  Zn135  1  0.80591690  0.06012384  0.06700868  1
  Zn  Zn136  1  0.80210255  0.05731481  0.56280582  1
  Zn  Zn137  1  0.81667103  0.56149309  0.06627703  1
  Zn  Zn138  1  0.69475547  0.56281300  0.56452155  1
  Zn  Zn139  1  0.43370922  0.43522032  0.18263022  1
  Zn  Zn140  1  0.43695688  0.44266268  0.69406065  1
  Zn  Zn141  1  0.44088597  0.93775061  0.18557501  1
  Zn  Zn142  1  0.42700969  0.93185873  0.68815552  1
  Zn  Zn143  1  0.93480901  0.44006794  0.18391246  1
  Zn  Zn144  1  0.93981617  0.43623692  0.68500391  1
  Zn  Zn145  1  0.94047228  0.93481784  0.18287147  1
  Zn  Zn146  1  0.93442711  0.94258706  0.68497456  1
  Zn  Zn147  1  0.06414797  0.06108923  0.31512878  1
  Zn  Zn148  1  0.06423902  0.06509689  0.80959271  1
  Zn  Zn149  1  0.06427433  0.56091113  0.31409724  1
  Zn  Zn150  1  0.09362074  0.57699867  0.80013272  1
  Zn  Zn151  1  0.56736688  0.06448749  0.32013128  1
  Zn  Zn152  1  0.55897776  0.06974074  0.80909890  1
  Zn  Zn153  1  0.56507718  0.55418800  0.31173022  1
  Zn  Zn154  1  0.56533115  0.56387620  0.81353300  1
  Zn  Zn155  1  0.43911175  0.19090376  0.43764994  1
  Zn  Zn156  1  0.43304666  0.18527224  0.93337024  1
  Zn  Zn157  1  0.41755643  0.68966992  0.43500459  1
  Zn  Zn158  1  0.43710850  0.68379498  0.93798644  1
  Zn  Zn159  1  0.93480186  0.19235691  0.41847770  1
  Zn  Zn160  1  0.93756193  0.18804158  0.93731150  1
  Zn  Zn161  1  0.93532456  0.69040573  0.43759034  1
  Zn  Zn162  1  0.94179597  0.68836630  0.93549307  1
  Zn  Zn163  1  0.06430070  0.31311766  0.06163220  1
  Zn  Zn164  1  0.07178238  0.31327710  0.55988105  1
  Zn  Zn165  1  0.06376578  0.81101677  0.06392207  1
  Zn  Zn166  1  0.06048184  0.81484846  0.56356434  1
  Zn  Zn167  1  0.56206403  0.30718975  0.06775792  1
  Zn  Zn168  1  0.55994959  0.43230883  0.56151955  1
  Zn  Zn169  1  0.56233734  0.81271748  0.06878716  1
  Zn  Zn170  1  0.55776364  0.81824379  0.57178590  1
  O  O171  1  0.12163524  0.12005796  0.11936515  1
  O  O172  1  0.12634602  0.11335275  0.62789401  1
  O  O173  1  0.11209689  0.63165161  0.11582633  1
  O  O174  1  0.11738688  0.61787734  0.60984443  1
  O  O175  1  0.62924333  0.11567377  0.11379111  1
  O  O176  1  0.62532161  0.12704083  0.61015726  1
  O  O177  1  0.61527380  0.62306714  0.11994558  1
  O  O178  1  0.63109955  0.63811639  0.61909183  1
  O  O179  1  0.37576017  0.38537784  0.36954752  1
  O  O180  1  0.37438497  0.39219142  0.88337581  1
  O  O181  1  0.38432391  0.86804988  0.38651954  1
  O  O182  1  0.36881228  0.88585440  0.88331070  1
  O  O183  1  0.88992479  0.36369407  0.38373827  1
  O  O184  1  0.87728960  0.37438921  0.88891140  1
  O  O185  1  0.87254930  0.87037599  0.39155729  1
  O  O186  1  0.88079364  0.88079258  0.88490523  1
  O  O187  1  0.24356537  0.01634720  0.37635319  1
  O  O188  1  0.25748754  0.00764839  0.86640577  1
  O  O189  1  0.25732562  0.49804798  0.35973407  1
  O  O190  1  0.25847885  0.50368889  0.87997016  1
  O  O191  1  0.74642923  0.00241943  0.36787854  1
  O  O192  1  0.75560327  0.00479869  0.86644076  1
  O  O193  1  0.75363573  0.51052212  0.36739402  1
  O  O194  1  0.75572538  0.50616255  0.86637805  1
  O  O195  1  0.25906813  0.49073619  0.13593775  1
  O  O196  1  0.23614523  0.50506212  0.62500671  1
  O  O197  1  0.24712745  0.98831730  0.12430141  1
  O  O198  1  0.24084213  0.99421815  0.63080368  1
  O  O199  1  0.75071173  0.49119213  0.13154355  1
  O  O200  1  0.75371571  0.49329274  0.64045722  1
  O  O201  1  0.73653887  0.99418659  0.13159298  1
  O  O202  1  0.75028207  0.99206918  0.64086189  1
  O  O203  1  0.00449982  0.37413546  0.25398644  1
  O  O204  1  0.00002211  0.36364307  0.75227894  1
  O  O205  1  0.00752865  0.86778098  0.24936746  1
  O  O206  1  -0.00788431  0.87726827  0.76449650  1
  O  O207  1  0.49771154  0.36151419  0.24599372  1
  O  O208  1  0.50858833  0.36434728  0.74640252  1
  O  O209  1  0.50116940  0.86645840  0.25965657  1
  O  O210  1  0.50936870  0.86840489  0.74501283  1
  O  O211  1  0.48858618  0.12835382  0.25508457  1
  O  O212  1  0.49200462  0.14087777  0.75019798  1
  O  O213  1  0.49912100  0.62887499  0.24490939  1
  O  O214  1  0.50842707  0.63658395  0.74516622  1
  O  O215  1  0.99156117  0.12803923  0.24289048  1
  O  O216  1  0.99052466  0.13323470  0.75240269  1
  O  O217  1  0.99626136  0.62832530  0.24589890  1
  O  O218  1  0.99605572  0.62867011  0.75011948  1
  O  O219  1  0.37301875  0.24867927  0.00838386  1
  O  O220  1  0.36657798  0.26329723  0.49532174  1
  O  O221  1  0.36830389  0.75576661  -0.00046827  1
  O  O222  1  0.36354386  0.76029448  0.50759258  1
  O  O223  1  0.87050401  0.25572587  0.00540683  1
  O  O224  1  0.87744216  0.25133858  0.51001234  1
  O  O225  1  0.86776703  0.75719502  -0.00157138  1
  O  O226  1  0.86664110  0.75812662  0.50958959  1
  O  O227  1  0.14032962  0.25636302  0.48726693  1
  O  O228  1  0.12717392  0.23573304  1.00303632  1
  O  O229  1  0.12902867  0.74294314  0.49977986  1
  O  O230  1  0.13470654  0.74781469  0.99648361  1
  O  O231  1  0.63505737  0.24120649  0.50074591  1
  O  O232  1  0.62796867  0.24378326  0.99396958  1
  O  O233  1  0.63399577  0.76327760  0.49803101  1
  O  O234  1  0.62967016  0.74729804  0.99553572  1
  O  O235  1  0.48977027  0.24906417  0.13513261  1
  O  O236  1  0.50161151  0.25225122  0.63283440  1
  O  O237  1  0.49762619  0.74072489  0.13449065  1
  O  O238  1  0.48869796  0.74992675  0.63356032  1
  O  O239  1  0.99565753  0.24411806  0.12861548  1
  O  O240  1  0.99809705  0.25027140  0.63097217  1
  O  O241  1  0.99863690  0.74396994  0.13653121  1
  O  O242  1  0.98780382  0.75226620  0.62846141  1
  O  O243  1  0.01148159  0.25766277  0.36656520  1
  O  O244  1  0.00036825  0.25092584  0.86458439  1
  O  O245  1  0.00053929  0.75359078  0.36202493  1
  O  O246  1  0.00925420  0.76189652  0.87613570  1
  O  O247  1  0.49675299  0.25314277  0.35747902  1
  O  O248  1  0.50915582  0.25077694  0.87554305  1
  O  O249  1  0.50737141  0.75091556  0.37347664  1
  O  O250  1  0.50907842  0.74527480  0.86963600  1
  O  O251  1  0.26164463  0.14157497  0.48769116  1
  O  O252  1  0.24384934  0.12442053  0.99065051  1
  O  O253  1  0.24152759  0.63290017  0.49869900  1
  O  O254  1  0.24207302  0.63615378  1.01178224  1
  O  O255  1  0.74046849  0.12959226  0.50255389  1
  O  O256  1  0.74270153  0.13041114  0.99435494  1
  O  O257  1  0.75583078  0.63533363  0.49247103  1
  O  O258  1  0.74732073  0.63042769  0.99711398  1
  O  O259  1  0.24495593  0.37278700  0.01291009  1
  O  O260  1  0.26108247  0.36153239  0.49201927  1
  O  O261  1  0.25893229  0.86976588  0.00711052  1
  O  O262  1  0.25262882  0.86999325  0.50419472  1
  O  O263  1  0.75793389  0.37057062  0.00597592  1
  O  O264  1  0.76019908  0.36492229  0.50629248  1
  O  O265  1  0.75789703  0.86760251  -0.00037529  1
  O  O266  1  0.75678342  0.87113867  0.50889389  1
  O  O267  1  0.13346138  0.49139062  0.25205387  1
  O  O268  1  0.11270860  0.47968536  0.73701307  1
  O  O269  1  0.12987711  0.99228677  0.24164629  1
  O  O270  1  0.13646195  1.00337729  0.74141021  1
  O  O271  1  0.64323228  0.50343205  0.24527463  1
  O  O272  1  0.63559234  0.49118654  0.75892748  1
  O  O273  1  0.62085627  0.99195327  0.24469288  1
  O  O274  1  0.63123123  0.99366272  0.76004943  1
  O  O275  1  0.37564351  0.01314261  0.24489067  1
  O  O276  1  0.36623105  0.00648851  0.75459800  1
  O  O277  1  0.36906080  0.50332707  0.25589777  1
  O  O278  1  0.36885302  0.49845840  0.76620597  1
  O  O279  1  0.87578092  0.01119418  0.23950756  1
  O  O280  1  0.86777996  0.01179894  0.75484973  1
  O  O281  1  0.86766399  0.51326533  0.24502411  1
  O  O282  1  0.87188201  0.50853175  0.75199083  1
  O  O283  1  0.11849974  0.36705831  0.36298789  1
  O  O284  1  0.12314359  0.37742034  0.85950179  1
  O  O285  1  0.12717564  0.87313297  0.36140630  1
  O  O286  1  0.11591135  0.86962418  0.88443748  1
  O  O287  1  0.62707579  0.36226290  0.36849451  1
  O  O288  1  0.63379466  0.36459028  0.86160710  1
  O  O289  1  0.61475862  0.87569799  0.36382576  1
  O  O290  1  0.62801480  0.86613835  0.86843306  1
  O  O291  1  0.36904156  0.13296845  0.13701255  1
  O  O292  1  0.36886943  0.12000696  0.63723161  1
  O  O293  1  0.38711922  0.62569659  0.13063139  1
  O  O294  1  0.37329917  0.63802653  0.61587082  1
  O  O295  1  0.88191018  0.12897353  0.12830695  1
  O  O296  1  0.87157428  0.12628401  0.63239952  1
  O  O297  1  0.88684582  0.62872436  0.13211223  1
  O  O298  1  0.87775564  0.63656987  0.64188680  1
  O  O299  1  0.25897000  0.25665455  0.12460042  1
  O  O300  1  0.24570878  0.24677238  0.60770823  1
  O  O301  1  0.25280132  0.76168293  0.11688267  1
  O  O302  1  0.25079719  0.75499109  0.61775165  1
  O  O303  1  0.75628895  0.25567707  0.11888406  1
  O  O304  1  0.74982446  0.25895356  0.61766650  1
  O  O305  1  0.74999793  0.74946092  0.11159934  1
  O  O306  1  0.76112696  0.75883546  0.62119495  1
  O  O307  1  0.24596800  0.24377871  0.37520351  1
  O  O308  1  0.25813279  0.23873754  0.87438764  1
  O  O309  1  0.24893420  0.74769377  0.38806311  1
  O  O310  1  0.24399085  0.75713594  0.88715073  1
  O  O311  1  0.75656834  0.24126868  0.38955216  1
  O  O312  1  0.74158118  0.24479689  0.88065435  1
  O  O313  1  0.75022650  0.73937567  0.38831964  1
  O  O314  1  0.74166985  0.74670407  0.88576250  1
  O  O315  1  0.00744226  0.11917630  0.00247903  1
  O  O316  1  -0.01549817  0.13673941  0.51177572  1
  O  O317  1  0.00358322  0.61980028  0.00876959  1
  O  O318  1  0.00380155  0.61625732  0.49802933  1
  O  O319  1  0.51118860  0.12286570  -0.00483229  1
  O  O320  1  0.50742916  0.11722137  0.49721196  1
  O  O321  1  0.50607830  0.61633497  0.00896447  1
  O  O322  1  0.51136797  0.64684843  0.49139998  1
  O  O323  1  0.48244076  0.37129006  0.49553133  1
  O  O324  1  0.50437814  0.38821159  1.00736413  1
  O  O325  1  0.49173298  0.88050392  0.49596630  1
  O  O326  1  0.48701558  0.87206856  1.00289111  1
  O  O327  1  0.99724691  0.37788018  0.49247661  1
  O  O328  1  0.99512167  0.38181262  1.00025982  1
  O  O329  1  0.98279782  0.87197830  0.50013560  1
  O  O330  1  0.99325619  0.88022169  0.99515496  1
  O  O331  1  0.48454882  0.49559037  0.36800621  1
  O  O332  1  0.50290518  0.50201959  0.88931783  1
  O  O333  1  0.50056763  0.98889980  0.38433251  1
  O  O334  1  0.48593097  1.00448271  0.87379755  1
  O  O335  1  1.00625399  0.48988312  0.38574398  1
  O  O336  1  0.99849132  0.50052030  0.89032222  1
  O  O337  1  1.00748023  0.99902665  0.38633652  1
  O  O338  1  0.99568299  0.99596385  0.88008572  1
  O  O339  1  0.00803360  0.00430285  0.11714808  1
  O  O340  1  0.01443797  -0.00255341  0.62412220  1
  O  O341  1  -0.00351341  0.50931172  0.11412245  1
  O  O342  1  0.00836053  0.49796996  0.60961326  1
  O  O343  1  0.51399137  -0.00491928  0.11875673  1
  O  O344  1  0.49616384  -0.00981403  0.61598365  1
  O  O345  1  0.50232229  0.50574613  0.11884184  1
  O  O346  1  0.49300414  0.50290450  0.62006408  1
  O  O347  1  0.24306902  0.37908590  0.24040351  1
  O  O348  1  0.23896588  0.37748944  0.75271417  1
  O  O349  1  0.24650449  0.87541041  0.24327803  1
  O  O350  1  0.25586449  0.88626316  0.74090356  1
  O  O351  1  0.76518097  0.38406092  0.24097297  1
  O  O352  1  0.74922396  0.38069587  0.74478623  1
  O  O353  1  0.74056820  0.86837276  0.24861157  1
  O  O354  1  0.74268695  0.88297074  0.74714703  1
  O  O355  1  0.26202518  0.12366607  0.25762740  1
  O  O356  1  0.25569670  0.12066408  0.75534393  1
  O  O357  1  0.25394794  0.61800618  0.24695680  1
  O  O358  1  0.20084883  0.61001502  0.76246281  1
  O  O359  1  0.76729661  0.12588678  0.24499506  1
  O  O360  1  0.75300114  0.12075401  0.75473178  1
  O  O361  1  0.75843956  0.62145878  0.25668457  1
  O  O362  1  0.75794126  0.61934100  0.75658887  1
  O  O363  1  0.36951413  0.12975281  0.36071513  1
  O  O364  1  0.36713364  0.11726500  0.86582932  1
  O  O365  1  0.36911164  0.61049010  0.36907606  1
  O  O366  1  0.38071920  0.60350459  0.88376733  1
  O  O367  1  0.87408760  0.12200324  0.35671269  1
  O  O368  1  0.86808455  0.11993409  0.86990409  1
  O  O369  1  0.86752832  0.62861728  0.36657911  1
  O  O370  1  0.87056813  0.62774270  0.86539979  1
  O  O371  1  0.13123826  0.36986805  0.13672646  1
  O  O372  1  0.12466592  0.37998351  0.63407699  1
  O  O373  1  0.13303718  0.87827175  0.13380168  1
  O  O374  1  0.13572440  0.87942375  0.62270692  1
  O  O375  1  0.64144389  0.37216796  0.12236530  1
  O  O376  1  0.63887963  0.37634724  0.64016365  1
  O  O377  1  0.62447175  0.87999807  0.13879459  1
  O  O378  1  0.63765261  0.86950983  0.63790860  1
  O  O379  1  0.12002731  0.25761034  0.25317769  1
  O  O380  1  0.11766602  0.26275643  0.74462971  1
  O  O381  1  0.11878130  0.75730742  0.25071888  1
  O  O382  1  0.12481504  0.75489352  0.76460897  1
  O  O383  1  0.60787866  0.23832874  0.24464729  1
  O  O384  1  0.61370185  0.25454514  0.75539048  1
  O  O385  1  0.61272249  0.75588467  0.24657016  1
  O  O386  1  0.61853234  0.76001617  0.76124287  1
  O  O387  1  0.38397296  0.24038758  0.24208628  1
  O  O388  1  0.38798857  0.24640088  0.75039770  1
  O  O389  1  0.38686826  0.74166231  0.25240367  1
  O  O390  1  0.38372272  0.75288103  0.74292495  1
  O  O391  1  0.88298385  0.24095222  0.24380557  1
  O  O392  1  0.88088696  0.23804156  0.75417811  1
  O  O393  1  0.88175543  0.74037908  0.24799533  1
  O  O394  1  0.87505172  0.74641255  0.74588641  1
  O  O395  1  0.36342880  0.48542916  0.48343819  1
  O  O396  1  0.38912509  0.49587040  0.99699610  1
  O  O397  1  0.37784197  0.98865794  0.50475640  1
  O  O398  1  0.37671357  0.99295982  0.99111871  1
  O  O399  1  0.88508337  0.48442378  0.49847573  1
  O  O400  1  0.88192999  0.49135168  0.99969954  1
  O  O401  1  0.87714236  0.98686686  0.50987814  1
  O  O402  1  0.87835012  0.99371730  0.99618034  1
  O  O403  1  0.12250037  0.00864262  0.00555181  1
  O  O404  1  0.12393210  0.00222505  0.51678211  1
  O  O405  1  0.11923941  0.51096530  -0.00069175  1
  O  O406  1  0.12168128  0.50245638  0.50192006  1
  O  O407  1  0.62406555  0.00721564  0.00476871  1
  O  O408  1  0.61504095  0.01078767  0.50110107  1
  O  O409  1  0.61767706  0.50438425  0.00169358  1
  O  O410  1  0.63400148  0.49307421  0.50196569  1
  O  O411  1  0.36644716  0.36289546  0.12119260  1
  O  O412  1  0.37217931  0.38112154  0.61262410  1
  O  O413  1  0.36887508  0.87324827  0.11855108  1
  O  O414  1  0.36079186  0.86549031  0.61713217  1
  O  O415  1  0.86949849  0.36888277  0.11469841  1
  O  O416  1  0.86371200  0.37735087  0.61786025  1
  O  O417  1  0.87345524  0.87171107  0.11212582  1
  O  O418  1  0.86434529  0.87101968  0.62174588  1
  O  O419  1  0.13479644  0.14021537  0.36470793  1
  O  O420  1  0.13639128  0.11874359  0.88261897  1
  O  O421  1  0.12676428  0.62657491  0.38625885  1
  O  O422  1  0.11422793  0.64177259  0.89578558  1
  O  O423  1  0.62740664  0.13195797  0.38913137  1
  O  O424  1  0.62919840  0.13329299  0.88106338  1
  O  O425  1  0.63347482  0.62712570  0.37337081  1
  O  O426  1  0.63234704  0.63516197  0.88240139  1
