# generated using pymatgen
data_V85Zn86O256
_symmetry_space_group_name_H-M   'P 1'
_cell_length_a   16.93193817
_cell_length_b   16.93212369
_cell_length_c   16.93690430
_cell_angle_alpha   89.94060082
_cell_angle_beta   89.99396223
_cell_angle_gamma   90.04708448
_symmetry_Int_Tables_number   1
_chemical_formula_structural   V85Zn86O256
_chemical_formula_sum   'V85 Zn86 O256'
_cell_volume   4855.69899729
_cell_formula_units_Z   1
loop_
 _symmetry_equiv_pos_site_id
 _symmetry_equiv_pos_as_xyz
  1  'x, y, z'
loop_
 _atom_site_type_symbol
 _atom_site_label
 _atom_site_symmetry_multiplicity
 _atom_site_fract_x
 _atom_site_fract_y
 _atom_site_fract_z
 _atom_site_occupancy
  V  V0  1  0.87359317  0.12032079  0.75760330  1
  V  V1  1  0.85820150  0.61817080  0.24006314  1
  V  V2  1  0.62111014  0.88297971  0.24951510  1
  V  V3  1  0.37786690  0.24670497  0.62538832  1
  V  V4  1  0.11232990  0.86144793  0.26405279  1
  V  V5  1  0.37511256  0.87998249  -0.01193968  1
  V  V6  1  0.49546508  0.61636093  0.12185509  1
  V  V7  1  0.87541381  0.25013821  0.62385192  1
  V  V8  1  0.00255616  0.50286309  0.00133690  1
  V  V9  1  0.50241555  0.38153396  0.88370813  1
  V  V10  1  0.25204164  0.25073701  0.00300871  1
  V  V11  1  0.37529475  0.12121926  0.25119077  1
  V  V12  1  0.25357218  0.51517046  0.25403878  1
  V  V13  1  0.61915779  0.75596360  0.87587589  1
  V  V14  1  0.24883596  0.75219527  -0.00247506  1
  V  V15  1  0.61508338  0.62127288  0.49732380  1
  V  V16  1  0.50558575  -0.00352222  0.49638092  1
  V  V17  1  0.50279170  0.24861200  0.25018015  1
  V  V18  1  0.25204954  0.86923591  0.62224851  1
  V  V19  1  0.12465277  0.50316647  0.62124547  1
  V  V20  1  0.75037291  0.62664132  0.86921065  1
  V  V21  1  0.25286525  0.24946464  0.49927453  1
  V  V22  1  0.12144377  0.74792939  0.87111817  1
  V  V23  1  0.75229292  0.37645019  0.62134522  1
  V  V24  1  0.25178242  0.37381888  0.62800309  1
  V  V25  1  0.73920542  0.88076105  0.12109907  1
  V  V26  1  -0.00084474  0.23524111  0.25062947  1
  V  V27  1  0.11810168  0.38018509  0.25230025  1
  V  V28  1  0.24632658  0.87530790  0.12579490  1
  V  V29  1  0.38124493  0.11921283  0.75729339  1
  V  V30  1  0.12178836  0.25612638  0.37584546  1
  V  V31  1  0.62770256  0.12030896  0.00730634  1
  V  V32  1  0.50414522  0.24866429  0.75085970  1
  V  V33  1  -0.01369803  0.61669007  0.61874360  1
  V  V34  1  0.63498750  -0.00359117  0.61865741  1
  V  V35  1  0.49492441  0.74243052  0.74633546  1
  V  V36  1  0.12135883  0.87653820  0.75283408  1
  V  V37  1  0.37800348  0.24868512  0.12523561  1
  V  V38  1  0.12438100  0.12141334  0.00896869  1
  V  V39  1  0.37594003  0.86900599  0.50080068  1
  V  V40  1  -0.01025980  0.73752449  0.75185997  1
  V  V41  1  -0.00142995  0.12338697  0.62560121  1
  V  V42  1  0.63081955  0.24816817  0.87893672  1
  V  V43  1  0.62044799  0.75472385  0.37437173  1
  V  V44  1  0.62582815  0.23725436  0.38030371  1
  V  V45  1  0.62041139  0.87428182  0.74646778  1
  V  V46  1  0.88321202  0.37791666  0.49285279  1
  V  V47  1  0.75180410  -0.00647090  0.75606552  1
  V  V48  1  0.24911179  0.64193788  0.39543999  1
  V  V49  1  0.87962299  0.23828282  0.12877477  1
  V  V50  1  0.12417448  0.12439032  0.49910854  1
  V  V51  1  0.12689826  0.00275232  0.62510263  1
  V  V52  1  0.25749651  0.62798712  0.87030506  1
  V  V53  1  0.25768493  0.51150940  0.74870721  1
  V  V54  1  0.76938144  0.11888147  0.37489009  1
  V  V55  1  0.49900861  0.38280631  0.37896781  1
  V  V56  1  0.12765693  0.24976853  0.87847046  1
  V  V57  1  0.37803583  -0.00685360  0.37615220  1
  V  V58  1  0.88293227  0.50229703  0.36775856  1
  V  V59  1  0.87292389  0.75439501  0.12469071  1
  V  V60  1  0.25465260  0.00006030  0.75594275  1
  V  V61  1  0.75206079  0.75795991  0.49921592  1
  V  V62  1  0.12902268  0.37460543  0.75312198  1
  V  V63  1  0.37412998  0.74574308  0.12715380  1
  V  V64  1  -0.00866147  0.00263009  0.00232391  1
  V  V65  1  0.63256995  0.38177446  0.25185639  1
  V  V66  1  0.62933880  0.37518636  0.74995795  1
  V  V67  1  0.50871142  0.12228326  0.62000250  1
  V  V68  1  0.25130486  0.37713581  0.13039575  1
  V  V69  1  0.61801343  0.49733503  0.61869919  1
  V  V70  1  0.87609815  0.50555999  0.86790662  1
  V  V71  1  0.87453585  0.37421605  0.00370198  1
  V  V72  1  0.49825764  -0.00296683  -0.01717110  1
  V  V73  1  -0.00980024  -0.01369051  0.49635416  1
  V  V74  1  -0.00130362  0.63103926  0.12929528  1
  V  V75  1  0.00208872  0.37613647  0.87629062  1
  V  V76  1  -0.01262925  0.87969161  0.87343277  1
  V  V77  1  0.50330721  0.11122660  0.12705924  1
  V  V78  1  0.24540031  -0.00266979  0.25277002  1
  V  V79  1  0.61876162  0.61437027  -0.00348574  1
  V  V80  1  0.86685857  0.76298641  0.62339452  1
  V  V81  1  0.00134016  0.24816658  0.75114600  1
  V  V82  1  0.74617148  0.61660914  0.37128027  1
  V  V83  1  0.49728514  0.74922759  0.25065731  1
  V  V84  1  0.25461205  0.12351559  0.87770968  1
  Zn  Zn85  1  0.74941297  0.24400885  0.50047659  1
  Zn  Zn86  1  0.37354624  0.73594366  0.62172170  1
  Zn  Zn87  1  0.88354710  -0.02865410  0.35965249  1
  Zn  Zn88  1  0.75636522  0.00753469  0.24339040  1
  Zn  Zn89  1  0.74586000  0.74988496  -0.00138386  1
  Zn  Zn90  1  0.10268014  0.69636178  0.46427934  1
  Zn  Zn91  1  0.75493673  0.12007833  0.88062872  1
  Zn  Zn92  1  0.12393204  0.62760329  0.00098789  1
  Zn  Zn93  1  0.25058843  0.12423688  0.37575103  1
  Zn  Zn94  1  0.11810374  -0.00055097  0.12989959  1
  Zn  Zn95  1  0.75560259  0.50651339  0.74263301  1
  Zn  Zn96  1  0.37675798  0.51033847  0.37784611  1
  Zn  Zn97  1  0.38418686  0.51071642  0.87715157  1
  Zn  Zn98  1  0.38291468  0.38414175  0.00663246  1
  Zn  Zn99  1  0.75961487  0.38123760  0.13567299  1
  Zn  Zn100  1  0.86726292  0.87746580  -0.00431757  1
  Zn  Zn101  1  0.62969158  0.50073208  0.12568629  1
  Zn  Zn102  1  0.12558123  0.50414572  0.12705252  1
  Zn  Zn103  1  0.38459314  0.37743893  0.50511538  1
  Zn  Zn104  1  0.01048044  0.49988340  0.48657050  1
  Zn  Zn105  1  0.75211573  0.24751232  0.00710318  1
  Zn  Zn106  1  0.49168738  0.61414842  0.62445867  1
  Zn  Zn107  1  0.18752819  0.18775881  0.19015928  1
  Zn  Zn108  1  0.19033485  0.18618789  0.68936040  1
  Zn  Zn109  1  0.18338873  0.68947456  0.18722041  1
  Zn  Zn110  1  0.17321318  0.69858788  0.65420343  1
  Zn  Zn111  1  0.69200101  0.19090240  0.19186758  1
  Zn  Zn112  1  0.69084563  0.18538473  0.68764752  1
  Zn  Zn113  1  0.68265258  0.69088971  0.18304589  1
  Zn  Zn114  1  0.68415866  0.68582657  0.68521314  1
  Zn  Zn115  1  0.31349051  0.31137289  0.31167954  1
  Zn  Zn116  1  0.31759100  0.31169728  0.81300623  1
  Zn  Zn117  1  0.30991103  0.81080667  0.31269579  1
  Zn  Zn118  1  0.31148131  0.81233781  0.80777336  1
  Zn  Zn119  1  0.81534577  0.30881647  0.31571091  1
  Zn  Zn120  1  0.81416080  0.31296337  0.81253747  1
  Zn  Zn121  1  0.80477034  0.80605654  0.30458266  1
  Zn  Zn122  1  0.80641070  0.81004548  0.80709938  1
  Zn  Zn123  1  0.19632698  0.43915298  0.43824345  1
  Zn  Zn124  1  0.19448022  0.44090649  0.94107664  1
  Zn  Zn125  1  0.18694788  0.93274021  0.43839892  1
  Zn  Zn126  1  0.18344917  0.93708748  0.93684636  1
  Zn  Zn127  1  0.68906363  0.43531477  0.43693896  1
  Zn  Zn128  1  0.69209310  0.43843047  0.94051997  1
  Zn  Zn129  1  0.69101342  0.93748435  0.43337640  1
  Zn  Zn130  1  0.68190230  0.93794256  0.93592384  1
  Zn  Zn131  1  0.31446617  0.05967744  0.06448165  1
  Zn  Zn132  1  0.31670143  0.06075717  0.56474344  1
  Zn  Zn133  1  0.31269443  0.56216760  0.05720665  1
  Zn  Zn134  1  0.31900458  0.55963355  0.55835606  1
  Zn  Zn135  1  0.81353987  0.05976468  0.06485681  1
  Zn  Zn136  1  0.81140192  0.06493704  0.56085514  1
  Zn  Zn137  1  0.80733469  0.56035129  0.05657322  1
  Zn  Zn138  1  0.80902347  0.56316324  0.55241974  1
  Zn  Zn139  1  0.43703672  0.43695808  0.19453020  1
  Zn  Zn140  1  0.43709108  0.43530556  0.69385401  1
  Zn  Zn141  1  0.43393120  0.93085465  0.18612389  1
  Zn  Zn142  1  0.44132320  0.93559298  0.68749102  1
  Zn  Zn143  1  0.94001913  0.43906761  0.18809888  1
  Zn  Zn144  1  0.93799205  0.43437168  0.68832925  1
  Zn  Zn145  1  0.93347276  0.93787413  0.18586147  1
  Zn  Zn146  1  0.93628824  0.93796600  0.68781647  1
  Zn  Zn147  1  0.06363560  0.05919624  0.31756220  1
  Zn  Zn148  1  0.06402827  0.06299887  0.81788216  1
  Zn  Zn149  1  0.03297560  0.62777830  0.33515391  1
  Zn  Zn150  1  0.06704968  0.56279120  0.80855075  1
  Zn  Zn151  1  0.56309851  0.05994569  0.31407036  1
  Zn  Zn152  1  0.56970131  0.06283201  0.81221392  1
  Zn  Zn153  1  0.55932089  0.56585027  0.30774130  1
  Zn  Zn154  1  0.56957073  0.56184869  0.80763297  1
  Zn  Zn155  1  0.43957220  0.18427878  0.43697622  1
  Zn  Zn156  1  0.44145689  0.19045243  0.93985278  1
  Zn  Zn157  1  0.43414971  0.68605015  0.43358552  1
  Zn  Zn158  1  0.43888113  0.69269476  0.93805153  1
  Zn  Zn159  1  0.94173998  0.18930116  0.43902891  1
  Zn  Zn160  1  0.93974602  0.18729249  0.94025026  1
  Zn  Zn161  1  0.93994094  0.79258321  0.42555418  1
  Zn  Zn162  1  0.93339309  0.68863851  0.94206685  1
  Zn  Zn163  1  0.06247723  0.31263780  0.06721833  1
  Zn  Zn164  1  0.06312164  0.31556840  0.56303549  1
  Zn  Zn165  1  0.06036569  0.81533811  0.06159172  1
  Zn  Zn166  1  0.05534671  0.81681201  0.57591402  1
  Zn  Zn167  1  0.56594148  0.30907565  0.06614550  1
  Zn  Zn168  1  0.56510645  0.31087263  0.56005212  1
  Zn  Zn169  1  0.55906459  0.81143264  0.05991770  1
  Zn  Zn170  1  0.56320990  0.81371803  0.56227972  1
  O  O171  1  0.13054279  0.12289458  0.11226239  1
  O  O172  1  0.12134914  0.11648483  0.62306559  1
  O  O173  1  0.11351567  0.62525445  0.12156824  1
  O  O174  1  0.10816009  0.60717207  0.64195279  1
  O  O175  1  0.61826124  0.13173114  0.11555292  1
  O  O176  1  0.61481423  0.11756640  0.63028987  1
  O  O177  1  0.61477205  0.62494235  0.11384550  1
  O  O178  1  0.62278216  0.61385387  0.61522390  1
  O  O179  1  0.39431233  0.36599732  0.37261098  1
  O  O180  1  0.39669148  0.36726815  0.87596971  1
  O  O181  1  0.36848944  0.88605865  0.38321814  1
  O  O182  1  0.36659399  0.87288209  0.88907899  1
  O  O183  1  0.86960194  0.38641582  0.38166083  1
  O  O184  1  0.88421869  0.37889831  0.88199864  1
  O  O185  1  0.86791769  0.86067832  0.37775605  1
  O  O186  1  0.88415062  0.86814774  0.87403223  1
  O  O187  1  0.25607872  0.00188552  0.36775361  1
  O  O188  1  0.24424446  0.00655414  0.86349688  1
  O  O189  1  0.24774422  0.50617573  0.36165186  1
  O  O190  1  0.24459213  0.51302555  0.86594210  1
  O  O191  1  0.75855722  0.01090998  0.37708862  1
  O  O192  1  0.74436720  0.00212176  0.86101041  1
  O  O193  1  0.75532030  0.51179250  0.37959864  1
  O  O194  1  0.75988563  0.50656137  0.87399359  1
  O  O195  1  0.25003444  0.49345358  0.13412923  1
  O  O196  1  0.24207887  0.49413933  0.63386647  1
  O  O197  1  0.24973643  0.99168828  0.13507494  1
  O  O198  1  0.24412664  0.99821611  0.63595831  1
  O  O199  1  0.74323658  0.49118623  0.11507407  1
  O  O200  1  0.74428027  0.49163289  0.62332514  1
  O  O201  1  0.74880747  0.98536882  0.12394221  1
  O  O202  1  0.73877639  1.00850343  0.63237480  1
  O  O203  1  0.01528150  0.37030169  0.24690820  1
  O  O204  1  0.00842268  0.36843133  0.75668543  1
  O  O205  1  0.01557743  0.87951385  0.24299215  1
  O  O206  1  0.00276014  0.86920391  0.75611874  1
  O  O207  1  0.50864530  0.36671389  0.25939496  1
  O  O208  1  0.50971956  0.36537254  0.75843850  1
  O  O209  1  0.50905923  0.86230379  0.23995358  1
  O  O210  1  0.51279137  0.86722589  0.74755038  1
  O  O211  1  0.49743671  0.12782961  0.24363409  1
  O  O212  1  0.49693536  0.12797846  0.74548639  1
  O  O213  1  0.50388143  0.63981504  0.23806522  1
  O  O214  1  0.50839602  0.63855879  0.74663774  1
  O  O215  1  1.00912564  0.13703751  0.24940479  1
  O  O216  1  0.99464520  0.12680495  0.74577925  1
  O  O217  1  0.98251910  0.62358761  0.23256762  1
  O  O218  1  0.99694679  0.63408964  0.74733962  1
  O  O219  1  0.37073456  0.25254968  0.00935887  1
  O  O220  1  0.36835647  0.24963314  0.50607324  1
  O  O221  1  0.36891783  0.76007300  0.00603614  1
  O  O222  1  0.38508546  0.76575229  0.50324244  1
  O  O223  1  0.87993289  0.25611175  0.01177299  1
  O  O224  1  0.87632170  0.25864507  0.50624436  1
  O  O225  1  0.86742682  0.75387730  0.00972598  1
  O  O226  1  0.86632974  0.74614984  0.51510943  1
  O  O227  1  0.12910855  0.24653283  0.49352616  1
  O  O228  1  0.12960633  0.24247042  0.99803103  1
  O  O229  1  0.14018750  0.74985264  0.55243697  1
  O  O230  1  0.13032273  0.75298573  0.98784235  1
  O  O231  1  0.62953473  0.25436938  0.48376719  1
  O  O232  1  0.62878782  0.24120768  0.99521340  1
  O  O233  1  0.62719000  0.74301689  0.49211733  1
  O  O234  1  0.62177764  0.74349330  0.98868853  1
  O  O235  1  0.49504270  0.24034711  0.13090754  1
  O  O236  1  0.49960384  0.24151077  0.62857510  1
  O  O237  1  0.49054724  0.74365224  0.12811226  1
  O  O238  1  0.50127826  0.74860913  0.63753082  1
  O  O239  1  0.99267235  0.25130581  0.13803492  1
  O  O240  1  0.99740502  0.24418624  0.63238810  1
  O  O241  1  0.98760498  0.74288743  0.11509800  1
  O  O242  1  0.98361947  0.73746448  0.63245767  1
  O  O243  1  0.00857526  0.24899026  0.36287334  1
  O  O244  1  0.00770964  0.25518324  0.87060696  1
  O  O245  1  0.01793467  0.72393244  0.39357178  1
  O  O246  1  0.00241280  0.75395959  0.86892325  1
  O  O247  1  0.51073914  0.25223460  0.37055428  1
  O  O248  1  0.51436312  0.25520440  0.87204466  1
  O  O249  1  0.50974373  0.74473806  0.36498206  1
  O  O250  1  0.50990290  0.74618339  0.86217890  1
  O  O251  1  0.24446634  0.13455344  0.50408671  1
  O  O252  1  0.24619618  0.12846022  0.99623787  1
  O  O253  1  0.24842001  0.62942044  0.49550355  1
  O  O254  1  0.24428395  0.63488121  0.98923124  1
  O  O255  1  0.75460891  0.12751903  0.48304530  1
  O  O256  1  0.74226439  0.12485001  0.99988347  1
  O  O257  1  0.73867197  0.63258714  0.48944765  1
  O  O258  1  0.73774604  0.62735608  0.98714184  1
  O  O259  1  0.24820580  0.36804415  0.01498495  1
  O  O260  1  0.24693857  0.35899129  0.50947651  1
  O  O261  1  0.25406692  0.87301672  0.00618219  1
  O  O262  1  0.25988393  0.88418623  0.51305067  1
  O  O263  1  0.76691757  0.36948136  -0.00357420  1
  O  O264  1  0.76000666  0.37217244  0.50901992  1
  O  O265  1  0.74625792  0.87507473  0.00805841  1
  O  O266  1  0.74082191  0.85711005  0.49891596  1
  O  O267  1  0.14118497  0.48865528  0.24640199  1
  O  O268  1  0.13302073  0.48916753  0.74571624  1
  O  O269  1  0.13414589  0.99622048  0.24942743  1
  O  O270  1  0.13184374  0.99989907  0.74386240  1
  O  O271  1  0.62141753  0.48442841  0.25108735  1
  O  O272  1  0.63259708  0.49073960  0.74017450  1
  O  O273  1  0.62689206  0.98604552  0.25472119  1
  O  O274  1  0.63095502  0.99331797  0.74265036  1
  O  O275  1  0.36796044  -0.00074499  0.25722352  1
  O  O276  1  0.36833508  0.00803450  0.74632467  1
  O  O277  1  0.35654756  0.49226301  0.25599746  1
  O  O278  1  0.36171841  0.49362137  0.75922989  1
  O  O279  1  0.87049494  0.00015403  0.25104657  1
  O  O280  1  0.86512372  0.00802414  0.74312144  1
  O  O281  1  0.87274491  0.50740208  0.25233978  1
  O  O282  1  0.87443109  0.49290166  0.76433406  1
  O  O283  1  0.13338955  0.36321765  0.36812388  1
  O  O284  1  0.12284545  0.36964443  0.87263092  1
  O  O285  1  0.12476773  0.87615717  0.36372082  1
  O  O286  1  0.11641426  0.86467187  0.86992152  1
  O  O287  1  0.61756113  0.36822615  0.36787717  1
  O  O288  1  0.62061504  0.36890425  0.87298736  1
  O  O289  1  0.62960635  0.86417511  0.36446466  1
  O  O290  1  0.62692862  0.86349685  0.86610421  1
  O  O291  1  0.38323207  0.12847433  0.13159798  1
  O  O292  1  0.38655570  0.12730276  0.63566279  1
  O  O293  1  0.37955704  0.63771390  0.11736238  1
  O  O294  1  0.37898379  0.62301381  0.62591353  1
  O  O295  1  0.87479022  0.13925895  0.12152934  1
  O  O296  1  0.88007862  0.13113679  0.63386046  1
  O  O297  1  0.87506048  0.62955199  0.12418575  1
  O  O298  1  0.88368105  0.62013243  0.62467561  1
  O  O299  1  0.25741277  0.25537228  0.12278645  1
  O  O300  1  0.25643323  0.25207997  0.62025130  1
  O  O301  1  0.25550104  0.75534295  0.11928226  1
  O  O302  1  0.26310396  0.76923875  0.64984704  1
  O  O303  1  0.76623507  0.25680797  0.12852475  1
  O  O304  1  0.75625908  0.25642352  0.62214860  1
  O  O305  1  0.75202185  0.76112487  0.11945603  1
  O  O306  1  0.76091927  0.74094003  0.61779954  1
  O  O307  1  0.24533184  0.24681407  0.38384705  1
  O  O308  1  0.24770670  0.24569098  0.88300620  1
  O  O309  1  0.25029318  0.74223887  0.38000334  1
  O  O310  1  0.23989457  0.74593897  0.87302037  1
  O  O311  1  0.74100707  0.23998088  0.37504835  1
  O  O312  1  0.73984486  0.24870194  0.87653516  1
  O  O313  1  0.73728897  0.73739131  0.37895003  1
  O  O314  1  0.73920055  0.74339946  0.87500109  1
  O  O315  1  0.00926524  0.11068636  -0.00892480  1
  O  O316  1  0.00691380  0.11960739  0.50881509  1
  O  O317  1  -0.00033608  0.61742762  0.00735134  1
  O  O318  1  0.00645814  0.61787894  0.52009883  1
  O  O319  1  0.50413397  0.11463264  0.00669275  1
  O  O320  1  0.49455626  0.11255537  0.51092000  1
  O  O321  1  0.50626617  0.63025477  0.00801013  1
  O  O322  1  0.51172437  0.62724270  0.49924397  1
  O  O323  1  0.50283692  0.37042309  0.48339527  1
  O  O324  1  0.50484399  0.37041916  0.98722947  1
  O  O325  1  0.49173015  0.88895049  0.50650796  1
  O  O326  1  0.49226727  0.88989422  1.00391857  1
  O  O327  1  0.98755411  0.37986655  0.50447370  1
  O  O328  1  0.99411856  0.38109254  0.99640580  1
  O  O329  1  0.99909847  0.88336896  0.50294464  1
  O  O330  1  0.99740308  0.88558331  0.99010359  1
  O  O331  1  0.49700647  0.48617068  0.36722324  1
  O  O332  1  0.50298794  0.48433971  0.86582472  1
  O  O333  1  0.49142365  1.00260654  0.38447568  1
  O  O334  1  0.49869425  1.00396379  0.88446338  1
  O  O335  1  0.98587094  0.51869229  0.37256825  1
  O  O336  1  0.99620761  0.49737476  0.87990914  1
  O  O337  1  0.99708390  1.00304762  0.39270902  1
  O  O338  1  1.00618133  0.98850810  0.88390015  1
  O  O339  1  0.00195407  -0.00633555  0.10592121  1
  O  O340  1  0.00843513  0.00268843  0.61853552  1
  O  O341  1  0.00096287  0.50825747  0.11564170  1
  O  O342  1  0.00401868  0.50637106  0.62906647  1
  O  O343  1  0.49577446  0.00971861  0.12357364  1
  O  O344  1  0.51054446  0.00623515  0.61972307  1
  O  O345  1  0.49971463  0.51347451  0.13333943  1
  O  O346  1  0.51379228  0.49355087  0.63029262  1
  O  O347  1  0.24335276  0.37123112  0.24036623  1
  O  O348  1  0.24622545  0.37761398  0.74674255  1
  O  O349  1  0.24317254  0.88138804  0.24358767  1
  O  O350  1  0.24305414  0.88609217  0.74799142  1
  O  O351  1  0.73536243  0.36996889  0.25555796  1
  O  O352  1  0.74736335  0.37411053  0.73705816  1
  O  O353  1  0.73765635  0.87357625  0.23574441  1
  O  O354  1  0.73768111  0.88264073  0.74946392  1
  O  O355  1  0.25615888  0.11436199  0.24998803  1
  O  O356  1  0.26072397  0.11952689  0.75564088  1
  O  O357  1  0.24907594  0.61534129  0.24718798  1
  O  O358  1  0.24092120  0.61565426  0.75503678  1
  O  O359  1  0.73982460  0.12243615  0.26991038  1
  O  O360  1  0.75852850  0.11726933  0.75321094  1
  O  O361  1  0.74959422  0.62594637  0.25367392  1
  O  O362  1  0.74230271  0.62308561  0.76387543  1
  O  O363  1  0.37361361  0.11345353  0.36885919  1
  O  O364  1  0.37309630  0.13160339  0.86438699  1
  O  O365  1  0.35738585  0.62559990  0.37596864  1
  O  O366  1  0.36131971  0.63174560  0.87445387  1
  O  O367  1  0.86866045  0.13005922  0.37213931  1
  O  O368  1  0.87532385  0.13195827  0.86144042  1
  O  O369  1  0.86029718  0.61833195  0.35648243  1
  O  O370  1  0.86545083  0.61655557  0.88083895  1
  O  O371  1  0.13376979  0.37629585  0.13364539  1
  O  O372  1  0.13080677  0.37871162  0.63550893  1
  O  O373  1  0.13726186  0.87562073  0.12702856  1
  O  O374  1  0.13172680  0.89008757  0.63433923  1
  O  O375  1  0.62357895  0.37239255  0.14258008  1
  O  O376  1  0.63407908  0.37799081  0.62623213  1
  O  O377  1  0.63325018  0.86911100  0.12983717  1
  O  O378  1  0.62332290  0.88571011  0.63188961  1
  O  O379  1  0.11734850  0.25499063  0.25618777  1
  O  O380  1  0.12224216  0.25409629  0.75705604  1
  O  O381  1  0.12439441  0.76233208  0.24903457  1
  O  O382  1  0.11091646  0.75630448  0.75245710  1
  O  O383  1  0.62010480  0.25678736  0.26099633  1
  O  O384  1  0.62296149  0.25337871  0.75792004  1
  O  O385  1  0.61773838  0.75723043  0.25621328  1
  O  O386  1  0.61923162  0.75677929  0.75342710  1
  O  O387  1  0.38207850  0.24093469  0.24539388  1
  O  O388  1  0.38405922  0.24071780  0.74476007  1
  O  O389  1  0.38280813  0.75982007  0.23796019  1
  O  O390  1  0.39376951  0.75797105  0.75071358  1
  O  O391  1  0.89084018  0.25480596  0.24357918  1
  O  O392  1  0.88198928  0.24432622  0.74370187  1
  O  O393  1  0.86472682  0.73565363  0.23162258  1
  O  O394  1  0.87807025  0.75070811  0.73773859  1
  O  O395  1  0.35743481  0.48420894  0.48725130  1
  O  O396  1  0.36570385  0.49395738  0.98747020  1
  O  O397  1  0.38175422  0.99485605  0.49329851  1
  O  O398  1  0.38780579  0.99497480  1.00248053  1
  O  O399  1  0.87780061  0.49427795  0.48813279  1
  O  O400  1  0.88645165  0.49252737  0.99063286  1
  O  O401  1  0.89040661  1.00034750  0.50612833  1
  O  O402  1  0.88717303  1.00003588  0.99679443  1
  O  O403  1  0.11784136  0.00704171  0.00171799  1
  O  O404  1  0.11864563  0.00342661  0.50829054  1
  O  O405  1  0.11280596  0.50088783  0.00051039  1
  O  O406  1  0.12460863  0.48756441  0.51573896  1
  O  O407  1  0.60995704  0.00713722  -0.00268189  1
  O  O408  1  0.61868982  -0.00583978  0.50635085  1
  O  O409  1  0.62152698  0.51102220  -0.00338784  1
  O  O410  1  0.62959245  0.50689622  0.50675775  1
  O  O411  1  0.37049178  0.36731489  0.12706033  1
  O  O412  1  0.37072040  0.36478353  0.62699878  1
  O  O413  1  0.36247012  0.86798350  0.11663766  1
  O  O414  1  0.36707946  0.88074526  0.61669384  1
  O  O415  1  0.87953120  0.36787264  0.11744947  1
  O  O416  1  0.86914245  0.37072687  0.61936594  1
  O  O417  1  0.86165433  0.86800406  0.12148004  1
  O  O418  1  0.87507786  0.86155489  0.62576026  1
  O  O419  1  0.12844564  0.13578614  0.38213029  1
  O  O420  1  0.13397544  0.13181536  0.88449828  1
  O  O421  1  0.14318488  0.62435111  0.37965986  1
  O  O422  1  0.12849866  0.63799280  0.87389100  1
  O  O423  1  0.62223386  0.13646817  0.37745270  1
  O  O424  1  0.62640270  0.13241064  0.88709882  1
  O  O425  1  0.62737962  0.62881751  0.37851497  1
  O  O426  1  0.62857157  0.63122403  0.88020070  1
