# generated using pymatgen
data_V85Zn86O256
_symmetry_space_group_name_H-M   'P 1'
_cell_length_a   16.92501038
_cell_length_b   16.92157986
_cell_length_c   16.91849891
_cell_angle_alpha   90.05718824
_cell_angle_beta   89.99797221
_cell_angle_gamma   90.00888880
_symmetry_Int_Tables_number   1
_chemical_formula_structural   V85Zn86O256
_chemical_formula_sum   'V85 Zn86 O256'
_cell_volume   4845.42033396
_cell_formula_units_Z   1
loop_
 _symmetry_equiv_pos_site_id
 _symmetry_equiv_pos_as_xyz
  1  'x, y, z'
loop_
 _atom_site_type_symbol
 _atom_site_label
 _atom_site_symmetry_multiplicity
 _atom_site_fract_x
 _atom_site_fract_y
 _atom_site_fract_z
 _atom_site_occupancy
  V  V0  1  0.87115222  0.50035459  0.37539587  1
  V  V1  1  0.87678752  0.12411832  0.75091633  1
  V  V2  1  0.86781451  0.50184591  0.87468792  1
  V  V3  1  0.62587121  0.25043412  0.37498484  1
  V  V4  1  0.75022713  0.24880240  0.50228896  1
  V  V5  1  0.49946761  0.00855473  0.00218982  1
  V  V6  1  0.24568899  0.63014064  0.87216027  1
  V  V7  1  0.37752167  0.13538415  0.75163741  1
  V  V8  1  0.14040044  0.62790186  0.49469593  1
  V  V9  1  0.49638090  0.61800178  0.12164125  1
  V  V10  1  0.12734197  0.38328066  0.25058984  1
  V  V11  1  0.25251146  0.00427865  0.74976954  1
  V  V12  1  0.62448536  -0.00092813  0.62446270  1
  V  V13  1  -0.00254579  0.37802290  0.37588492  1
  V  V14  1  0.87188814  0.25333703  0.62735166  1
  V  V15  1  0.25348270  0.49781696  0.75248460  1
  V  V16  1  0.00788299  0.74785086  0.75823777  1
  V  V17  1  0.87482275  0.74825233  0.12538033  1
  V  V18  1  0.74893147  0.74276373  -0.00284668  1
  V  V19  1  0.25698060  0.37800699  0.12786495  1
  V  V20  1  0.36023831  0.62245705  0.25370944  1
  V  V21  1  -0.00001270  0.62494652  0.12601838  1
  V  V22  1  0.49901025  0.74636906  0.74077701  1
  V  V23  1  0.00188954  0.24946274  0.75210546  1
  V  V24  1  0.01054921  0.00213779  0.00345259  1
  V  V25  1  0.62760159  0.50983282  0.61705889  1
  V  V26  1  0.62148876  0.00222912  0.12625738  1
  V  V27  1  0.37411025  0.87594207  -0.00022775  1
  V  V28  1  0.13290377  0.23848169  0.87464538  1
  V  V29  1  0.62832025  0.13065275  0.00219282  1
  V  V30  1  0.88183823  0.86685027  0.49370780  1
  V  V31  1  0.37330184  0.74910812  0.12384151  1
  V  V32  1  0.37430151  0.25228144  0.60732932  1
  V  V33  1  0.74813700  0.49214083  0.24584141  1
  V  V34  1  0.62526426  0.49325233  0.12179255  1
  V  V35  1  0.13107816  0.25264631  0.38312140  1
  V  V36  1  -0.00018744  0.49578308  -0.00012900  1
  V  V37  1  0.62248540  0.87407021  0.25950318  1
  V  V38  1  0.87000983  0.37651603  0.50604431  1
  V  V39  1  0.85954746  0.25393958  0.12218001  1
  V  V40  1  -0.00469971  0.63181360  0.62257683  1
  V  V41  1  0.49950492  0.75049589  0.25209877  1
  V  V42  1  0.87553436  0.87706337  -0.00316447  1
  V  V43  1  0.50043020  -0.00431634  0.49375914  1
  V  V44  1  0.37250844  0.00785942  0.87358785  1
  V  V45  1  0.62273077  0.74072174  0.38274744  1
  V  V46  1  0.37861600  0.62395303  0.74354136  1
  V  V47  1  0.13065961  0.50138135  0.12721974  1
  V  V48  1  0.00123447  0.37384181  0.87859314  1
  V  V49  1  0.37593651  0.86869166  0.49091930  1
  V  V50  1  0.00237638  0.12320886  0.62163195  1
  V  V51  1  0.49691501  0.37569432  0.38196364  1
  V  V52  1  -0.00226102  0.50509192  0.50226822  1
  V  V53  1  0.62485907  0.87398659  0.75069156  1
  V  V54  1  0.61912110  0.61923051  -0.00341759  1
  V  V55  1  0.36295189  0.49967937  0.37461577  1
  V  V56  1  0.25497604  0.86774976  0.62142666  1
  V  V57  1  0.74669668  0.87399452  0.12450703  1
  V  V58  1  0.49743999  0.24011166  0.24973598  1
  V  V59  1  0.87087956  0.62371849  0.25156681  1
  V  V60  1  0.37832687  0.23643235  0.13062855  1
  V  V61  1  0.14039412  0.75681260  0.37811888  1
  V  V62  1  0.12813823  0.37519496  0.75210682  1
  V  V63  1  0.75142110  0.13321183  0.87911802  1
  V  V64  1  0.25544053  0.24757270  -0.00250931  1
  V  V65  1  0.50062877  0.12853584  0.62776598  1
  V  V66  1  0.24087464  0.88274983  0.13251334  1
  V  V67  1  0.49692319  0.51336950  0.50210470  1
  V  V68  1  0.25295731  0.37071896  0.61580838  1
  V  V69  1  0.86792483  0.62999581  0.74961405  1
  V  V70  1  0.49932570  0.87478963  0.87504526  1
  V  V71  1  0.87317522  0.12490811  0.25211274  1
  V  V72  1  0.74731609  0.49284083  0.74734057  1
  V  V73  1  0.12442366  0.62606286  -0.00291465  1
  V  V74  1  0.75827046  0.86551174  0.62592830  1
  V  V75  1  0.62574395  0.74408278  0.87479181  1
  V  V76  1  0.61668715  0.36715842  0.73908371  1
  V  V77  1  0.37388238  0.00461814  0.36489776  1
  V  V78  1  -0.00061745  0.25390614  0.24526574  1
  V  V79  1  -0.00272645  0.75569299  0.26360937  1
  V  V80  1  0.12803629  -0.00251370  0.62301982  1
  V  V81  1  0.50073226  0.37495500  0.88187852  1
  V  V82  1  0.24217619  0.75482550  -0.00456968  1
  V  V83  1  0.85882982  0.37182145  0.00143640  1
  V  V84  1  0.75208860  -0.00039226  0.75182079  1
  Zn  Zn85  1  0.75027689  -0.00064217  0.25252923  1
  Zn  Zn86  1  0.00278723  -0.00856054  0.49553667  1
  Zn  Zn87  1  0.62474982  0.37257197  0.24589565  1
  Zn  Zn88  1  0.12646236  0.50213669  0.62458881  1
  Zn  Zn89  1  0.11351751  0.88939902  0.25823050  1
  Zn  Zn90  1  0.74123783  0.61825823  0.38440314  1
  Zn  Zn91  1  0.74962432  0.12067498  0.37603676  1
  Zn  Zn92  1  0.38590158  0.50405226  0.88073574  1
  Zn  Zn93  1  0.74811192  0.74037246  0.50789683  1
  Zn  Zn94  1  0.87712141  -0.00608147  0.37370821  1
  Zn  Zn95  1  0.62274934  0.24947743  0.87186204  1
  Zn  Zn96  1  0.00783540  0.11853366  0.13062906  1
  Zn  Zn97  1  0.13284377  0.86858643  0.75323025  1
  Zn  Zn98  1  0.23695383  0.02221859  0.24386044  1
  Zn  Zn99  1  0.37559946  0.74355479  0.61544102  1
  Zn  Zn100  1  0.13443972  0.12186180  0.00727125  1
  Zn  Zn101  1  0.62774269  0.12281255  0.50091836  1
  Zn  Zn102  1  0.01175572  0.87106125  0.87870054  1
  Zn  Zn103  1  0.26253625  0.13872368  0.37539315  1
  Zn  Zn104  1  0.13489362  0.12812638  0.50099245  1
  Zn  Zn105  1  0.38347652  0.38408431  0.00720904  1
  Zn  Zn106  1  0.87831919  -0.00051709  0.87654901  1
  Zn  Zn107  1  0.18721308  0.18846949  0.19226938  1
  Zn  Zn108  1  0.19246913  0.18630654  0.68514433  1
  Zn  Zn109  1  0.18355653  0.69554658  0.18732416  1
  Zn  Zn110  1  0.18739152  0.68404324  0.68202855  1
  Zn  Zn111  1  0.68464120  0.18462288  0.18980769  1
  Zn  Zn112  1  0.68975535  0.18616451  0.68618918  1
  Zn  Zn113  1  0.68585672  0.68270107  0.18816564  1
  Zn  Zn114  1  0.68634397  0.68169135  0.69051179  1
  Zn  Zn115  1  0.31313879  0.31770956  0.30947102  1
  Zn  Zn116  1  0.31694123  0.31348386  0.81241536  1
  Zn  Zn117  1  0.31549617  0.81524038  0.31190931  1
  Zn  Zn118  1  0.31298738  0.81380367  0.81117390  1
  Zn  Zn119  1  0.81071008  0.31228506  0.31345019  1
  Zn  Zn120  1  0.80919135  0.31580373  0.81198018  1
  Zn  Zn121  1  0.80631599  0.81036220  0.31444473  1
  Zn  Zn122  1  0.81319631  0.80921807  0.81428366  1
  Zn  Zn123  1  0.18401911  0.44007671  0.43857230  1
  Zn  Zn124  1  0.19402685  0.43608748  0.93948258  1
  Zn  Zn125  1  0.19267810  0.94052040  0.43717669  1
  Zn  Zn126  1  0.18797092  0.93653746  0.93258101  1
  Zn  Zn127  1  0.68655833  0.43501771  0.43910987  1
  Zn  Zn128  1  0.68227472  0.43844214  0.93063991  1
  Zn  Zn129  1  0.69341902  0.93597600  0.43836920  1
  Zn  Zn130  1  0.68793748  0.93807710  0.93750079  1
  Zn  Zn131  1  0.31249631  0.06390890  0.06275465  1
  Zn  Zn132  1  0.31186775  0.06328790  0.55519900  1
  Zn  Zn133  1  0.31264487  0.56275346  0.06024223  1
  Zn  Zn134  1  0.31523307  0.55541315  0.56384679  1
  Zn  Zn135  1  0.81399995  0.06292167  0.06629705  1
  Zn  Zn136  1  0.81510907  0.05852916  0.56215084  1
  Zn  Zn137  1  0.80865112  0.56096455  0.06155357  1
  Zn  Zn138  1  0.80855886  0.56471824  0.56555676  1
  Zn  Zn139  1  0.44048448  0.43636870  0.19625840  1
  Zn  Zn140  1  0.43969220  0.43548551  0.68509653  1
  Zn  Zn141  1  0.43915507  0.93431036  0.18391721  1
  Zn  Zn142  1  0.43674892  0.93736568  0.68425310  1
  Zn  Zn143  1  0.93576411  0.43544499  0.18363509  1
  Zn  Zn144  1  0.94027522  0.44040403  0.68798354  1
  Zn  Zn145  1  0.93709142  0.93779192  0.18462814  1
  Zn  Zn146  1  0.93920703  0.93476074  0.68647256  1
  Zn  Zn147  1  0.05920934  0.06268071  0.31603736  1
  Zn  Zn148  1  0.06331263  0.05637870  0.81453290  1
  Zn  Zn149  1  0.06190555  0.56751488  0.31547422  1
  Zn  Zn150  1  0.06189506  0.56169599  0.81221006  1
  Zn  Zn151  1  0.56215448  0.06304226  0.31511561  1
  Zn  Zn152  1  0.56180495  0.06390184  0.81335014  1
  Zn  Zn153  1  0.55611337  0.56139693  0.30846820  1
  Zn  Zn154  1  0.56315442  0.55970068  0.80905386  1
  Zn  Zn155  1  0.44331897  0.18309849  0.43895724  1
  Zn  Zn156  1  0.44074542  0.19458426  0.93708392  1
  Zn  Zn157  1  0.43780191  0.68609997  0.43186815  1
  Zn  Zn158  1  0.43439348  0.68624810  0.93401309  1
  Zn  Zn159  1  0.94248147  0.18595852  0.43477103  1
  Zn  Zn160  1  0.93793524  0.18720022  0.94015994  1
  Zn  Zn161  1  0.93042829  0.68901083  0.43958921  1
  Zn  Zn162  1  0.93545722  0.68361585  0.93569416  1
  Zn  Zn163  1  0.06571173  0.30462110  0.06448552  1
  Zn  Zn164  1  0.05866196  0.31668607  0.56590120  1
  Zn  Zn165  1  0.06096846  0.81281854  0.06438904  1
  Zn  Zn166  1  0.06489292  0.80749329  0.56630484  1
  Zn  Zn167  1  0.56052627  0.31000846  0.06259129  1
  Zn  Zn168  1  0.55948353  0.31426016  0.56188339  1
  Zn  Zn169  1  0.56001019  0.81246659  0.06395276  1
  Zn  Zn170  1  0.56161528  0.81588258  0.56246584  1
  O  O171  1  0.11421331  0.15651418  0.11482700  1
  O  O172  1  0.11953811  0.11848408  0.62410854  1
  O  O173  1  0.12080345  0.61867359  0.12091818  1
  O  O174  1  0.11768248  0.62560442  0.61005686  1
  O  O175  1  0.63072462  0.11034256  0.11806081  1
  O  O176  1  0.61816940  0.11857765  0.62500670  1
  O  O177  1  0.61556617  0.61887424  0.11677455  1
  O  O178  1  0.62033903  0.60826520  0.63024592  1
  O  O179  1  0.38212762  0.39003928  0.36911273  1
  O  O180  1  0.39118325  0.37587707  0.87280291  1
  O  O181  1  0.37600337  0.88180188  0.38550185  1
  O  O182  1  0.37973255  0.88357743  0.88083836  1
  O  O183  1  0.87876952  0.38016300  0.38390340  1
  O  O184  1  0.88037584  0.38129691  0.88062180  1
  O  O185  1  0.87046153  0.87081124  0.38977475  1
  O  O186  1  0.87582661  0.87286946  0.88851197  1
  O  O187  1  0.26737496  -0.00296443  0.36860257  1
  O  O188  1  0.26462318  -0.00074991  0.86737140  1
  O  O189  1  0.26419975  0.49686422  0.37949787  1
  O  O190  1  0.25039825  0.50522678  0.86274773  1
  O  O191  1  0.75757588  0.00240714  0.37197732  1
  O  O192  1  0.75137854  0.00424057  0.86317312  1
  O  O193  1  0.75386122  0.49906198  0.36771406  1
  O  O194  1  0.75808833  0.49745970  0.86426788  1
  O  O195  1  0.23671658  0.49538534  0.12193461  1
  O  O196  1  0.24903618  0.49200023  0.63698133  1
  O  O197  1  0.25736838  0.98694033  0.12753438  1
  O  O198  1  0.24642963  0.99229056  0.62983642  1
  O  O199  1  0.73801631  0.50596014  0.13299887  1
  O  O200  1  0.73483356  0.49698093  0.62919110  1
  O  O201  1  0.74104571  0.99026651  0.12555622  1
  O  O202  1  0.74568227  0.99242064  0.63592704  1
  O  O203  1  0.00385905  0.37397986  0.25627942  1
  O  O204  1  0.00895753  0.36948644  0.75570419  1
  O  O205  1  -0.00174328  0.85940022  0.24325418  1
  O  O206  1  -0.00461850  0.85548662  0.74906789  1
  O  O207  1  0.50515443  0.36749414  0.26362395  1
  O  O208  1  0.51344879  0.37568621  0.75330837  1
  O  O209  1  0.50894186  0.85909494  0.23986237  1
  O  O210  1  0.50466667  0.86859903  0.75502827  1
  O  O211  1  0.50439556  0.14039492  0.25319067  1
  O  O212  1  0.49290925  0.11774738  0.73618866  1
  O  O213  1  0.49298818  0.63470265  0.24003793  1
  O  O214  1  0.49023884  0.63375897  0.75710880  1
  O  O215  1  0.99141544  0.13875593  0.24791347  1
  O  O216  1  0.99704798  0.12925115  0.74241363  1
  O  O217  1  0.99212165  0.63341768  0.24510926  1
  O  O218  1  0.99413627  0.63126798  0.74567893  1
  O  O219  1  0.37326860  0.25726716  0.01224032  1
  O  O220  1  0.37588956  0.24885663  0.50857575  1
  O  O221  1  0.36416955  0.75447333  0.00265901  1
  O  O222  1  0.38272006  0.76321557  0.49775142  1
  O  O223  1  0.87853358  0.25665961  0.01351166  1
  O  O224  1  0.87220236  0.25644694  0.50715126  1
  O  O225  1  0.86676535  0.75222029  0.00289340  1
  O  O226  1  0.86840469  0.76187876  0.50303454  1
  O  O227  1  0.11681812  0.25818249  0.48550746  1
  O  O228  1  0.13594905  0.25606784  0.98717521  1
  O  O229  1  0.12204133  0.74011308  0.48855359  1
  O  O230  1  0.13509895  0.74375130  1.00495091  1
  O  O231  1  0.63493946  0.25051462  0.49657486  1
  O  O232  1  0.62218498  0.23373401  1.00226258  1
  O  O233  1  0.62192078  0.75654997  0.48500034  1
  O  O234  1  0.62925581  0.74300070  0.99457369  1
  O  O235  1  0.48634848  0.25714346  0.13365956  1
  O  O236  1  0.48780087  0.24203544  0.62032217  1
  O  O237  1  0.49312591  0.74005038  0.12841961  1
  O  O238  1  0.50014933  0.75280414  0.63762309  1
  O  O239  1  0.98835487  0.26058454  0.13887105  1
  O  O240  1  0.99255432  0.24410232  0.63265250  1
  O  O241  1  0.99368828  0.74255280  0.13176725  1
  O  O242  1  1.00044043  0.73724323  0.63629380  1
  O  O243  1  0.00345705  0.26107408  0.36520170  1
  O  O244  1  0.00838498  0.25456851  0.87052280  1
  O  O245  1  0.00243558  0.74540775  0.36540127  1
  O  O246  1  -0.00191434  0.74706327  0.86216801  1
  O  O247  1  0.50471135  0.25575497  0.37166628  1
  O  O248  1  0.50539595  0.26516555  0.87324748  1
  O  O249  1  0.51040697  0.74852560  0.36436111  1
  O  O250  1  0.50841922  0.75598194  0.87003457  1
  O  O251  1  0.24742990  0.12357223  0.48810700  1
  O  O252  1  0.25230208  0.14140989  1.00294824  1
  O  O253  1  0.23842946  0.62172479  0.50477473  1
  O  O254  1  0.24518433  0.63489922  0.99172074  1
  O  O255  1  0.75207417  0.13662707  0.50073172  1
  O  O256  1  0.74207705  0.11408297  0.98920424  1
  O  O257  1  0.74957777  0.62805930  0.49792988  1
  O  O258  1  0.74108853  0.63718801  1.00328830  1
  O  O259  1  0.25059036  0.36585201  0.01279142  1
  O  O260  1  0.24282457  0.38246924  0.51738495  1
  O  O261  1  0.25373055  0.87091028  0.00751386  1
  O  O262  1  0.26661294  0.87990281  0.50672758  1
  O  O263  1  0.75992884  0.37687289  -0.00850810  1
  O  O264  1  0.76191517  0.36435319  0.49844313  1
  O  O265  1  0.75434823  0.86489620  0.00412412  1
  O  O266  1  0.75552624  0.86947771  0.51437718  1
  O  O267  1  0.11710368  0.49205806  0.24387380  1
  O  O268  1  0.13230245  0.49172926  0.74849033  1
  O  O269  1  0.12517744  1.00081181  0.25170251  1
  O  O270  1  0.13552604  1.00145149  0.73988459  1
  O  O271  1  0.63110283  0.50088847  0.24057209  1
  O  O272  1  0.62956582  0.49243589  0.73918622  1
  O  O273  1  0.62133320  0.99135306  0.24316328  1
  O  O274  1  0.63239756  0.99351095  0.74695316  1
  O  O275  1  0.38337293  -0.00792766  0.26462411  1
  O  O276  1  0.37228033  0.00801757  0.75551627  1
  O  O277  1  0.37921306  0.50927246  0.26427952  1
  O  O278  1  0.36961013  0.50610857  0.75134973  1
  O  O279  1  0.87444161  0.01163542  0.24640700  1
  O  O280  1  0.86895969  0.00448025  0.75180249  1
  O  O281  1  0.86785992  0.50385345  0.25204612  1
  O  O282  1  0.86702018  0.50112597  0.75617882  1
  O  O283  1  0.11757718  0.37456685  0.36905608  1
  O  O284  1  0.12319397  0.37042635  0.86505840  1
  O  O285  1  0.12842512  0.86143812  0.37779700  1
  O  O286  1  0.12515523  0.87518198  0.86559697  1
  O  O287  1  0.61906154  0.36334447  0.37499980  1
  O  O288  1  0.61751808  0.37253978  0.86234388  1
  O  O289  1  0.62873152  0.86726888  0.36263435  1
  O  O290  1  0.61997718  0.86842257  0.86943442  1
  O  O291  1  0.37717411  0.13805722  0.12432788  1
  O  O292  1  0.38108776  0.13400552  0.62824122  1
  O  O293  1  0.37993646  0.62934853  0.13022789  1
  O  O294  1  0.36797843  0.62726450  0.63795444  1
  O  O295  1  0.87798045  0.13881505  0.13224569  1
  O  O296  1  0.88273803  0.13066977  0.63129601  1
  O  O297  1  0.87872974  0.62876188  0.13122624  1
  O  O298  1  0.88391747  0.61538917  0.63847118  1
  O  O299  1  0.26440300  0.25974399  0.12134940  1
  O  O300  1  0.26413717  0.25584921  0.62701474  1
  O  O301  1  0.25458380  0.75922020  0.11654864  1
  O  O302  1  0.25289669  0.76385693  0.63127339  1
  O  O303  1  0.76077793  0.25001136  0.12801394  1
  O  O304  1  0.76446360  0.24654812  0.61976322  1
  O  O305  1  0.75385905  0.75349635  0.11819303  1
  O  O306  1  0.74178291  0.76306408  0.63021133  1
  O  O307  1  0.23383485  0.26254608  0.37405775  1
  O  O308  1  0.24500460  0.25741281  0.88395991  1
  O  O309  1  0.23874644  0.74952456  0.37054396  1
  O  O310  1  0.25335608  0.74284289  0.88249092  1
  O  O311  1  0.74210695  0.25006021  0.38402151  1
  O  O312  1  0.74720133  0.23661737  0.87018912  1
  O  O313  1  0.73192473  0.74541399  0.37369777  1
  O  O314  1  0.73540359  0.75364525  0.88207004  1
  O  O315  1  -0.00087223  0.10992937  -0.00024008  1
  O  O316  1  0.00330392  0.12928907  0.51551521  1
  O  O317  1  0.00477054  0.61796329  0.00483771  1
  O  O318  1  -0.00227326  0.62188152  0.50784043  1
  O  O319  1  0.50814378  0.11370296  -0.00645213  1
  O  O320  1  0.50344855  0.11526163  0.51212315  1
  O  O321  1  0.50730714  0.63083213  0.00776185  1
  O  O322  1  0.50061085  0.61212535  0.49790368  1
  O  O323  1  0.50184548  0.38125209  0.48662643  1
  O  O324  1  0.50416992  0.37597642  0.98653587  1
  O  O325  1  0.48725272  0.88371650  0.50619074  1
  O  O326  1  0.49412857  0.88312803  0.99465045  1
  O  O327  1  0.99045485  0.38375955  0.49709511  1
  O  O328  1  0.99513547  0.37929185  0.99564237  1
  O  O329  1  0.98469807  0.87058368  0.51137423  1
  O  O330  1  0.99325794  0.88231792  1.00053179  1
  O  O331  1  0.49883902  0.49452657  0.38538540  1
  O  O332  1  0.50275636  0.48257908  0.86717672  1
  O  O333  1  0.49548240  1.00103450  0.38706536  1
  O  O334  1  0.49203677  0.99440923  0.88017044  1
  O  O335  1  0.99162254  0.49711135  0.38161688  1
  O  O336  1  0.99274958  0.49305232  0.87979747  1
  O  O337  1  0.98840533  1.01286809  0.38607562  1
  O  O338  1  0.99704033  0.99462773  0.88676298  1
  O  O339  1  -0.00320733  0.00076502  0.10842667  1
  O  O340  1  0.00958076  0.00653533  0.62549275  1
  O  O341  1  0.00877918  0.50436130  0.11953193  1
  O  O342  1  0.00491301  0.51039950  0.62076455  1
  O  O343  1  0.50796452  -0.00509988  0.11363069  1
  O  O344  1  0.50516593  0.00539746  0.61682941  1
  O  O345  1  0.50600349  0.51217936  0.13140671  1
  O  O346  1  0.50566406  0.49462557  0.60874117  1
  O  O347  1  0.23955753  0.37539262  0.23851254  1
  O  O348  1  0.24539393  0.38108753  0.74625572  1
  O  O349  1  0.24969102  0.87288335  0.23594625  1
  O  O350  1  0.25665853  0.88781981  0.74059916  1
  O  O351  1  0.74677295  0.38777063  0.25223802  1
  O  O352  1  0.73797916  0.38541370  0.75215035  1
  O  O353  1  0.74026633  0.87400545  0.24141301  1
  O  O354  1  0.74832234  0.87956470  0.74363990  1
  O  O355  1  0.25342895  0.13313495  0.26107047  1
  O  O356  1  0.26146793  0.11190951  0.74337517  1
  O  O357  1  0.26158417  0.63079863  0.24193311  1
  O  O358  1  0.25275531  0.61856336  0.75489519  1
  O  O359  1  0.75792358  0.12208110  0.25162257  1
  O  O360  1  0.75558468  0.11642568  0.75531313  1
  O  O361  1  0.75698731  0.61509827  0.25242956  1
  O  O362  1  0.75849416  0.61094109  0.74589084  1
  O  O363  1  0.38142533  0.10816720  0.37756700  1
  O  O364  1  0.38475440  0.11888877  0.86550423  1
  O  O365  1  0.37818739  0.61249091  0.36682274  1
  O  O366  1  0.36299822  0.62417565  0.86377486  1
  O  O367  1  0.87135475  0.13594296  0.35958035  1
  O  O368  1  0.86862193  0.12415133  0.86911564  1
  O  O369  1  0.87336115  0.61729324  0.36645136  1
  O  O370  1  0.87910132  0.60918464  0.86675506  1
  O  O371  1  0.13060166  0.38187640  0.13218261  1
  O  O372  1  0.13122570  0.37327660  0.63811540  1
  O  O373  1  0.13900958  0.86998799  0.12822991  1
  O  O374  1  0.13374845  0.88025103  0.62982971  1
  O  O375  1  0.61871144  0.38957047  0.12282554  1
  O  O376  1  0.61944116  0.38314102  0.63518844  1
  O  O377  1  0.62872246  0.88195666  0.12991604  1
  O  O378  1  0.63404150  0.88045437  0.63212597  1
  O  O379  1  0.11522109  0.26703477  0.25884024  1
  O  O380  1  0.12436186  0.25510192  0.75603750  1
  O  O381  1  0.11442948  0.75046925  0.26445040  1
  O  O382  1  0.11067923  0.74484032  0.74698769  1
  O  O383  1  0.61954234  0.25242114  0.25746263  1
  O  O384  1  0.63145297  0.26446749  0.74652449  1
  O  O385  1  0.61825368  0.75435830  0.25404491  1
  O  O386  1  0.61890226  0.75158499  0.75788054  1
  O  O387  1  0.38170334  0.25530908  0.23839304  1
  O  O388  1  0.37170853  0.23724752  0.74439609  1
  O  O389  1  0.38206533  0.74452201  0.24623429  1
  O  O390  1  0.38422783  0.74326723  0.74970720  1
  O  O391  1  0.87813138  0.25007277  0.24011329  1
  O  O392  1  0.87960566  0.24724297  0.74416278  1
  O  O393  1  0.88054857  0.74452254  0.24797091  1
  O  O394  1  0.88038755  0.73431550  0.75644914  1
  O  O395  1  0.38703384  0.50334101  0.48975579  1
  O  O396  1  0.36769004  0.49577592  0.99255488  1
  O  O397  1  0.38334352  0.99051035  0.49155947  1
  O  O398  1  0.38136743  0.99920908  0.99271887  1
  O  O399  1  0.87701818  0.49183515  0.49831106  1
  O  O400  1  0.87713720  0.49375503  0.99340115  1
  O  O401  1  0.87504309  0.98084292  0.50444851  1
  O  O402  1  0.88034127  0.99068270  0.99939104  1
  O  O403  1  0.11503406  0.00275877  -0.00234440  1
  O  O404  1  0.12421434  -0.00097851  0.51230408  1
  O  O405  1  0.12134422  0.50462395  0.00692098  1
  O  O406  1  0.11688550  0.51395598  0.49895605  1
  O  O407  1  0.61763921  0.00443762  0.00560621  1
  O  O408  1  0.61898602  -0.00228562  0.50561213  1
  O  O409  1  0.63152839  0.51266785  0.00467203  1
  O  O410  1  0.61675754  0.49469622  0.51066591  1
  O  O411  1  0.36692263  0.37780060  0.12827042  1
  O  O412  1  0.36968725  0.35965135  0.63008738  1
  O  O413  1  0.36751685  0.86811627  0.11757307  1
  O  O414  1  0.37009576  0.87288589  0.61400904  1
  O  O415  1  0.87239510  0.36523943  0.11587894  1
  O  O416  1  0.88252923  0.36602149  0.61805430  1
  O  O417  1  0.86830689  0.86718442  0.11440143  1
  O  O418  1  0.86110001  0.87518098  0.62303887  1
  O  O419  1  0.11874727  0.14823030  0.37727831  1
  O  O420  1  0.12377847  0.13629660  0.87725922  1
  O  O421  1  0.12249517  0.63430058  0.38780890  1
  O  O422  1  0.13763158  0.61956204  0.87989504  1
  O  O423  1  0.62617052  0.13760877  0.38001761  1
  O  O424  1  0.63252822  0.12548059  0.88194763  1
  O  O425  1  0.62128386  0.63765182  0.36898700  1
  O  O426  1  0.61857457  0.63272461  0.88284351  1
