# generated using pymatgen
data_V85Zn86O256
_symmetry_space_group_name_H-M   'P 1'
_cell_length_a   16.95287652
_cell_length_b   16.95053933
_cell_length_c   16.94861064
_cell_angle_alpha   90.01489360
_cell_angle_beta   89.95031978
_cell_angle_gamma   89.95061169
_symmetry_Int_Tables_number   1
_chemical_formula_structural   V85Zn86O256
_chemical_formula_sum   'V85 Zn86 O256'
_cell_volume   4870.35572982
_cell_formula_units_Z   1
loop_
 _symmetry_equiv_pos_site_id
 _symmetry_equiv_pos_as_xyz
  1  'x, y, z'
loop_
 _atom_site_type_symbol
 _atom_site_label
 _atom_site_symmetry_multiplicity
 _atom_site_fract_x
 _atom_site_fract_y
 _atom_site_fract_z
 _atom_site_occupancy
  V  V0  1  0.62631831  0.87283854  0.25196658  1
  V  V1  1  0.74585168  0.50168602  0.24502170  1
  V  V2  1  0.37794016  0.13232652  0.75713402  1
  V  V3  1  0.00179427  0.50245559  0.49905175  1
  V  V4  1  0.00994256  0.25449978  0.24748888  1
  V  V5  1  0.50542298  0.87187032  0.87892326  1
  V  V6  1  0.36909887  0.74688238  0.12346735  1
  V  V7  1  0.62741061  0.87026474  0.75459076  1
  V  V8  1  0.37345569  0.62223682  0.24672704  1
  V  V9  1  0.49936637  0.12512126  0.63085801  1
  V  V10  1  0.87217674  -0.00153129  0.38200405  1
  V  V11  1  0.37650108  0.37827321  -0.00584204  1
  V  V12  1  0.00978855  0.37752322  0.37134226  1
  V  V13  1  0.37779727  -0.00070538  0.37603633  1
  V  V14  1  0.87653103  0.49734693  0.87657385  1
  V  V15  1  0.12445979  0.24355197  0.38947869  1
  V  V16  1  0.12442033  0.49534076  0.12499920  1
  V  V17  1  0.51305165  0.62215489  0.11860714  1
  V  V18  1  0.87874490  0.37358503  -0.00288164  1
  V  V19  1  0.24621257  0.49384590  0.25106493  1
  V  V20  1  0.24732583  0.00215263  0.24661818  1
  V  V21  1  -0.00422808  0.87454401  0.38235845  1
  V  V22  1  0.10566013  0.25511452  0.86623172  1
  V  V23  1  0.13041026  0.87501149  0.75368848  1
  V  V24  1  0.00490295  0.87054969  0.87399385  1
  V  V25  1  0.50128063  0.74197731  0.75392967  1
  V  V26  1  0.87737135  0.75240533  0.61926442  1
  V  V27  1  0.38398655  0.49474199  0.37178970  1
  V  V28  1  0.50176707  0.00949250  0.00566142  1
  V  V29  1  0.12809310  0.00794773  0.62243446  1
  V  V30  1  0.87382327  0.50103772  0.37290955  1
  V  V31  1  0.01067827  -0.00037980  0.00636120  1
  V  V32  1  0.74757527  0.75547835  0.49578342  1
  V  V33  1  0.74131501  0.24352647  0.00151862  1
  V  V34  1  0.61670012  0.37838853  0.25025116  1
  V  V35  1  0.74750634  0.37223384  0.61885052  1
  V  V36  1  0.62277131  0.62857979  0.49731919  1
  V  V37  1  0.61242820  0.25323995  0.37604638  1
  V  V38  1  0.00310437  0.00418601  0.50090436  1
  V  V39  1  0.37388049  0.50814710  0.87080601  1
  V  V40  1  0.00429850  0.49935529  -0.00634304  1
  V  V41  1  0.00299166  0.61747333  0.62548141  1
  V  V42  1  0.62248693  0.12531746  0.49988679  1
  V  V43  1  0.51149623  0.49907812  -0.00282273  1
  V  V44  1  0.25262378  0.75324427  0.49989841  1
  V  V45  1  0.73279248  0.74905664  -0.00203515  1
  V  V46  1  0.87733276  -0.00037108  0.87229845  1
  V  V47  1  0.12620879  0.75059759  0.37403884  1
  V  V48  1  0.37763256  0.74652251  0.62828091  1
  V  V49  1  0.62360053  0.50171913  0.62385651  1
  V  V50  1  0.87521500  0.12513109  0.25196786  1
  V  V51  1  0.25116571  0.00756874  0.75305938  1
  V  V52  1  0.87618912  0.24968743  0.12683969  1
  V  V53  1  0.12561958  0.62247621  0.50258916  1
  V  V54  1  0.37348641  0.87089577  0.00049364  1
  V  V55  1  0.87557416  0.87093592  0.00160666  1
  V  V56  1  0.13242810  0.63728416  -0.00637323  1
  V  V57  1  0.37769157  0.37321553  0.49611168  1
  V  V58  1  0.62537098  -0.00159445  0.62524195  1
  V  V59  1  0.87541418  0.14378596  0.74894940  1
  V  V60  1  -0.00295995  0.13182444  0.62814541  1
  V  V61  1  0.24572851  0.87500390  0.12143438  1
  V  V62  1  0.12338191  0.87949912  0.24815656  1
  V  V63  1  0.24450874  0.37817782  0.63409133  1
  V  V64  1  0.00439059  0.75208059  0.74937497  1
  V  V65  1  0.24609080  0.51070428  0.74616920  1
  V  V66  1  0.12742289  0.12491778  -0.00192512  1
  V  V67  1  0.50284997  0.74826873  0.25582132  1
  V  V68  1  0.74602887  0.37895054  0.12434333  1
  V  V69  1  0.36729645  0.00121983  0.87744777  1
  V  V70  1  0.73905162  0.62872292  0.87813514  1
  V  V71  1  0.24909736  0.24796302  -0.01956641  1
  V  V72  1  0.74881415  0.50197953  0.74975205  1
  V  V73  1  0.24684298  0.36960012  0.12368339  1
  V  V74  1  0.74572710  0.62918799  0.37311200  1
  V  V75  1  0.38100499  0.25461393  0.62886474  1
  V  V76  1  -0.00144287  0.62632180  0.12575321  1
  V  V77  1  0.37573802  0.12559758  0.24458935  1
  V  V78  1  0.74100729  0.12256192  0.87916338  1
  V  V79  1  0.49895842  0.24718188  0.23920286  1
  V  V80  1  0.87679638  0.62624414  0.75190486  1
  V  V81  1  0.75527825  0.87610861  0.62284701  1
  V  V82  1  0.62391696  0.01306122  0.12497760  1
  V  V83  1  0.75165535  0.24864706  0.49643827  1
  V  V84  1  0.87572546  0.37199498  0.49744554  1
  Zn  Zn85  1  0.24518844  0.12281891  0.38207032  1
  Zn  Zn86  1  0.74713147  0.12370776  0.37403587  1
  Zn  Zn87  1  0.75070769  -0.00165825  0.24960489  1
  Zn  Zn88  1  0.10433462  0.38575204  0.75626088  1
  Zn  Zn89  1  0.87360718  0.75164132  0.12728615  1
  Zn  Zn90  1  0.60694974  0.25109853  0.86925139  1
  Zn  Zn91  1  0.25019159  0.62194311  0.37377518  1
  Zn  Zn92  1  0.49846853  0.62556862  0.62627320  1
  Zn  Zn93  1  0.50254196  0.49640092  0.49507946  1
  Zn  Zn94  1  0.50310482  0.86977585  0.37776682  1
  Zn  Zn95  1  0.74885714  0.87582059  0.12512946  1
  Zn  Zn96  1  0.49895749  -0.00303154  0.50037820  1
  Zn  Zn97  1  0.24583281  0.24690209  0.50889502  1
  Zn  Zn98  1  -0.00394148  0.75061506  0.25107135  1
  Zn  Zn99  1  0.60296428  0.37017631  0.75449686  1
  Zn  Zn100  1  0.87481872  0.62774501  0.24908172  1
  Zn  Zn101  1  0.37456821  0.24649626  0.12078550  1
  Zn  Zn102  1  0.25386570  0.64111313  0.87038114  1
  Zn  Zn103  1  0.25457427  0.87904585  0.62412647  1
  Zn  Zn104  1  0.75250862  -0.00151545  0.75090417  1
  Zn  Zn105  1  0.38121718  0.87418236  0.49963296  1
  Zn  Zn106  1  0.00291212  0.12076663  0.12672749  1
  Zn  Zn107  1  0.18536814  0.18430860  0.18489465  1
  Zn  Zn108  1  0.18996676  0.18974258  0.69185529  1
  Zn  Zn109  1  0.18555172  0.68552511  0.18628061  1
  Zn  Zn110  1  0.18782510  0.69098922  0.68495192  1
  Zn  Zn111  1  0.68977925  0.18969469  0.18984892  1
  Zn  Zn112  1  0.69159961  0.18487781  0.68559132  1
  Zn  Zn113  1  0.68873365  0.69190737  0.18520253  1
  Zn  Zn114  1  0.68732165  0.68874058  0.68741665  1
  Zn  Zn115  1  0.30969975  0.31267554  0.31165997  1
  Zn  Zn116  1  0.43356851  0.31745279  0.81573060  1
  Zn  Zn117  1  0.31371353  0.81389544  0.31124001  1
  Zn  Zn118  1  0.31868318  0.81560809  0.80807497  1
  Zn  Zn119  1  0.81139510  0.31199975  0.31386507  1
  Zn  Zn120  1  0.75239768  0.31021246  0.80859605  1
  Zn  Zn121  1  0.81309036  0.81329216  0.31104757  1
  Zn  Zn122  1  0.81407193  0.81115408  0.81380224  1
  Zn  Zn123  1  0.19182366  0.43484204  0.44107727  1
  Zn  Zn124  1  0.18907277  0.43559983  0.92962246  1
  Zn  Zn125  1  0.18846997  0.93903633  0.43685075  1
  Zn  Zn126  1  0.18904864  0.81557826  0.93732111  1
  Zn  Zn127  1  0.68426727  0.43900815  0.43219886  1
  Zn  Zn128  1  0.69089554  0.43731442  0.93750113  1
  Zn  Zn129  1  0.68554282  0.93737988  0.43637049  1
  Zn  Zn130  1  0.68725997  0.93869098  0.94167599  1
  Zn  Zn131  1  0.30806947  0.06175293  0.06186326  1
  Zn  Zn132  1  0.31107512  0.06775591  0.56019284  1
  Zn  Zn133  1  0.31220080  0.56051538  0.06097665  1
  Zn  Zn134  1  0.31357297  0.56405679  0.56071521  1
  Zn  Zn135  1  0.81429967  0.05962731  0.06337780  1
  Zn  Zn136  1  0.81432990  0.06370535  0.56268188  1
  Zn  Zn137  1  0.81064336  0.56496644  0.06050873  1
  Zn  Zn138  1  0.81317575  0.56369243  0.56059688  1
  Zn  Zn139  1  0.43562217  0.43734771  0.17990439  1
  Zn  Zn140  1  0.43116976  0.44733063  0.68275254  1
  Zn  Zn141  1  0.43862629  0.93760488  0.18837896  1
  Zn  Zn142  1  0.43810321  0.93440966  0.68776970  1
  Zn  Zn143  1  0.93552471  0.43850518  0.18639710  1
  Zn  Zn144  1  0.90625898  0.40647524  0.71077842  1
  Zn  Zn145  1  0.93646562  0.93700592  0.18994249  1
  Zn  Zn146  1  0.93902952  0.93937115  0.68686807  1
  Zn  Zn147  1  0.06049058  0.06370175  0.31261907  1
  Zn  Zn148  1  0.06243293  0.06659222  0.81507413  1
  Zn  Zn149  1  0.06514748  0.56285032  0.31060118  1
  Zn  Zn150  1  0.06594808  0.56529972  0.81394730  1
  Zn  Zn151  1  0.56054999  0.06455822  0.30939041  1
  Zn  Zn152  1  0.56079520  0.05668476  0.81317564  1
  Zn  Zn153  1  0.56393739  0.56484174  0.30892154  1
  Zn  Zn154  1  0.56281392  0.55584829  0.81377241  1
  Zn  Zn155  1  0.43319714  0.18485545  0.43756080  1
  Zn  Zn156  1  0.43529636  0.18529963  0.94237980  1
  Zn  Zn157  1  0.43384985  0.68291171  0.43599830  1
  Zn  Zn158  1  0.43905290  0.68784026  0.93862561  1
  Zn  Zn159  1  0.94066957  0.18688154  0.43874420  1
  Zn  Zn160  1  0.93261690  0.18573783  0.93686423  1
  Zn  Zn161  1  0.93455164  0.68910769  0.43658771  1
  Zn  Zn162  1  0.93857349  0.68659482  0.93752140  1
  Zn  Zn163  1  0.06268596  0.31204494  0.05863117  1
  Zn  Zn164  1  0.03786697  0.33547166  0.59740498  1
  Zn  Zn165  1  0.05855155  0.81395978  0.06788956  1
  Zn  Zn166  1  0.06587085  0.81665375  0.56426013  1
  Zn  Zn167  1  0.56279344  0.31504714  0.06033795  1
  Zn  Zn168  1  0.55917942  0.31371377  0.56463639  1
  Zn  Zn169  1  0.55869863  0.81769709  0.07087683  1
  Zn  Zn170  1  0.56361648  0.81310057  0.56341185  1
  O  O171  1  0.11864088  0.13316510  0.10592980  1
  O  O172  1  0.11573279  0.11328847  0.63767185  1
  O  O173  1  0.11692306  0.61715483  0.11578775  1
  O  O174  1  0.11541837  0.63331358  0.61326000  1
  O  O175  1  0.62663414  0.11230472  0.13142999  1
  O  O176  1  0.61882151  0.11961375  0.62228061  1
  O  O177  1  0.61105864  0.62745330  0.12610765  1
  O  O178  1  0.62704477  0.61770946  0.61596178  1
  O  O179  1  0.36905810  0.38246625  0.38275094  1
  O  O180  1  0.37225468  0.38888062  0.88844452  1
  O  O181  1  0.37883960  0.88452757  0.37443717  1
  O  O182  1  0.38317230  0.88255930  0.88400190  1
  O  O183  1  0.88122703  0.38134363  0.38146744  1
  O  O184  1  0.86835298  0.39212609  0.88460999  1
  O  O185  1  0.88595200  0.88422711  0.37043084  1
  O  O186  1  0.88264597  0.88070281  0.88102028  1
  O  O187  1  0.25849509  -0.00194938  0.36362225  1
  O  O188  1  0.26579510  -0.00288379  0.86761755  1
  O  O189  1  0.25514775  0.49938665  0.36478386  1
  O  O190  1  0.25614087  0.50465591  0.86339889  1
  O  O191  1  0.75931637  0.00209951  0.37348531  1
  O  O192  1  0.75911247  0.00615977  0.87824127  1
  O  O193  1  0.75444264  0.50780201  0.36694224  1
  O  O194  1  0.75936072  0.51114879  0.87311659  1
  O  O195  1  0.24264950  0.49049146  0.12773476  1
  O  O196  1  0.25926850  0.49427279  0.63661975  1
  O  O197  1  0.25316405  0.99042882  0.13789724  1
  O  O198  1  0.24353891  1.00027442  0.63187920  1
  O  O199  1  0.75428893  0.49293453  0.13262425  1
  O  O200  1  0.74042481  0.49641098  0.62501485  1
  O  O201  1  0.73755417  0.99817365  0.12547287  1
  O  O202  1  0.74597672  0.99095734  0.62540208  1
  O  O203  1  -0.00755937  0.36763032  0.26050776  1
  O  O204  1  0.00734479  0.36865806  0.70364217  1
  O  O205  1  0.00885619  0.87610002  0.26051087  1
  O  O206  1  0.00834343  0.87375907  0.75700585  1
  O  O207  1  0.51198341  0.37233954  0.24087543  1
  O  O208  1  0.49315238  0.37787692  0.74341810  1
  O  O209  1  0.50529360  0.86348406  0.24894778  1
  O  O210  1  0.50850815  0.86960518  0.75956188  1
  O  O211  1  0.48952768  0.13595170  0.25128583  1
  O  O212  1  0.49362024  0.11862222  0.73935503  1
  O  O213  1  0.49506561  0.62823954  0.23736240  1
  O  O214  1  0.50944898  0.63900140  0.75212602  1
  O  O215  1  0.99141710  0.13322848  0.24821590  1
  O  O216  1  0.98437314  0.12197221  0.74495456  1
  O  O217  1  0.99923498  0.62453736  0.23970545  1
  O  O218  1  0.99939004  0.63133236  0.74264442  1
  O  O219  1  0.36095618  0.25600054  0.00135410  1
  O  O220  1  0.37414193  0.25715770  0.50893310  1
  O  O221  1  0.38053375  0.76282227  0.00887208  1
  O  O222  1  0.36704286  0.75121769  0.50242888  1
  O  O223  1  0.87242521  0.25861460  0.00748508  1
  O  O224  1  0.86419924  0.25958915  0.48730401  1
  O  O225  1  0.87792322  0.76345839  0.00077444  1
  O  O226  1  0.86557319  0.74475515  0.51268488  1
  O  O227  1  0.12219535  0.25575555  0.48773606  1
  O  O228  1  0.13307030  0.24776008  0.99015900  1
  O  O229  1  0.13082988  0.74460244  0.49349428  1
  O  O230  1  0.12267429  0.74150412  1.00287373  1
  O  O231  1  0.62676905  0.24627811  0.49262281  1
  O  O232  1  0.63937904  0.25531434  0.99731041  1
  O  O233  1  0.63724322  0.74110760  0.50651427  1
  O  O234  1  0.63478492  0.75817088  1.00174939  1
  O  O235  1  0.49716731  0.25392882  0.13483745  1
  O  O236  1  0.48898798  0.24222236  0.62434253  1
  O  O237  1  0.49020012  0.73909682  0.12931286  1
  O  O238  1  0.49615799  0.74880210  0.63485608  1
  O  O239  1  0.99372206  0.25293177  0.13259740  1
  O  O240  1  0.99907413  0.22816279  0.60624090  1
  O  O241  1  0.99828879  0.73981133  0.12887707  1
  O  O242  1  0.99240029  0.74684708  0.62667371  1
  O  O243  1  0.00856395  0.25775671  0.37036951  1
  O  O244  1  0.00694060  0.25268200  0.87879460  1
  O  O245  1  0.00654541  0.75796143  0.37594589  1
  O  O246  1  -0.00524934  0.76338261  0.86825211  1
  O  O247  1  0.50848295  0.24739131  0.36638355  1
  O  O248  1  0.49686800  0.25669589  0.88600672  1
  O  O249  1  0.49467552  0.74552688  0.35889334  1
  O  O250  1  0.49508587  0.76300647  0.86992375  1
  O  O251  1  0.25105780  0.13436157  0.49519430  1
  O  O252  1  0.24314343  0.13945598  1.00278929  1
  O  O253  1  0.24183089  0.63518899  0.49830492  1
  O  O254  1  0.23337068  0.62345537  1.00411856  1
  O  O255  1  0.74304215  0.13338520  0.49975264  1
  O  O256  1  0.75645489  0.13160038  0.99318305  1
  O  O257  1  0.74223522  0.63115052  0.49262112  1
  O  O258  1  0.75304339  0.64019649  0.99346013  1
  O  O259  1  0.25396326  0.36586705  0.00279151  1
  O  O260  1  0.26154946  0.37358733  0.51072494  1
  O  O261  1  0.25542316  0.87578857  0.01418222  1
  O  O262  1  0.24827671  0.86226615  0.50122319  1
  O  O263  1  0.76090005  0.37048166  0.00862913  1
  O  O264  1  0.75393254  0.37021195  0.49956135  1
  O  O265  1  0.75828750  0.86405668  -0.00161969  1
  O  O266  1  0.74422384  0.86536532  0.50844166  1
  O  O267  1  0.13336292  0.50391547  0.23761395  1
  O  O268  1  0.14004736  0.49957639  0.75560123  1
  O  O269  1  0.13188020  0.98881038  0.25752711  1
  O  O270  1  0.13411983  0.99763218  0.74896539  1
  O  O271  1  0.63626212  0.49234726  0.25416444  1
  O  O272  1  0.63250619  0.49637429  0.74028871  1
  O  O273  1  0.62480284  0.99612529  0.23942900  1
  O  O274  1  0.62806404  0.98828714  0.74299127  1
  O  O275  1  0.36857542  0.00600642  0.25442735  1
  O  O276  1  0.37084673  0.00575954  0.75631408  1
  O  O277  1  0.36860286  0.50165842  0.25309228  1
  O  O278  1  0.36195628  0.50183994  0.75962161  1
  O  O279  1  0.87666004  0.00843277  0.26053937  1
  O  O280  1  0.87424419  -0.00469316  0.76481301  1
  O  O281  1  0.86311878  0.50221413  0.25515840  1
  O  O282  1  0.87235390  0.50763749  0.75942639  1
  O  O283  1  0.11311334  0.37078278  0.37839950  1
  O  O284  1  0.12268850  0.36136870  0.87146596  1
  O  O285  1  0.11995235  0.86586372  0.37012261  1
  O  O286  1  0.11790759  0.87587860  0.86405792  1
  O  O287  1  0.62728026  0.36643822  0.36273221  1
  O  O288  1  0.65664838  0.36590925  0.86000936  1
  O  O289  1  0.62056010  0.88412522  0.35784616  1
  O  O290  1  0.61768774  0.88151253  0.86753032  1
  O  O291  1  0.36442688  0.12766501  0.13948076  1
  O  O292  1  0.38290957  0.13228773  0.63261190  1
  O  O293  1  0.37779182  0.63195750  0.12768274  1
  O  O294  1  0.37998350  0.64033066  0.61689351  1
  O  O295  1  0.87902792  0.12986271  0.13366275  1
  O  O296  1  0.87992937  0.11795584  0.64174716  1
  O  O297  1  0.88929364  0.62340669  0.12244741  1
  O  O298  1  0.88115004  0.63293477  0.63067612  1
  O  O299  1  0.24577772  0.26283423  0.12269302  1
  O  O300  1  0.26097361  0.26128981  0.63039156  1
  O  O301  1  0.26170126  0.75735876  0.13265760  1
  O  O302  1  0.25837264  0.75376667  0.61743857  1
  O  O303  1  0.75715822  0.25597783  0.12036591  1
  O  O304  1  0.74522760  0.25971707  0.60673290  1
  O  O305  1  0.75341546  0.75070637  0.10924270  1
  O  O306  1  0.75786403  0.75626590  0.61894476  1
  O  O307  1  0.23017375  0.25494290  0.37230284  1
  O  O308  1  0.24511915  0.25017118  0.88397571  1
  O  O309  1  0.24297014  0.74822419  0.38038915  1
  O  O310  1  0.25420005  0.75365853  0.87263382  1
  O  O311  1  0.73798995  0.24936644  0.38321019  1
  O  O312  1  0.76456439  0.23318456  0.89071161  1
  O  O313  1  0.75583971  0.74306865  0.38613124  1
  O  O314  1  0.75543786  0.74377512  0.88866550  1
  O  O315  1  0.00075451  0.11174901  -0.00047962  1
  O  O316  1  -0.00559736  0.10966342  0.50636677  1
  O  O317  1  0.01017952  0.61920821  0.00518884  1
  O  O318  1  0.00653971  0.62428540  0.50435931  1
  O  O319  1  0.49183594  0.10828193  0.00402695  1
  O  O320  1  0.50459263  0.12358662  0.51234343  1
  O  O321  1  0.49842110  0.61603422  0.01074739  1
  O  O322  1  0.51445975  0.62598049  0.49740574  1
  O  O323  1  0.48420346  0.37858252  0.50560996  1
  O  O324  1  0.49099663  0.39105418  1.01080486  1
  O  O325  1  0.50141616  0.87777587  0.49487992  1
  O  O326  1  0.49227297  0.88024930  0.99573083  1
  O  O327  1  0.99216205  0.38243644  0.49577579  1
  O  O328  1  0.98693903  0.38478224  1.00565273  1
  O  O329  1  1.00474874  0.88352488  0.48938712  1
  O  O330  1  0.99768522  0.88313658  0.99412965  1
  O  O331  1  0.48770115  0.50320701  0.37181267  1
  O  O332  1  0.49246902  0.50602923  0.88976800  1
  O  O333  1  0.48647026  1.00206613  0.37397637  1
  O  O334  1  0.49388916  0.98975741  0.88399292  1
  O  O335  1  0.99595033  0.49454294  0.37766742  1
  O  O336  1  0.99422921  0.50652229  0.88620134  1
  O  O337  1  0.99620270  0.99423891  0.38282083  1
  O  O338  1  0.99536123  0.98985244  0.88222611  1
  O  O339  1  -0.00297317  -0.00172504  0.10987000  1
  O  O340  1  0.00579188  0.00478714  0.61813970  1
  O  O341  1  0.00655860  0.50448426  0.11625526  1
  O  O342  1  -0.00490374  0.51655173  0.61475162  1
  O  O343  1  0.51186755  -0.00509495  0.11883612  1
  O  O344  1  0.50722650  0.00646253  0.62461857  1
  O  O345  1  0.49517462  0.51458094  0.11406969  1
  O  O346  1  0.51246374  0.50663993  0.62109782  1
  O  O347  1  0.25389760  0.38596032  0.23889170  1
  O  O348  1  0.24594140  0.38778657  0.73649280  1
  O  O349  1  0.24341961  0.88054713  0.24232803  1
  O  O350  1  0.24491468  0.88873095  0.74772369  1
  O  O351  1  0.74392167  0.38173923  0.24377115  1
  O  O352  1  0.77669742  0.38823643  0.72847974  1
  O  O353  1  0.74139496  0.87656095  0.24680883  1
  O  O354  1  0.74408050  0.87366207  0.74394108  1
  O  O355  1  0.25123770  0.11654871  0.25415626  1
  O  O356  1  0.26169719  0.11456244  0.74643119  1
  O  O357  1  0.25494365  0.61187437  0.24690528  1
  O  O358  1  0.24537916  0.61499917  0.74875190  1
  O  O359  1  0.76380427  0.12557272  0.25297746  1
  O  O360  1  0.76319138  0.11862134  0.75656416  1
  O  O361  1  0.74815555  0.61946036  0.25534717  1
  O  O362  1  0.75680372  0.62096238  0.75504977  1
  O  O363  1  0.37030401  0.11821391  0.36348956  1
  O  O364  1  0.38185159  0.11480974  0.86587606  1
  O  O365  1  0.37050364  0.61478645  0.36519425  1
  O  O366  1  0.37016447  0.61300035  0.88574409  1
  O  O367  1  0.87549356  0.11775545  0.36857297  1
  O  O368  1  0.87203951  0.11644747  0.86491350  1
  O  O369  1  0.86317548  0.61929471  0.37459514  1
  O  O370  1  0.87080571  0.61801945  0.87055367  1
  O  O371  1  0.13036819  0.38755454  0.11627226  1
  O  O372  1  0.14525904  0.37533378  0.61807070  1
  O  O373  1  0.13291988  0.86973312  0.13583369  1
  O  O374  1  0.12533534  0.88909593  0.63727551  1
  O  O375  1  0.63958523  0.36923851  0.13303248  1
  O  O376  1  0.63521534  0.38313628  0.62220968  1
  O  O377  1  0.62651360  0.88345940  0.13669624  1
  O  O378  1  0.63600817  0.87924915  0.63208251  1
  O  O379  1  0.11185983  0.24756884  0.25393938  1
  O  O380  1  0.12348510  0.24783412  0.76531144  1
  O  O381  1  0.12434254  0.75829828  0.25878746  1
  O  O382  1  0.11761043  0.76368485  0.74077529  1
  O  O383  1  0.61761022  0.25591089  0.25563075  1
  O  O384  1  0.65191399  0.26027059  0.75697942  1
  O  O385  1  0.61552567  0.75890525  0.24387038  1
  O  O386  1  0.61914446  0.76318321  0.74535790  1
  O  O387  1  0.38195407  0.24485307  0.24927305  1
  O  O388  1  0.37483688  0.23836302  0.74482109  1
  O  O389  1  0.38085542  0.74353949  0.24207140  1
  O  O390  1  0.38900162  0.75545685  0.74038618  1
  O  O391  1  0.88221153  0.24408315  0.24773142  1
  O  O392  1  0.86597076  0.24005157  0.75260708  1
  O  O393  1  0.87746092  0.74581195  0.24581889  1
  O  O394  1  0.88217943  0.74570462  0.74004071  1
  O  O395  1  0.37585956  0.49537662  0.48870499  1
  O  O396  1  0.37920612  0.49360993  0.99492832  1
  O  O397  1  0.37482457  0.99771651  0.48993236  1
  O  O398  1  0.37790953  0.99073152  0.99643058  1
  O  O399  1  0.88043995  0.49647102  0.49042604  1
  O  O400  1  0.88265054  0.49616429  0.99565795  1
  O  O401  1  0.88162124  1.00172746  0.48859610  1
  O  O402  1  0.88267911  0.99013396  0.99083751  1
  O  O403  1  0.11088244  0.00792957  -0.00571124  1
  O  O404  1  0.11768248  -0.00441621  0.51050190  1
  O  O405  1  0.11880682  0.50570503  0.00299124  1
  O  O406  1  0.12076735  0.51540082  0.49075698  1
  O  O407  1  0.61655273  -0.00466682  0.01476311  1
  O  O408  1  0.62487577  0.00888282  0.50752346  1
  O  O409  1  0.61061153  0.49412239  -0.00280170  1
  O  O410  1  0.62443764  0.50772511  0.50480291  1
  O  O411  1  0.36391957  0.37373340  0.11238245  1
  O  O412  1  0.36711296  0.36929753  0.61946108  1
  O  O413  1  0.36888737  0.86859949  0.11983085  1
  O  O414  1  0.37469319  0.86378594  0.62092256  1
  O  O415  1  0.86559130  0.37081302  0.11954577  1
  O  O416  1  0.86146415  0.38187908  0.60270240  1
  O  O417  1  0.87181134  0.87606042  0.11603009  1
  O  O418  1  0.86394718  0.86830027  0.63008676  1
  O  O419  1  0.12126502  0.13999691  0.37461682  1
  O  O420  1  0.11729749  0.13861915  0.88776995  1
  O  O421  1  0.12521634  0.63771400  0.37993309  1
  O  O422  1  0.12812055  0.62628277  0.89086563  1
  O  O423  1  0.62522157  0.13297069  0.38119064  1
  O  O424  1  0.63835915  0.12479408  0.86795238  1
  O  O425  1  0.63756087  0.62113057  0.38078215  1
  O  O426  1  0.64023858  0.62085194  0.87041380  1
