# generated using pymatgen
data_V85Zn86O256
_symmetry_space_group_name_H-M   'P 1'
_cell_length_a   16.96058477
_cell_length_b   16.94167898
_cell_length_c   16.94713212
_cell_angle_alpha   89.97911516
_cell_angle_beta   90.00228832
_cell_angle_gamma   90.01682504
_symmetry_Int_Tables_number   1
_chemical_formula_structural   V85Zn86O256
_chemical_formula_sum   'V85 Zn86 O256'
_cell_volume   4869.60166851
_cell_formula_units_Z   1
loop_
 _symmetry_equiv_pos_site_id
 _symmetry_equiv_pos_as_xyz
  1  'x, y, z'
loop_
 _atom_site_type_symbol
 _atom_site_label
 _atom_site_symmetry_multiplicity
 _atom_site_fract_x
 _atom_site_fract_y
 _atom_site_fract_z
 _atom_site_occupancy
  V  V0  1  0.50002152  0.74839424  0.25078965  1
  V  V1  1  0.75107351  0.86453527  0.62186295  1
  V  V2  1  0.62923178  -0.00448709  0.63152426  1
  V  V3  1  0.20387966  0.56243797  0.79815033  1
  V  V4  1  0.37551891  0.87413846  0.49896808  1
  V  V5  1  0.50550005  0.87237520  0.87085752  1
  V  V6  1  -0.00362780  0.23259025  0.24985182  1
  V  V7  1  0.36348838  0.50507231  0.37554247  1
  V  V8  1  0.87903063  0.00290967  0.87460348  1
  V  V9  1  0.24602773  0.74671146  0.48616719  1
  V  V10  1  0.37760448  0.25594219  0.11655808  1
  V  V11  1  0.75409757  0.00713051  0.24979479  1
  V  V12  1  0.24002625  0.24743446  0.50202976  1
  V  V13  1  0.75508673  0.38260500  0.12800650  1
  V  V14  1  0.63677491  0.74907433  0.37877068  1
  V  V15  1  0.62810824  0.62677563  0.50765385  1
  V  V16  1  0.75176250  0.61419383  0.37705757  1
  V  V17  1  0.49953460  0.50728295  0.50392196  1
  V  V18  1  0.24912272  0.87453224  0.62324249  1
  V  V19  1  0.87538742  0.87384919  0.00175442  1
  V  V20  1  0.00093219  0.74345515  0.24715726  1
  V  V21  1  0.12499348  0.00564665  0.62183842  1
  V  V22  1  0.50287492  0.87499431  0.37525842  1
  V  V23  1  0.23913318  0.74091443  -0.01324247  1
  V  V24  1  0.37421182  0.74773244  0.12234784  1
  V  V25  1  0.62548845  0.50766510  0.12625339  1
  V  V26  1  0.12375176  0.25280198  0.37098628  1
  V  V27  1  0.87070324  0.61557218  0.24505123  1
  V  V28  1  0.74939363  0.87102906  0.12473984  1
  V  V29  1  0.62763165  0.63137176  -0.02031370  1
  V  V30  1  0.87760450  0.00553760  0.37286793  1
  V  V31  1  0.25176818  0.12976961  0.88016855  1
  V  V32  1  0.49877364  0.37833395  0.37432757  1
  V  V33  1  0.49806211  0.25120618  0.25037204  1
  V  V34  1  -0.00386624  0.62205383  0.63012961  1
  V  V35  1  0.00243226  0.00585159  0.49958236  1
  V  V36  1  0.20093837  0.30713967  0.06436822  1
  V  V37  1  0.13231027  0.37148233  0.75140304  1
  V  V38  1  0.51144365  0.25363002  0.75024387  1
  V  V39  1  0.24730386  0.12346427  0.38089149  1
  V  V40  1  0.62808581  0.12482032  0.49878616  1
  V  V41  1  -0.00160546  0.74322590  0.75198518  1
  V  V42  1  0.86703885  0.37437127  -0.01237007  1
  V  V43  1  0.37272260  0.37611603  0.49972317  1
  V  V44  1  0.50437673  0.75362016  0.74576115  1
  V  V45  1  0.25155374  -0.00050851  0.25129423  1
  V  V46  1  0.12726854  0.12279540  0.00666688  1
  V  V47  1  0.50688366  0.00249037  -0.00055407  1
  V  V48  1  0.24937015  0.87427840  0.12386906  1
  V  V49  1  0.37838989  0.74249301  0.62171163  1
  V  V50  1  0.62942760  0.38475828  0.25031196  1
  V  V51  1  0.62715401  0.87557201  0.25038078  1
  V  V52  1  0.87698555  0.37664246  0.50233198  1
  V  V53  1  0.11797678  0.00220813  0.13034937  1
  V  V54  1  0.00039201  0.37501953  0.36522138  1
  V  V55  1  0.36521213  0.62588528  0.25302613  1
  V  V56  1  0.01050662  0.60883071  0.11136113  1
  V  V57  1  0.87454400  0.25726326  0.62931165  1
  V  V58  1  0.12433361  0.62804216  0.48730363  1
  V  V59  1  0.00897107  0.87061101  0.87797022  1
  V  V60  1  0.50135218  0.12426012  0.62449259  1
  V  V61  1  0.62864595  0.47979588  0.62638425  1
  V  V62  1  0.25022494  0.37676766  0.62740016  1
  V  V63  1  0.37479361  0.12393113  0.75151539  1
  V  V64  1  0.87204101  0.23637520  0.13044075  1
  V  V65  1  0.37435176  0.24959354  0.62447725  1
  V  V66  1  0.00292563  0.00328442  0.00304955  1
  V  V67  1  -0.00019019  0.25305952  0.76142977  1
  V  V68  1  0.24047026  0.48947628  0.23382876  1
  V  V69  1  0.50176861  0.00050260  0.49855967  1
  V  V70  1  0.50675271  0.12673202  0.12085109  1
  V  V71  1  0.85752157  0.51962178  0.87428220  1
  V  V72  1  0.12602268  0.87139228  0.75140586  1
  V  V73  1  0.02616625  0.41061596  0.89278199  1
  V  V74  1  0.50541765  0.38092343  0.87415455  1
  V  V75  1  0.38540219  0.61969281  0.75244872  1
  V  V76  1  0.87622531  0.12449940  0.74957623  1
  V  V77  1  0.62665261  0.25059222  0.37411884  1
  V  V78  1  0.74903931  0.49332458  0.74746122  1
  V  V79  1  0.75041554  0.25343400  0.50537184  1
  V  V80  1  0.13001539  0.50371759  0.62407084  1
  V  V81  1  0.12544840  0.86591807  0.25546055  1
  V  V82  1  0.37567463  0.87541879  -0.00208534  1
  V  V83  1  0.00010215  0.86615983  0.37774486  1
  V  V84  1  0.74278286  0.12582763  0.88019289  1
  Zn  Zn85  1  0.66994638  0.81644492  0.80458184  1
  Zn  Zn86  1  0.24951277  -0.00055962  0.75224438  1
  Zn  Zn87  1  0.87385509  0.49526715  0.37242385  1
  Zn  Zn88  1  0.62334832  0.25012673  0.88441443  1
  Zn  Zn89  1  0.37432229  0.00062583  0.87547988  1
  Zn  Zn90  1  0.37660320  0.00208536  0.37503860  1
  Zn  Zn91  1  0.37487284  0.12589903  0.25004984  1
  Zn  Zn92  1  0.87099910  0.86942402  0.49848430  1
  Zn  Zn93  1  0.74663953  0.74833991  -0.02208714  1
  Zn  Zn94  1  0.87252390  0.74086615  0.61882529  1
  Zn  Zn95  1  0.87464223  0.74500198  0.12274368  1
  Zn  Zn96  1  0.50040088  0.62411116  0.12316861  1
  Zn  Zn97  1  0.12802824  0.24708735  0.88011308  1
  Zn  Zn98  1  0.00055359  0.49810731  0.49917410  1
  Zn  Zn99  1  0.37376894  0.38087752  -0.00034153  1
  Zn  Zn100  1  0.75011529  -0.00463864  0.75003715  1
  Zn  Zn101  1  0.75597941  0.12826282  0.37111730  1
  Zn  Zn102  1  0.62679773  0.00295118  0.12436368  1
  Zn  Zn103  1  0.37439915  0.50165282  0.87662297  1
  Zn  Zn104  1  0.00491145  0.12931373  0.62328125  1
  Zn  Zn105  1  0.49758812  0.50373524  0.00088720  1
  Zn  Zn106  1  0.74112048  0.24527359  0.00670455  1
  Zn  Zn107  1  0.18283957  0.18317347  0.19708866  1
  Zn  Zn108  1  0.18876770  0.18718421  0.69087908  1
  Zn  Zn109  1  0.18743957  0.68312565  0.18287929  1
  Zn  Zn110  1  0.18415528  0.69513840  0.67827782  1
  Zn  Zn111  1  0.68581604  0.19174925  0.18670074  1
  Zn  Zn112  1  0.69155924  0.18515794  0.68717236  1
  Zn  Zn113  1  0.69152028  0.68980524  0.19007017  1
  Zn  Zn114  1  0.68857938  0.67912305  0.68559928  1
  Zn  Zn115  1  0.31183274  0.31495335  0.31105501  1
  Zn  Zn116  1  0.31811011  0.31121562  0.81575008  1
  Zn  Zn117  1  0.31514485  0.81434952  0.31207951  1
  Zn  Zn118  1  0.31757666  0.81049966  0.81100858  1
  Zn  Zn119  1  0.81269746  0.31203016  0.31196684  1
  Zn  Zn120  1  0.79898803  0.31547712  0.80582984  1
  Zn  Zn121  1  0.81718163  0.81141791  0.31118364  1
  Zn  Zn122  1  0.82912075  0.81414636  0.80730426  1
  Zn  Zn123  1  0.18419052  0.43675898  0.43654849  1
  Zn  Zn124  1  0.18966955  0.44568434  0.94030412  1
  Zn  Zn125  1  0.18443471  0.93593838  0.43826459  1
  Zn  Zn126  1  0.19188465  0.93889708  0.93744494  1
  Zn  Zn127  1  0.68866613  0.43606726  0.44060777  1
  Zn  Zn128  1  0.68308154  0.43849653  0.94042372  1
  Zn  Zn129  1  0.69092024  0.93787110  0.43975415  1
  Zn  Zn130  1  0.68985588  0.94225286  0.93896793  1
  Zn  Zn131  1  0.31531911  0.06506808  0.06527997  1
  Zn  Zn132  1  0.31283843  0.06128460  0.56232852  1
  Zn  Zn133  1  0.31211303  0.56401271  0.06000134  1
  Zn  Zn134  1  0.30912674  0.56534137  0.56280564  1
  Zn  Zn135  1  0.81061252  0.05707480  0.06113742  1
  Zn  Zn136  1  0.81556927  0.06240135  0.56202983  1
  Zn  Zn137  1  0.80883674  0.56354455  0.05931554  1
  Zn  Zn138  1  0.80800714  0.56013253  0.56556120  1
  Zn  Zn139  1  0.43633687  0.44019024  0.18755850  1
  Zn  Zn140  1  0.44277327  0.43680815  0.68647947  1
  Zn  Zn141  1  0.43806259  0.93733057  0.18617816  1
  Zn  Zn142  1  0.43762663  0.93695087  0.68522580  1
  Zn  Zn143  1  0.93894349  0.43590768  0.18563206  1
  Zn  Zn144  1  0.94071848  0.43968683  0.69861411  1
  Zn  Zn145  1  0.93701932  0.93672401  0.19051764  1
  Zn  Zn146  1  0.93807034  0.93520175  0.68650079  1
  Zn  Zn147  1  0.06694789  0.06140390  0.31872591  1
  Zn  Zn148  1  0.06496203  0.06203269  0.81331866  1
  Zn  Zn149  1  0.06001824  0.55869912  0.30794206  1
  Zn  Zn150  1  0.04226695  0.57850497  0.85084563  1
  Zn  Zn151  1  0.56530664  0.06387275  0.31047309  1
  Zn  Zn152  1  0.55926278  0.05991388  0.81257189  1
  Zn  Zn153  1  0.55794126  0.56555200  0.31458334  1
  Zn  Zn154  1  0.56343167  0.56155419  0.80324850  1
  Zn  Zn155  1  0.43377531  0.18748790  0.43675086  1
  Zn  Zn156  1  0.44119140  0.18969823  0.93708753  1
  Zn  Zn157  1  0.43967137  0.68747126  0.43530809  1
  Zn  Zn158  1  0.44185003  0.68850732  0.93483208  1
  Zn  Zn159  1  0.93814542  0.18655923  0.43952607  1
  Zn  Zn160  1  0.93591733  0.18855644  0.94289865  1
  Zn  Zn161  1  0.93622121  0.68554961  0.43866891  1
  Zn  Zn162  1  0.93548581  0.69214889  0.93989350  1
  Zn  Zn163  1  0.03860274  0.31656475  0.06810429  1
  Zn  Zn164  1  0.05890177  0.31357263  0.56491851  1
  Zn  Zn165  1  0.06302112  0.80884774  0.06739024  1
  Zn  Zn166  1  0.05904245  0.80983979  0.56116286  1
  Zn  Zn167  1  0.56636615  0.31663202  0.05852962  1
  Zn  Zn168  1  0.55704443  0.31005593  0.55757853  1
  Zn  Zn169  1  0.56333569  0.81069744  0.06062226  1
  Zn  Zn170  1  0.56626230  0.81247593  0.56296213  1
  O  O171  1  0.13153157  0.11351867  0.12033132  1
  O  O172  1  0.12499730  0.10969134  0.63315902  1
  O  O173  1  0.10880803  0.62551255  0.12516560  1
  O  O174  1  0.11867653  0.61723040  0.62063887  1
  O  O175  1  0.61050201  0.12436967  0.13078931  1
  O  O176  1  0.62074645  0.11948498  0.61709615  1
  O  O177  1  0.62517104  0.61329200  0.13601081  1
  O  O178  1  0.62530577  0.61644258  0.60902681  1
  O  O179  1  0.37939609  0.38202350  0.38185694  1
  O  O180  1  0.38712567  0.37723773  0.87703485  1
  O  O181  1  0.38353512  0.87737650  0.38179316  1
  O  O182  1  0.38381483  0.87824274  0.88284541  1
  O  O183  1  0.88199906  0.37334171  0.38359625  1
  O  O184  1  0.86623640  0.36993215  0.88500817  1
  O  O185  1  0.88503645  0.88375334  0.37467852  1
  O  O186  1  0.88998930  0.88418967  0.88164488  1
  O  O187  1  0.24889899  0.00685393  0.37025562  1
  O  O188  1  0.25461413  0.01142290  0.87219138  1
  O  O189  1  0.26186368  0.49700247  0.37631486  1
  O  O190  1  0.25601199  0.50351800  0.86491544  1
  O  O191  1  0.75937781  -0.00000414  0.36770571  1
  O  O192  1  0.75878249  0.00858760  0.87155220  1
  O  O193  1  0.75064739  0.51026166  0.37557061  1
  O  O194  1  0.75077222  0.49718180  0.86283116  1
  O  O195  1  0.25141394  0.50074295  0.13422419  1
  O  O196  1  0.23860379  0.49274124  0.61993874  1
  O  O197  1  0.24323329  0.99443670  0.13403249  1
  O  O198  1  0.24412805  0.98920882  0.62434661  1
  O  O199  1  0.74320667  0.48972179  0.12374099  1
  O  O200  1  0.73504443  0.49206294  0.62382460  1
  O  O201  1  0.74877050  0.99021727  0.13213978  1
  O  O202  1  0.74294047  0.99633755  0.62639216  1
  O  O203  1  -0.00816971  0.36346079  0.26199830  1
  O  O204  1  0.01519243  0.37381018  0.76676802  1
  O  O205  1  0.00702544  0.86624421  0.25565064  1
  O  O206  1  0.00796418  0.87044514  0.75832996  1
  O  O207  1  0.50566520  0.36957101  0.25565740  1
  O  O208  1  0.49478090  0.36472608  0.76008755  1
  O  O209  1  0.50614001  0.86998551  0.25565442  1
  O  O210  1  0.49275703  0.86778629  0.75801130  1
  O  O211  1  0.49781114  0.13471844  0.24508740  1
  O  O212  1  0.49324690  0.13077271  0.74448839  1
  O  O213  1  0.48904450  0.63389243  0.24927938  1
  O  O214  1  0.49063475  0.63409771  0.74542147  1
  O  O215  1  1.00158528  0.13297435  0.25653219  1
  O  O216  1  0.99110879  0.13362671  0.75172079  1
  O  O217  1  0.99044924  0.62848447  0.24430115  1
  O  O218  1  1.00907344  0.63434069  0.74725991  1
  O  O219  1  0.37670995  0.25100889  0.01370400  1
  O  O220  1  0.36592764  0.25582020  0.50548855  1
  O  O221  1  0.37342928  0.75964333  0.00615602  1
  O  O222  1  0.36949598  0.75298707  0.50460463  1
  O  O223  1  0.87033897  0.25673335  0.01272157  1
  O  O224  1  0.87075917  0.25606045  0.50826729  1
  O  O225  1  0.86970610  0.76394185  0.00145202  1
  O  O226  1  0.88785620  0.75714669  0.50755213  1
  O  O227  1  0.13551587  0.25252190  0.49720216  1
  O  O228  1  0.13165202  0.24619717  1.00940375  1
  O  O229  1  0.13136084  0.73727917  0.50311397  1
  O  O230  1  0.14086759  0.75845877  1.00288097  1
  O  O231  1  0.63286775  0.24572869  0.49640074  1
  O  O232  1  0.62757333  0.24610307  0.99933685  1
  O  O233  1  0.61821872  0.73931933  0.48960441  1
  O  O234  1  0.62623854  0.73597811  1.00148377  1
  O  O235  1  0.49331811  0.24637130  0.13084937  1
  O  O236  1  0.49447723  0.24448760  0.63047011  1
  O  O237  1  0.48832187  0.75225298  0.13170509  1
  O  O238  1  0.48617875  0.76190934  0.62930177  1
  O  O239  1  0.98243093  0.24798654  0.13524190  1
  O  O240  1  0.99474585  0.24890056  0.63893435  1
  O  O241  1  0.99548146  0.74505901  0.13625037  1
  O  O242  1  1.00631085  0.73780033  0.63422124  1
  O  O243  1  0.00618185  0.25121945  0.37071375  1
  O  O244  1  0.00276345  0.24822408  0.86641306  1
  O  O245  1  -0.00314461  0.75899429  0.36314942  1
  O  O246  1  -0.00215969  0.75843990  0.86722835  1
  O  O247  1  0.50436969  0.25571995  0.36869250  1
  O  O248  1  0.50144486  0.25766755  0.86608695  1
  O  O249  1  0.50898815  0.75600712  0.36872506  1
  O  O250  1  0.49602825  0.76106434  0.86174115  1
  O  O251  1  0.25534764  0.13453608  0.49333371  1
  O  O252  1  0.23931135  0.11891126  0.99491099  1
  O  O253  1  0.23519659  0.63313591  0.50393820  1
  O  O254  1  0.25253257  0.64185177  1.00090704  1
  O  O255  1  0.74666543  0.13565577  0.49804170  1
  O  O256  1  0.75584657  0.12291781  0.98368825  1
  O  O257  1  0.74174757  0.62160189  0.49074770  1
  O  O258  1  0.73216958  0.62997525  1.00375797  1
  O  O259  1  0.25130420  0.37157533  0.00067409  1
  O  O260  1  0.25396723  0.36730522  0.50602553  1
  O  O261  1  0.25939135  0.87218407  0.00622096  1
  O  O262  1  0.25370688  0.86894768  0.50515394  1
  O  O263  1  0.75278509  0.37208720  0.00942253  1
  O  O264  1  0.75943317  0.36112769  0.49502743  1
  O  O265  1  0.75836329  0.87811901  0.00794807  1
  O  O266  1  0.75149381  0.87812314  0.51599978  1
  O  O267  1  0.14292349  0.50433065  0.25428659  1
  O  O268  1  0.13774192  0.49570300  0.74590746  1
  O  O269  1  0.13400655  0.99378321  0.24685856  1
  O  O270  1  0.12536530  0.98846715  0.74209798  1
  O  O271  1  0.61828532  0.48961120  0.24721867  1
  O  O272  1  0.62486304  0.49727314  0.73128746  1
  O  O273  1  0.63315477  0.99070602  0.24994092  1
  O  O274  1  0.62445579  1.00584292  0.73430932  1
  O  O275  1  0.36179603  -0.00186943  0.25147411  1
  O  O276  1  0.37524929  0.01373624  0.74754907  1
  O  O277  1  0.36926567  0.50784615  0.25760318  1
  O  O278  1  0.38050699  0.51730153  0.74309893  1
  O  O279  1  0.86631891  -0.00430787  0.25857758  1
  O  O280  1  0.87892708  0.00961695  0.75585276  1
  O  O281  1  0.87858955  0.51231761  0.25181519  1
  O  O282  1  0.85779834  0.49284685  0.75940462  1
  O  O283  1  0.11601236  0.36133988  0.38124154  1
  O  O284  1  0.12941973  0.36428508  0.86856087  1
  O  O285  1  0.11674857  0.87931211  0.36253689  1
  O  O286  1  0.11578913  0.88266242  0.86839090  1
  O  O287  1  0.62083846  0.37077563  0.36851710  1
  O  O288  1  0.61037474  0.37290206  0.87642522  1
  O  O289  1  0.62412090  0.86695103  0.37200958  1
  O  O290  1  0.61055884  0.88644111  0.87439485  1
  O  O291  1  0.38334986  0.13688415  0.12992236  1
  O  O292  1  0.38065649  0.12968918  0.63041017  1
  O  O293  1  0.37824854  0.63425509  0.13184650  1
  O  O294  1  0.37258885  0.63706126  0.62911393  1
  O  O295  1  0.86623540  0.13802357  0.12133269  1
  O  O296  1  0.87908061  0.13480594  0.63389148  1
  O  O297  1  0.87845973  0.62353133  0.13359838  1
  O  O298  1  0.89234354  0.61778239  0.62024634  1
  O  O299  1  0.25870798  0.24898783  0.13019415  1
  O  O300  1  0.25311484  0.25369362  0.61795617  1
  O  O301  1  0.26115240  0.75589577  0.12108177  1
  O  O302  1  0.25711457  0.76129492  0.61545266  1
  O  O303  1  0.75892647  0.25990480  0.12832490  1
  O  O304  1  0.76128959  0.24637709  0.61758228  1
  O  O305  1  0.75374298  0.76378134  0.12671340  1
  O  O306  1  0.75046594  0.76077292  0.62916883  1
  O  O307  1  0.24350921  0.24582891  0.38050891  1
  O  O308  1  0.25040816  0.23458580  0.87211320  1
  O  O309  1  0.25282538  0.75476928  0.38707887  1
  O  O310  1  0.25417710  0.75740238  0.88841138  1
  O  O311  1  0.74370132  0.24742988  0.38117383  1
  O  O312  1  0.74790281  0.23500736  0.87327898  1
  O  O313  1  0.74031065  0.74269894  0.36961584  1
  O  O314  1  0.74876244  0.76633830  0.86673434  1
  O  O315  1  0.01692684  0.12018461  -0.00392499  1
  O  O316  1  -0.00112093  0.11110074  0.50276621  1
  O  O317  1  -0.00551125  0.62732470  0.01223706  1
  O  O318  1  0.01197071  0.62117248  0.50836461  1
  O  O319  1  0.49124098  0.11445349  0.00876637  1
  O  O320  1  0.50531185  0.12170704  0.50506105  1
  O  O321  1  0.51312870  0.62626900  0.00235440  1
  O  O322  1  0.50957488  0.61294972  0.49075401  1
  O  O323  1  0.49191818  0.38283216  0.49297324  1
  O  O324  1  0.49759294  0.37886986  0.98620269  1
  O  O325  1  0.49690936  0.88060494  0.49410870  1
  O  O326  1  0.49350768  0.87943498  0.99380262  1
  O  O327  1  0.99201895  0.37252764  0.49026745  1
  O  O328  1  0.98704407  0.37191155  0.98528445  1
  O  O329  1  1.00487907  0.88352563  0.48916988  1
  O  O330  1  0.99589626  0.87812193  0.99566474  1
  O  O331  1  0.49121712  0.49472849  0.38223971  1
  O  O332  1  0.49898706  0.48957797  0.86963460  1
  O  O333  1  0.50078008  0.99479790  0.38058292  1
  O  O334  1  0.49452251  0.99630581  0.88342253  1
  O  O335  1  0.99767931  0.48852553  0.37728559  1
  O  O336  1  0.96477447  0.49623388  0.85535702  1
  O  O337  1  0.99638308  0.99216658  0.38012030  1
  O  O338  1  0.99835553  0.99431000  0.88345916  1
  O  O339  1  0.01202077  -0.00528687  0.12267994  1
  O  O340  1  0.00813764  -0.00124868  0.61693877  1
  O  O341  1  0.00037683  0.50881416  0.12349178  1
  O  O342  1  0.01347511  0.50299481  0.62892673  1
  O  O343  1  0.49961460  0.00923776  0.11948253  1
  O  O344  1  0.50783282  0.00377369  0.61752342  1
  O  O345  1  0.51038400  0.50174880  0.12382489  1
  O  O346  1  0.51129721  0.49432030  0.61281738  1
  O  O347  1  0.25427996  0.39040668  0.25072192  1
  O  O348  1  0.24033811  0.36396754  0.74398429  1
  O  O349  1  0.24306439  0.87952997  0.24679207  1
  O  O350  1  0.24518109  0.87540560  0.74180269  1
  O  O351  1  0.74001412  0.37165134  0.24289369  1
  O  O352  1  0.74189265  0.38841717  0.74241204  1
  O  O353  1  0.74673606  0.88181172  0.24422852  1
  O  O354  1  0.74907075  0.87850968  0.73748811  1
  O  O355  1  0.25199711  0.11505029  0.25935626  1
  O  O356  1  0.25886435  0.12247755  0.75637574  1
  O  O357  1  0.26161641  0.61945231  0.24630339  1
  O  O358  1  0.26110834  0.62592324  0.73901790  1
  O  O359  1  0.74208691  0.11092653  0.25004148  1
  O  O360  1  0.76353604  0.12282161  0.75755202  1
  O  O361  1  0.76513624  0.62893589  0.25714194  1
  O  O362  1  0.74542936  0.59734214  0.73437269  1
  O  O363  1  0.36235810  0.12384643  0.37161195  1
  O  O364  1  0.37102418  0.12473113  0.86792913  1
  O  O365  1  0.37826948  0.61719830  0.36645178  1
  O  O366  1  0.37880312  0.62577056  0.85614502  1
  O  O367  1  0.87495798  0.11057329  0.37911405  1
  O  O368  1  0.87013324  0.12133304  0.86934881  1
  O  O369  1  0.86897037  0.62087972  0.36678069  1
  O  O370  1  0.86695170  0.61778577  0.87897161  1
  O  O371  1  0.13534042  0.36189585  0.11399958  1
  O  O372  1  0.12741836  0.38263344  0.63327138  1
  O  O373  1  0.12964767  0.88175273  0.13680279  1
  O  O374  1  0.13199542  0.88106844  0.63023085  1
  O  O375  1  0.63128037  0.38613561  0.13206467  1
  O  O376  1  0.62258174  0.38175960  0.61685636  1
  O  O377  1  0.63248335  0.87593823  0.13145870  1
  O  O378  1  0.63716627  0.88382766  0.61980633  1
  O  O379  1  0.11313545  0.24835309  0.25962307  1
  O  O380  1  0.11619301  0.25665573  0.74957310  1
  O  O381  1  0.11854025  0.75664914  0.24513913  1
  O  O382  1  0.11831816  0.76542445  0.74374655  1
  O  O383  1  0.61409277  0.26044384  0.25226377  1
  O  O384  1  0.61317660  0.24222346  0.75049355  1
  O  O385  1  0.62028522  0.75579248  0.25793136  1
  O  O386  1  0.60911577  0.74657958  0.73620897  1
  O  O387  1  0.38663569  0.25197010  0.24502360  1
  O  O388  1  0.38197702  0.23902106  0.74291830  1
  O  O389  1  0.37782224  0.74508509  0.24321012  1
  O  O390  1  0.38127097  0.74188456  0.73996382  1
  O  O391  1  0.87839733  0.24891154  0.23884630  1
  O  O392  1  0.88037426  0.24788894  0.74599032  1
  O  O393  1  0.88382098  0.73807682  0.24813277  1
  O  O394  1  0.89506671  0.75418555  0.73700257  1
  O  O395  1  0.38106406  0.49934537  0.49568980  1
  O  O396  1  0.37956916  0.50009683  0.99549762  1
  O  O397  1  0.38368043  0.99316567  0.49924531  1
  O  O398  1  0.38219265  0.98764341  1.00404808  1
  O  O399  1  0.87535711  0.48521545  0.50157491  1
  O  O400  1  0.86096750  0.49334753  0.98061937  1
  O  O401  1  0.88427012  0.99425534  0.49276349  1
  O  O402  1  0.88293678  0.99147596  0.99675709  1
  O  O403  1  0.12297798  0.00436747  0.01087614  1
  O  O404  1  0.11737933  -0.00410154  0.51000669  1
  O  O405  1  0.08804704  0.49224449  -0.06847892  1
  O  O406  1  0.12415653  0.50970212  0.50708535  1
  O  O407  1  0.61091828  -0.00329686  0.00485721  1
  O  O408  1  0.62067257  0.00711389  0.50590171  1
  O  O409  1  0.62254734  0.51347397  0.00839015  1
  O  O410  1  0.61817226  0.50300225  0.50545436  1
  O  O411  1  0.38092738  0.36042605  0.12340435  1
  O  O412  1  0.37018084  0.37012314  0.62016796  1
  O  O413  1  0.37048720  0.86821408  0.11889189  1
  O  O414  1  0.36567556  0.86997618  0.61844528  1
  O  O415  1  0.86833482  0.37221652  0.11628648  1
  O  O416  1  0.88630548  0.36432407  0.62018092  1
  O  O417  1  0.86940595  0.87542478  0.11669967  1
  O  O418  1  0.86032735  0.87800512  0.62405632  1
  O  O419  1  0.13807352  0.13555713  0.37508844  1
  O  O420  1  0.13369555  0.12665191  0.88390736  1
  O  O421  1  0.11776158  0.62202090  0.38931017  1
  O  O422  1  0.14578911  0.62469904  0.84871837  1
  O  O423  1  0.62657571  0.13293747  0.38243505  1
  O  O424  1  0.64108317  0.12042510  0.86804210  1
  O  O425  1  0.63366459  0.63000572  0.37891843  1
  O  O426  1  0.62247387  0.62318246  0.88122400  1
