# generated using pymatgen
data_V85Zn86O256
_symmetry_space_group_name_H-M   'P 1'
_cell_length_a   16.97200190
_cell_length_b   16.95122260
_cell_length_c   16.96720502
_cell_angle_alpha   89.95530277
_cell_angle_beta   89.96135053
_cell_angle_gamma   90.09076818
_symmetry_Int_Tables_number   1
_chemical_formula_structural   V85Zn86O256
_chemical_formula_sum   'V85 Zn86 O256'
_cell_volume   4881.39138006
_cell_formula_units_Z   1
loop_
 _symmetry_equiv_pos_site_id
 _symmetry_equiv_pos_as_xyz
  1  'x, y, z'
loop_
 _atom_site_type_symbol
 _atom_site_label
 _atom_site_symmetry_multiplicity
 _atom_site_fract_x
 _atom_site_fract_y
 _atom_site_fract_z
 _atom_site_occupancy
  V  V0  1  0.49258276  0.62879391  0.12913863  1
  V  V1  1  0.75430606  0.12279911  0.86238847  1
  V  V2  1  0.00486727  0.12404125  0.11810283  1
  V  V3  1  0.86025136  0.86507032  0.50836106  1
  V  V4  1  0.87936199  0.24527434  0.63627704  1
  V  V5  1  0.87495050  0.37182519  0.49596087  1
  V  V6  1  0.37920757  0.25041451  0.12933951  1
  V  V7  1  0.87429543  0.00147644  0.85700944  1
  V  V8  1  0.50575138  0.36946972  0.36350265  1
  V  V9  1  0.49936283  -0.00325617  0.00068647  1
  V  V10  1  0.50053524  0.37670921  0.87847669  1
  V  V11  1  0.75170995  -0.00137803  0.25013551  1
  V  V12  1  0.37648396  0.37597984  0.49734530  1
  V  V13  1  0.12515033  0.50961487  0.11761942  1
  V  V14  1  0.12288887  0.74972259  0.88054314  1
  V  V15  1  0.00295275  0.87542067  0.87585643  1
  V  V16  1  0.50508785  0.00149571  0.50405366  1
  V  V17  1  0.75172059  0.75562178  -0.00614817  1
  V  V18  1  0.37467780  0.50638266  0.36687609  1
  V  V19  1  0.62911861  0.49649729  0.62085655  1
  V  V20  1  0.00094597  0.50059401  0.49513876  1
  V  V21  1  0.62675680  0.74288402  0.37334074  1
  V  V22  1  0.37346401  0.00090579  0.37656146  1
  V  V23  1  0.62385854  0.12875100  0.49969213  1
  V  V24  1  0.12853871  -0.01519714  0.12500882  1
  V  V25  1  0.00276527  0.75278305  0.74755515  1
  V  V26  1  0.88009999  0.12339231  0.25081055  1
  V  V27  1  0.24786700  0.25068504  0.49991119  1
  V  V28  1  0.24675073  0.62661559  0.37093208  1
  V  V29  1  0.62462995  0.25231815  0.87724372  1
  V  V30  1  -0.01037933  0.62365960  0.12935903  1
  V  V31  1  0.62501860  0.86999188  0.25173524  1
  V  V32  1  0.68344698  0.67393193  0.54550041  1
  V  V33  1  0.12081473  0.12431967  0.50052587  1
  V  V34  1  0.37815456  0.12828527  0.25107785  1
  V  V35  1  0.50279618  0.25407247  0.74810261  1
  V  V36  1  -0.00061563  0.62972660  0.62523227  1
  V  V37  1  0.24764545  0.37044560  0.11904551  1
  V  V38  1  0.00317789  0.24869565  0.24835157  1
  V  V39  1  0.50255633  0.50538915  0.49799462  1
  V  V40  1  0.24218034  0.62631156  0.88055534  1
  V  V41  1  0.87135183  0.75448219  0.12824549  1
  V  V42  1  0.75210435  0.24970422  -0.00100235  1
  V  V43  1  0.75622307  0.50141598  0.24661689  1
  V  V44  1  0.87855005  0.37574509  0.00147145  1
  V  V45  1  0.75554746  0.62636396  0.36645994  1
  V  V46  1  0.87717733  0.24875592  0.12239952  1
  V  V47  1  0.37353859  0.36689987  -0.00063483  1
  V  V48  1  0.13722586  0.24638232  0.87873909  1
  V  V49  1  0.12006417  0.36827195  0.75006692  1
  V  V50  1  0.37137955  0.00520577  0.87704829  1
  V  V51  1  0.75250763  0.37409592  0.62832192  1
  V  V52  1  0.50072919  0.87229085  0.37507369  1
  V  V53  1  -0.00949730  -0.00315786  0.00133423  1
  V  V54  1  0.24795401  0.01111986  0.75498481  1
  V  V55  1  0.74464653  0.37216513  0.12989257  1
  V  V56  1  0.37314425  0.50281449  0.87717336  1
  V  V57  1  0.62537000  -0.00255136  0.12396945  1
  V  V58  1  0.12393795  0.50063521  0.62533481  1
  V  V59  1  0.37944246  0.62858582  0.75051104  1
  V  V60  1  0.37055554  0.87652907  0.50394032  1
  V  V61  1  0.50890717  0.86649666  0.86998606  1
  V  V62  1  0.62334464  0.49717549  0.12878211  1
  V  V63  1  0.75200331  0.12336067  0.37662486  1
  V  V64  1  0.14036821  0.12634528  -0.00021586  1
  V  V65  1  0.62778400  0.12787447  -0.00033790  1
  V  V66  1  -0.00434957  0.76069964  0.25682232  1
  V  V67  1  0.86992458  0.49976714  0.87262317  1
  V  V68  1  0.49778409  0.50049569  -0.00366314  1
  V  V69  1  0.62678582  0.62766874  -0.00590300  1
  V  V70  1  0.62598833  0.38601494  0.75186821  1
  V  V71  1  0.12384958  0.76488968  0.37246652  1
  V  V72  1  0.88028084  -0.00943777  0.37463883  1
  V  V73  1  0.24591431  0.87480976  0.63705224  1
  V  V74  1  0.12508493  0.25090451  0.37347233  1
  V  V75  1  0.87025460  0.62320882  0.74668037  1
  V  V76  1  -0.00173358  0.36713176  0.87213300  1
  V  V77  1  0.49813853  0.12378660  0.62841544  1
  V  V78  1  0.12247964  -0.00293007  0.63108630  1
  V  V79  1  0.00111341  -0.01066234  0.49729843  1
  V  V80  1  0.37369840  0.75058100  0.63127379  1
  V  V81  1  0.24733183  -0.01223610  0.24668337  1
  V  V82  1  0.24977786  0.37612791  0.62379159  1
  V  V83  1  0.12632503  0.37749554  0.24707843  1
  V  V84  1  0.24925489  0.50093308  0.74947613  1
  Zn  Zn85  1  0.55333272  0.79163764  0.71717882  1
  Zn  Zn86  1  0.37090560  0.13348145  0.75765303  1
  Zn  Zn87  1  0.74948596  0.62310428  0.87409838  1
  Zn  Zn88  1  0.36422145  0.87268194  0.00264671  1
  Zn  Zn89  1  0.35675484  0.76766455  0.13485517  1
  Zn  Zn90  1  0.50598156  0.13265522  0.13149979  1
  Zn  Zn91  1  0.49292533  0.73921033  0.25414474  1
  Zn  Zn92  1  -0.00140234  0.37752695  0.37057932  1
  Zn  Zn93  1  -0.00347790  0.12381451  0.63757370  1
  Zn  Zn94  1  0.50097819  0.62811437  0.62070458  1
  Zn  Zn95  1  0.25242735  0.50433380  0.24557372  1
  Zn  Zn96  1  0.00312215  0.51249613  -0.00622276  1
  Zn  Zn97  1  0.24823830  0.12497249  0.37300914  1
  Zn  Zn98  1  0.87796554  0.50207479  0.36774497  1
  Zn  Zn99  1  0.24392177  0.75583170  0.01043249  1
  Zn  Zn100  1  0.68371558  -0.07676623  0.72559816  1
  Zn  Zn101  1  0.74948646  0.25126364  0.49723351  1
  Zn  Zn102  1  0.75261705  0.87547240  0.12038731  1
  Zn  Zn103  1  0.12331731  0.62805527  0.49799945  1
  Zn  Zn104  1  0.62521298  0.24968300  0.36139118  1
  Zn  Zn105  1  0.24495932  0.74911896  0.50332517  1
  Zn  Zn106  1  0.37425587  0.25277466  0.62708500  1
  Zn  Zn107  1  0.19464357  0.18482681  0.18567215  1
  Zn  Zn108  1  0.18162212  0.18741805  0.68620792  1
  Zn  Zn109  1  0.18135519  0.68969066  0.19388250  1
  Zn  Zn110  1  0.18489747  0.68765978  0.69302744  1
  Zn  Zn111  1  0.69158577  0.18350005  0.18798522  1
  Zn  Zn112  1  0.68620962  0.08782550  0.68385670  1
  Zn  Zn113  1  0.68428830  0.68449383  0.18383928  1
  Zn  Zn114  1  0.72091089  0.74360698  0.71447160  1
  Zn  Zn115  1  0.31188177  0.31523501  0.31112842  1
  Zn  Zn116  1  0.31245593  0.31481025  0.81196150  1
  Zn  Zn117  1  0.31411124  0.80879795  0.31228822  1
  Zn  Zn118  1  0.31200000  0.81878264  0.82276142  1
  Zn  Zn119  1  0.81300425  0.31121008  0.31124378  1
  Zn  Zn120  1  0.80589812  0.31621895  0.81108405  1
  Zn  Zn121  1  0.81160093  0.81155250  0.31506921  1
  Zn  Zn122  1  0.82889166  0.81289819  0.82319720  1
  Zn  Zn123  1  0.18699811  0.43951692  0.43501523  1
  Zn  Zn124  1  0.18659841  0.43724078  0.93816707  1
  Zn  Zn125  1  0.19103381  0.93844346  0.44114476  1
  Zn  Zn126  1  0.18218593  0.93884171  0.93568682  1
  Zn  Zn127  1  0.68801771  0.43906829  0.43601590  1
  Zn  Zn128  1  0.68774551  0.44000639  0.94235385  1
  Zn  Zn129  1  0.68418864  0.93001307  0.56154850  1
  Zn  Zn130  1  0.68882093  0.93721468  0.93159148  1
  Zn  Zn131  1  0.31624866  0.05634334  0.06893989  1
  Zn  Zn132  1  0.31168108  0.06541713  0.56572918  1
  Zn  Zn133  1  0.30884005  0.56760092  0.06338969  1
  Zn  Zn134  1  0.31129271  0.56475781  0.55697924  1
  Zn  Zn135  1  0.81202481  0.06389852  0.06139157  1
  Zn  Zn136  1  0.81510220  0.05910980  0.56152751  1
  Zn  Zn137  1  0.81418899  0.56439410  0.06175577  1
  Zn  Zn138  1  0.81869254  0.55643566  0.56390510  1
  Zn  Zn139  1  0.43332023  0.44392458  0.18377998  1
  Zn  Zn140  1  0.43824888  0.44174865  0.68646767  1
  Zn  Zn141  1  0.43891735  0.93629713  0.18921420  1
  Zn  Zn142  1  0.43414296  0.94183218  0.69139224  1
  Zn  Zn143  1  0.93848224  0.43727581  0.18604032  1
  Zn  Zn144  1  0.93792991  0.44005614  0.68688790  1
  Zn  Zn145  1  0.93931128  0.93474261  0.18524533  1
  Zn  Zn146  1  0.93659758  0.93171623  0.68344456  1
  Zn  Zn147  1  0.06559803  0.05954519  0.31167878  1
  Zn  Zn148  1  0.06715887  0.06072015  0.81560136  1
  Zn  Zn149  1  0.06364240  0.56824491  0.30851489  1
  Zn  Zn150  1  0.05957459  0.55918902  0.81267631  1
  Zn  Zn151  1  0.56263965  0.06133583  0.31305023  1
  Zn  Zn152  1  0.55751955  0.06286373  0.81774912  1
  Zn  Zn153  1  0.56758853  0.55763942  0.31077741  1
  Zn  Zn154  1  0.59260404  0.60627261  0.78121028  1
  Zn  Zn155  1  0.43618644  0.18956878  0.43671528  1
  Zn  Zn156  1  0.43931533  0.18568131  0.94117332  1
  Zn  Zn157  1  0.43202049  0.68928429  0.43843405  1
  Zn  Zn158  1  0.43175438  0.69083863  0.94411885  1
  Zn  Zn159  1  0.94058017  0.18652230  0.43900504  1
  Zn  Zn160  1  0.94049944  0.18644671  0.81391719  1
  Zn  Zn161  1  0.93604757  0.68777652  0.43547664  1
  Zn  Zn162  1  0.93578201  0.68788915  0.94185691  1
  Zn  Zn163  1  0.06355403  0.31059813  0.05822836  1
  Zn  Zn164  1  0.05889878  0.31362363  0.56195282  1
  Zn  Zn165  1  0.05823716  0.80849162  0.06023182  1
  Zn  Zn166  1  0.06134728  0.81323427  0.56060840  1
  Zn  Zn167  1  0.56291739  0.31372231  0.18642070  1
  Zn  Zn168  1  0.56309245  0.31216043  0.55897396  1
  Zn  Zn169  1  0.56247421  0.81139116  0.05971878  1
  Zn  Zn170  1  0.55638308  0.81299299  0.55626738  1
  O  O171  1  0.12196984  0.12072909  0.11711871  1
  O  O172  1  0.12367710  0.11416394  0.61651385  1
  O  O173  1  0.11363142  0.61258139  0.13126022  1
  O  O174  1  0.11767744  0.61774287  0.62327609  1
  O  O175  1  0.62734248  0.11666491  0.11467436  1
  O  O176  1  0.60830359  0.13295785  0.61091864  1
  O  O177  1  0.61798711  0.61425690  0.11346327  1
  O  O178  1  0.62413652  0.61503837  0.60883070  1
  O  O179  1  0.38247258  0.38232721  0.37962542  1
  O  O180  1  0.37728094  0.38238381  0.88279028  1
  O  O181  1  0.37809093  0.88471697  0.38314646  1
  O  O182  1  0.38566789  0.88984635  0.87851668  1
  O  O183  1  0.87698757  0.37831070  0.38168533  1
  O  O184  1  0.87999811  0.37830044  0.88027725  1
  O  O185  1  0.87191437  0.88819690  0.37876129  1
  O  O186  1  0.88680709  0.89293504  0.87885652  1
  O  O187  1  0.25707648  0.00261099  0.36834987  1
  O  O188  1  0.25595571  -0.00172117  0.86395851  1
  O  O189  1  0.25842969  0.50660356  0.37455180  1
  O  O190  1  0.25254050  0.50538878  0.86858808  1
  O  O191  1  0.76329745  0.01461537  0.36598521  1
  O  O192  1  0.76653198  0.00660791  0.87902524  1
  O  O193  1  0.74665643  0.50494267  0.36159553  1
  O  O194  1  0.76582058  0.49922277  0.88005670  1
  O  O195  1  0.24010974  0.49572301  0.12587862  1
  O  O196  1  0.24341719  0.49534427  0.62785751  1
  O  O197  1  0.24360852  1.00015065  0.13835941  1
  O  O198  1  0.24318365  0.99542364  0.63171324  1
  O  O199  1  0.74374470  0.49281487  0.12701967  1
  O  O200  1  0.74256936  0.48583935  0.61620222  1
  O  O201  1  0.74158460  0.99779696  0.12908842  1
  O  O202  1  0.74154013  1.00553655  0.62621350  1
  O  O203  1  0.00895213  0.36725775  0.24750831  1
  O  O204  1  0.01020984  0.38169248  0.75756145  1
  O  O205  1  0.00140781  0.85957563  0.24721881  1
  O  O206  1  -0.00821510  0.86266939  0.75761490  1
  O  O207  1  0.49755870  0.38113549  0.25968083  1
  O  O208  1  0.50389031  0.37433910  0.75781232  1
  O  O209  1  0.51412026  0.88207978  0.25963506  1
  O  O210  1  0.49398322  0.87632858  0.76354247  1
  O  O211  1  0.48365488  0.11517640  0.24895412  1
  O  O212  1  0.49853752  0.13665758  0.74258464  1
  O  O213  1  0.50781642  0.61947428  0.23244461  1
  O  O214  1  0.48089293  0.61530559  0.74371151  1
  O  O215  1  0.99987591  0.12819255  0.23884532  1
  O  O216  1  1.00981307  0.12885356  0.74945651  1
  O  O217  1  1.00211866  0.63573901  0.23615288  1
  O  O218  1  0.99576746  0.62681992  0.74075912  1
  O  O219  1  0.37807065  0.26203351  0.00539345  1
  O  O220  1  0.36830640  0.26241455  0.49899715  1
  O  O221  1  0.36724453  0.75229744  0.01032129  1
  O  O222  1  0.36984849  0.75747861  0.51316983  1
  O  O223  1  0.86675229  0.26130327  0.00746662  1
  O  O224  1  0.87740202  0.26235516  0.50309315  1
  O  O225  1  0.86017133  0.74423375  0.01194071  1
  O  O226  1  0.87783117  0.76748084  0.49000645  1
  O  O227  1  0.12709506  0.24436868  0.49562696  1
  O  O228  1  0.12371427  0.23554950  0.99465131  1
  O  O229  1  0.12201559  0.74926921  0.48594883  1
  O  O230  1  0.12152975  0.74882961  0.98419040  1
  O  O231  1  0.62550751  0.24035996  0.49096248  1
  O  O232  1  0.63331461  0.23813067  0.99478525  1
  O  O233  1  0.62355032  0.74236591  0.49159135  1
  O  O234  1  0.63926632  0.73949075  1.00616243  1
  O  O235  1  0.48441928  0.25207347  0.12559586  1
  O  O236  1  0.49838343  0.24830826  0.63353854  1
  O  O237  1  0.50561496  0.73268767  0.12371571  1
  O  O238  1  0.48741752  0.74682612  0.62523866  1
  O  O239  1  0.99757012  0.24215905  0.12810590  1
  O  O240  1  0.98262246  0.25248252  0.62205855  1
  O  O241  1  0.99319162  0.74344012  0.13334833  1
  O  O242  1  1.00685062  0.73821651  0.63138209  1
  O  O243  1  0.00837376  0.25097059  0.36633014  1
  O  O244  1  0.00873963  0.26336219  0.87345275  1
  O  O245  1  0.00790707  0.74535655  0.36392884  1
  O  O246  1  0.00215477  0.75690606  0.87204067  1
  O  O247  1  0.49703725  0.26730841  0.37610928  1
  O  O248  1  0.50513819  0.25643942  0.87207284  1
  O  O249  1  0.50575769  0.75372224  0.37595637  1
  O  O250  1  0.49592942  0.76765496  0.88222254  1
  O  O251  1  0.23827314  0.13146155  0.49993128  1
  O  O252  1  0.23830275  0.11956209  1.00718697  1
  O  O253  1  0.24465247  0.62844990  0.48920171  1
  O  O254  1  0.25074934  0.62241032  0.98203354  1
  O  O255  1  0.74107324  0.12577467  0.49175175  1
  O  O256  1  0.74549834  0.13055831  0.99344010  1
  O  O257  1  0.74428189  0.61135740  0.48947068  1
  O  O258  1  0.74255857  0.63144588  1.00075174  1
  O  O259  1  0.25870087  0.38111174  0.01059939  1
  O  O260  1  0.25602848  0.37182688  0.50334641  1
  O  O261  1  0.25034742  0.86725787  -0.01756299  1
  O  O262  1  0.25667408  0.87649323  0.51423360  1
  O  O263  1  0.75755491  0.37154147  0.01033011  1
  O  O264  1  0.75924835  0.37388095  0.50276494  1
  O  O265  1  0.74308811  0.85957628  0.00074294  1
  O  O266  1  0.76123760  0.87856991  0.49480388  1
  O  O267  1  0.12254375  0.48755204  0.24049333  1
  O  O268  1  0.13095687  0.49001434  0.74610503  1
  O  O269  1  0.13905713  1.00519802  0.24155590  1
  O  O270  1  0.13417356  1.00079262  0.74155380  1
  O  O271  1  0.63496896  0.49951061  0.23502163  1
  O  O272  1  0.61896419  0.50159328  0.73012040  1
  O  O273  1  0.63137139  0.99523282  0.24272633  1
  O  O274  1  0.62980693  1.01466608  0.75061717  1
  O  O275  1  0.36599921  0.00374740  0.25887914  1
  O  O276  1  0.36614257  0.00731209  0.75893939  1
  O  O277  1  0.37217084  0.49791271  0.26316117  1
  O  O278  1  0.36657129  0.50443314  0.75615485  1
  O  O279  1  0.87477128  0.00350823  0.25520679  1
  O  O280  1  0.87967777  0.00034531  0.75874531  1
  O  O281  1  0.86115862  0.49509755  0.24809383  1
  O  O282  1  0.88140485  0.51241635  0.75835981  1
  O  O283  1  0.12450208  0.37004771  0.36352631  1
  O  O284  1  0.11823017  0.36960692  0.87020860  1
  O  O285  1  0.12807258  0.86364122  0.37841702  1
  O  O286  1  0.10972549  0.86882316  0.87096180  1
  O  O287  1  0.60853940  0.37429830  0.37653874  1
  O  O288  1  0.61998222  0.37468852  0.87349453  1
  O  O289  1  0.61898268  0.85780152  0.36667266  1
  O  O290  1  0.60965600  0.88139398  0.87110324  1
  O  O291  1  0.37686152  0.13382035  0.13245674  1
  O  O292  1  0.38664770  0.13281953  0.62488426  1
  O  O293  1  0.39303907  0.61607071  0.12310085  1
  O  O294  1  0.37026209  0.63384070  0.63126852  1
  O  O295  1  0.88450364  0.12897894  0.13004419  1
  O  O296  1  0.87535971  0.14296718  0.61893472  1
  O  O297  1  0.88304575  0.63297096  0.12845896  1
  O  O298  1  0.88427734  0.61694896  0.63784551  1
  O  O299  1  0.26097702  0.26140616  0.12665264  1
  O  O300  1  0.24965265  0.25821769  0.61765783  1
  O  O301  1  0.24967990  0.72914051  0.12020397  1
  O  O302  1  0.25049151  0.75923040  0.62655949  1
  O  O303  1  0.75608389  0.25562258  0.11928200  1
  O  O304  1  0.76714864  0.26523919  0.61730233  1
  O  O305  1  0.75684950  0.74981799  0.12063298  1
  O  O306  1  0.74644421  0.72352432  0.60204938  1
  O  O307  1  0.24281029  0.25064169  0.38237643  1
  O  O308  1  0.23655757  0.25653999  0.87522450  1
  O  O309  1  0.23738803  0.74625833  0.37621670  1
  O  O310  1  0.23782229  0.74066200  0.86628492  1
  O  O311  1  0.75018950  0.23666727  0.37407159  1
  O  O312  1  0.74538107  0.24641391  0.88273061  1
  O  O313  1  0.74048365  0.73866759  0.36823205  1
  O  O314  1  0.76024808  0.74369410  0.89179028  1
  O  O315  1  0.00950315  0.11687668  0.01416449  1
  O  O316  1  0.01160890  0.11938369  0.50414069  1
  O  O317  1  -0.00322592  0.62796527  0.02060461  1
  O  O318  1  -0.00254706  0.61779518  0.50789872  1
  O  O319  1  0.51146899  0.11506870  0.00296132  1
  O  O320  1  0.50387377  0.12087126  0.50329139  1
  O  O321  1  0.50626454  0.61817925  0.00587643  1
  O  O322  1  0.49066655  0.60878076  0.49951817  1
  O  O323  1  0.49138575  0.38196127  0.49100147  1
  O  O324  1  0.48808542  0.38542720  0.99347859  1
  O  O325  1  0.49093851  0.88478346  0.49444397  1
  O  O326  1  0.50627479  0.88831981  0.99253173  1
  O  O327  1  0.99431906  0.38334426  0.49544432  1
  O  O328  1  0.98872124  0.37357519  0.99383262  1
  O  O329  1  0.99589975  0.88737378  0.50000328  1
  O  O330  1  1.00418208  0.88558365  0.99118691  1
  O  O331  1  0.49427264  0.49289073  0.37871273  1
  O  O332  1  0.49254038  0.49727007  0.88814949  1
  O  O333  1  0.49166389  0.99527926  0.38356677  1
  O  O334  1  0.49221463  0.99588135  0.88459375  1
  O  O335  1  0.99900236  0.50146555  0.38121800  1
  O  O336  1  0.99184444  0.48810524  0.87831514  1
  O  O337  1  0.99194297  1.00784414  0.38363668  1
  O  O338  1  0.99305983  0.99630459  0.88195254  1
  O  O339  1  0.00835015  0.00457346  0.12073272  1
  O  O340  1  0.00747891  0.00138644  0.61751585  1
  O  O341  1  0.00269427  0.51136362  0.12515589  1
  O  O342  1  0.00588897  0.50779037  0.61707150  1
  O  O343  1  0.51427733  0.00367787  0.11938448  1
  O  O344  1  0.48943313  0.01123894  0.61576047  1
  O  O345  1  0.50617613  0.50366334  0.11547343  1
  O  O346  1  0.50674192  0.49988812  0.61345492  1
  O  O347  1  0.24254442  0.37911587  0.23905930  1
  O  O348  1  0.24383288  0.38237911  0.74337014  1
  O  O349  1  0.25087440  0.88994015  0.25685468  1
  O  O350  1  0.25574801  0.88657447  0.74008967  1
  O  O351  1  0.75400417  0.37839126  0.23549002  1
  O  O352  1  0.73882773  0.37513717  0.74041882  1
  O  O353  1  0.73852318  0.88084471  0.25042567  1
  O  O354  1  0.75710077  0.84489546  0.74574510  1
  O  O355  1  0.26221286  0.11608771  0.25260016  1
  O  O356  1  0.25265352  0.11566162  0.74262061  1
  O  O357  1  0.24205990  0.61978143  0.26651907  1
  O  O358  1  0.25741871  0.61715269  0.75582673  1
  O  O359  1  0.76116913  0.11751608  0.25397119  1
  O  O360  1  0.74885280  0.14105219  0.76493178  1
  O  O361  1  0.74545600  0.61422210  0.25443027  1
  O  O362  1  0.76893021  0.63272744  0.75286753  1
  O  O363  1  0.37355366  0.11576457  0.37152662  1
  O  O364  1  0.38058275  0.11195271  0.87566308  1
  O  O365  1  0.36407298  0.61628841  0.38101019  1
  O  O366  1  0.36839086  0.62111134  0.86799694  1
  O  O367  1  0.87137526  0.12098975  0.36976737  1
  O  O368  1  0.86972161  0.11239784  0.87370407  1
  O  O369  1  0.85947916  0.62070328  0.37917378  1
  O  O370  1  0.87949742  0.61472917  0.86720419  1
  O  O371  1  0.13106352  0.37751069  0.12880523  1
  O  O372  1  0.12770979  0.37895553  0.63266743  1
  O  O373  1  0.12033729  0.88619437  0.11985532  1
  O  O374  1  0.13187007  0.88803995  0.61961499  1
  O  O375  1  0.63354711  0.38233231  0.12167929  1
  O  O376  1  0.63250640  0.37865899  0.62846129  1
  O  O377  1  0.62574436  0.88148043  0.13277097  1
  O  O378  1  0.62010632  0.86470755  0.63431237  1
  O  O379  1  0.12422935  0.25833778  0.25139066  1
  O  O380  1  0.13000982  0.26241594  0.75734427  1
  O  O381  1  0.11281806  0.74938293  0.26461930  1
  O  O382  1  0.10967980  0.74489819  0.76048429  1
  O  O383  1  0.62028170  0.24181828  0.24840617  1
  O  O384  1  0.60998845  0.26462103  0.76070559  1
  O  O385  1  0.61886767  0.75567083  0.25349625  1
  O  O386  1  0.62020351  0.71103861  0.74981805  1
  O  O387  1  0.36934483  0.24091450  0.24375655  1
  O  O388  1  0.38747982  0.25323356  0.75099517  1
  O  O389  1  0.38284494  0.75518427  0.24628166  1
  O  O390  1  0.36608070  0.74354486  0.74014996  1
  O  O391  1  0.88311082  0.24436650  0.24220578  1
  O  O392  1  0.87559355  0.25552059  0.74041376  1
  O  O393  1  0.88710965  0.75190870  0.24724579  1
  O  O394  1  0.89198509  0.73154099  0.75839840  1
  O  O395  1  0.37917616  0.48988047  0.49128236  1
  O  O396  1  0.38026403  0.49436920  0.99703989  1
  O  O397  1  0.37898568  0.99891528  0.49278668  1
  O  O398  1  0.38530692  1.00237638  0.99533614  1
  O  O399  1  0.88697690  0.48861476  0.49867463  1
  O  O400  1  0.87861665  0.49118048  0.99474009  1
  O  O401  1  0.88441716  0.99701614  0.49129717  1
  O  O402  1  0.88909237  1.00510752  1.00117556  1
  O  O403  1  0.11826008  0.01068103  0.00611825  1
  O  O404  1  0.11955584  0.00711057  0.50427386  1
  O  O405  1  0.11802461  0.49106320  0.01318134  1
  O  O406  1  0.11326664  0.49844499  0.50484719  1
  O  O407  1  0.62338526  0.00605265  0.00603175  1
  O  O408  1  0.60942233  0.00757924  0.50087780  1
  O  O409  1  0.61628698  0.50269485  0.01008385  1
  O  O410  1  0.61391584  0.48993909  0.50874642  1
  O  O411  1  0.36744050  0.37153710  0.11918886  1
  O  O412  1  0.36908446  0.37653540  0.61470261  1
  O  O413  1  0.38289564  0.87929992  0.11571262  1
  O  O414  1  0.36752533  0.86944424  0.62405994  1
  O  O415  1  0.87036141  0.37066697  0.11691724  1
  O  O416  1  0.87094566  0.37254016  0.61915567  1
  O  O417  1  0.87221526  0.86058233  0.12807208  1
  O  O418  1  0.87500536  0.87650175  0.60751686  1
  O  O419  1  0.12671075  0.13214686  0.38253573  1
  O  O420  1  0.12430077  0.13129518  0.89165010  1
  O  O421  1  0.13100112  0.63148936  0.37837935  1
  O  O422  1  0.13165189  0.63136302  0.86807185  1
  O  O423  1  0.63286386  0.12235557  0.38284408  1
  O  O424  1  0.63252288  0.12952787  0.88501387  1
  O  O425  1  0.63122481  0.63454208  0.36971650  1
  O  O426  1  0.62954446  0.60979088  0.89148385  1
