# generated using pymatgen
data_V85Zn86O256
_symmetry_space_group_name_H-M   'P 1'
_cell_length_a   16.93550029
_cell_length_b   16.93452763
_cell_length_c   16.93683793
_cell_angle_alpha   90.00577165
_cell_angle_beta   90.00266492
_cell_angle_gamma   90.00947743
_symmetry_Int_Tables_number   1
_chemical_formula_structural   V85Zn86O256
_chemical_formula_sum   'V85 Zn86 O256'
_cell_volume   4857.39521654
_cell_formula_units_Z   1
loop_
 _symmetry_equiv_pos_site_id
 _symmetry_equiv_pos_as_xyz
  1  'x, y, z'
loop_
 _atom_site_type_symbol
 _atom_site_label
 _atom_site_symmetry_multiplicity
 _atom_site_fract_x
 _atom_site_fract_y
 _atom_site_fract_z
 _atom_site_occupancy
  V  V0  1  0.89450884  0.60302852  0.71772604  1
  V  V1  1  0.37495235  0.87357501  -0.00067011  1
  V  V2  1  0.24386954  -0.01050699  0.75391838  1
  V  V3  1  -0.00687648  0.37362752  0.88205828  1
  V  V4  1  0.74284610  0.00005552  0.24331630  1
  V  V5  1  0.87485094  0.00249443  0.37390426  1
  V  V6  1  0.37337259  0.12515456  0.24981355  1
  V  V7  1  0.63850734  0.74028186  0.35982854  1
  V  V8  1  0.87629859  0.76522656  0.62501946  1
  V  V9  1  0.75004171  0.75164058  0.50382929  1
  V  V10  1  0.12622342  0.39462634  0.75050220  1
  V  V11  1  0.50912149  0.12260525  0.12749834  1
  V  V12  1  0.62608985  0.12362208  0.49988726  1
  V  V13  1  -0.00018815  0.24834372  0.75367528  1
  V  V14  1  0.75158190  0.49725909  0.75315193  1
  V  V15  1  0.63113209  -0.00113517  0.62770375  1
  V  V16  1  0.87394061  0.11806088  0.75526186  1
  V  V17  1  0.87565052  0.76078282  0.12130609  1
  V  V18  1  0.00161369  0.62811058  0.13127820  1
  V  V19  1  0.37809971  0.36555840  0.50582594  1
  V  V20  1  0.00584046  0.00452383  0.49920091  1
  V  V21  1  0.12498444  0.75997598  0.87097783  1
  V  V22  1  0.38309916  0.48814040  0.37336672  1
  V  V23  1  0.61954474  0.26285623  0.37374458  1
  V  V24  1  0.12216306  0.12143197  0.00102610  1
  V  V25  1  0.49772839  -0.00343223  0.50015933  1
  V  V26  1  0.12123401  -0.00671927  0.12781490  1
  V  V27  1  0.75036396  0.25080109  0.50023452  1
  V  V28  1  -0.00364805  0.12928497  0.13177765  1
  V  V29  1  0.38226078  0.62341659  0.74273069  1
  V  V30  1  0.75165213  0.37489129  0.62512516  1
  V  V31  1  0.75323333  0.75849870  -0.00118935  1
  V  V32  1  0.50389077  0.49660369  -0.00149980  1
  V  V33  1  0.51065783  -0.00166493  0.00430146  1
  V  V34  1  0.50556962  0.86609519  0.87569366  1
  V  V35  1  0.00772082  0.88069157  0.37152514  1
  V  V36  1  0.12889939  0.75246668  0.37733070  1
  V  V37  1  0.62519697  0.50934106  0.62393438  1
  V  V38  1  0.37370322  -0.00671759  0.37795978  1
  V  V39  1  0.87478799  0.24679034  0.62560334  1
  V  V40  1  -0.00342215  0.49565408  0.00844191  1
  V  V41  1  0.12327873  0.24943819  0.87544199  1
  V  V42  1  0.75515358  0.62605490  0.87466628  1
  V  V43  1  0.25075469  0.37363203  0.12703850  1
  V  V44  1  0.62406664  0.38222747  0.22921531  1
  V  V45  1  0.12443942  -0.01000203  0.62720750  1
  V  V46  1  0.37496566  0.37275862  -0.00085969  1
  V  V47  1  0.37309838  0.74705444  0.12345003  1
  V  V48  1  0.00300678  0.75467824  0.74524932  1
  V  V49  1  -0.01496144  -0.00253697  -0.00154440  1
  V  V50  1  0.49395598  0.61745056  0.11997924  1
  V  V51  1  0.87105561  0.50507443  0.37565282  1
  V  V52  1  0.49727763  0.24819104  0.74302667  1
  V  V53  1  0.00805906  0.75779295  0.24933147  1
  V  V54  1  0.12346255  0.62725742  0.00141958  1
  V  V55  1  0.86981528  0.63015607  0.25567570  1
  V  V56  1  0.50186116  0.50283932  0.49998123  1
  V  V57  1  0.75092720  0.11956589  0.87836742  1
  V  V58  1  0.25950971  0.87073867  0.61820304  1
  V  V59  1  0.62555849  0.37303973  0.74821501  1
  V  V60  1  0.62767590  0.62433519  0.00110188  1
  V  V61  1  0.25420281  0.62363377  0.38288194  1
  V  V62  1  0.57031790  0.81648927  0.69990703  1
  V  V63  1  0.87080204  0.49799645  0.88907038  1
  V  V64  1  0.50167023  0.86920121  0.36948208  1
  V  V65  1  0.49768277  0.37352311  0.87194851  1
  V  V66  1  0.00847289  0.12494629  0.62425877  1
  V  V67  1  0.24634256  0.12776396  0.38889736  1
  V  V68  1  0.24920643  0.75094586  -0.00423720  1
  V  V69  1  0.88220870  0.37859317  0.49973089  1
  V  V70  1  0.74886806  -0.01138061  0.75091907  1
  V  V71  1  0.12058648  0.35843581  0.25059913  1
  V  V72  1  0.24904614  0.12200071  0.87415750  1
  V  V73  1  -0.01448810  0.87854291  0.87620551  1
  V  V74  1  0.00216407  0.37654764  0.37356798  1
  V  V75  1  0.75353221  0.26354517  0.00273488  1
  V  V76  1  0.12560548  0.49911068  0.13196396  1
  V  V77  1  0.24408715  -0.00496741  0.25154286  1
  V  V78  1  0.87479928  0.26571599  0.12856687  1
  V  V79  1  0.37266595  0.62274649  0.24955632  1
  V  V80  1  0.37716153  -0.00177008  0.87579008  1
  V  V81  1  0.10877327  0.61881357  0.50818453  1
  V  V82  1  0.74932948  0.12700199  0.37356696  1
  V  V83  1  0.24986791  0.24643419  0.00124801  1
  V  V84  1  0.12354780  0.24877125  0.39648950  1
  Zn  Zn85  1  0.37554003  0.24703928  0.12629390  1
  Zn  Zn86  1  0.24399944  0.61645250  0.85942299  1
  Zn  Zn87  1  0.74444106  0.88199475  0.11655287  1
  Zn  Zn88  1  0.63231892  0.62163198  0.49262748  1
  Zn  Zn89  1  0.36201137  0.49699265  0.86332097  1
  Zn  Zn90  1  0.24633189  0.37578326  0.63347562  1
  Zn  Zn91  1  0.39267296  0.74423898  0.62227785  1
  Zn  Zn92  1  0.62239592  0.87585117  0.23898676  1
  Zn  Zn93  1  0.62633297  0.75060478  0.86857798  1
  Zn  Zn94  1  0.86933657  0.88147506  0.50103741  1
  Zn  Zn95  1  0.37341742  0.12576061  0.74859787  1
  Zn  Zn96  1  0.24674258  0.49655853  0.25718876  1
  Zn  Zn97  1  0.49637432  0.25518375  0.25151220  1
  Zn  Zn98  1  0.74863818  0.49450092  0.24094485  1
  Zn  Zn99  1  0.49873015  0.12379467  0.62569572  1
  Zn  Zn100  1  0.50288767  0.74742146  0.24572489  1
  Zn  Zn101  1  0.62534195  0.24755213  0.87747585  1
  Zn  Zn102  1  0.87641793  0.13383511  0.25054883  1
  Zn  Zn103  1  0.35977149  0.23886638  0.61802591  1
  Zn  Zn104  1  0.62966150  0.12442703  0.00448158  1
  Zn  Zn105  1  0.24590444  0.87308820  0.12995992  1
  Zn  Zn106  1  0.26547777  0.75339336  0.49784949  1
  Zn  Zn107  1  0.18988641  0.18069311  0.18839015  1
  Zn  Zn108  1  0.18820668  0.18845844  0.68845749  1
  Zn  Zn109  1  0.18957421  0.68709710  0.19191862  1
  Zn  Zn110  1  0.18930844  0.68159949  0.68595223  1
  Zn  Zn111  1  0.69007353  0.19353696  0.18891336  1
  Zn  Zn112  1  0.68570587  0.18448723  0.68982154  1
  Zn  Zn113  1  0.69853854  0.66244751  0.17506967  1
  Zn  Zn114  1  0.70779842  0.68271541  0.68196591  1
  Zn  Zn115  1  0.30698121  0.31062131  0.31769804  1
  Zn  Zn116  1  0.30960018  0.31159873  0.80851371  1
  Zn  Zn117  1  0.31399193  0.81223382  0.31093822  1
  Zn  Zn118  1  0.31707273  0.80513327  0.80503600  1
  Zn  Zn119  1  0.80757277  0.31741760  0.30939453  1
  Zn  Zn120  1  0.81329624  0.30873826  0.81710296  1
  Zn  Zn121  1  0.81723365  0.81692848  0.31112441  1
  Zn  Zn122  1  0.81614095  0.80775552  0.80999177  1
  Zn  Zn123  1  0.20846959  0.45847687  0.47651999  1
  Zn  Zn124  1  0.18208515  0.43600010  0.93963910  1
  Zn  Zn125  1  0.18633798  0.94115312  0.44176401  1
  Zn  Zn126  1  0.18297199  0.93521969  0.94080754  1
  Zn  Zn127  1  0.69429366  0.44029877  0.43640229  1
  Zn  Zn128  1  0.68154093  0.43600217  0.93915955  1
  Zn  Zn129  1  0.68534659  0.93326378  0.43168852  1
  Zn  Zn130  1  0.68789827  0.93679248  0.93168909  1
  Zn  Zn131  1  0.31404141  0.06030891  0.06429775  1
  Zn  Zn132  1  0.31400924  0.05860326  0.56527126  1
  Zn  Zn133  1  0.30245519  0.55138025  0.03768423  1
  Zn  Zn134  1  0.30939079  0.55969796  0.57781978  1
  Zn  Zn135  1  0.81352155  0.06960518  0.06435297  1
  Zn  Zn136  1  0.81393152  0.06169004  0.56451815  1
  Zn  Zn137  1  0.81392034  0.56662755  0.06846587  1
  Zn  Zn138  1  0.82264104  0.56405966  0.56066199  1
  Zn  Zn139  1  0.44004768  0.43519637  0.18878405  1
  Zn  Zn140  1  0.43738546  0.44359933  0.68512555  1
  Zn  Zn141  1  0.43532211  0.93728349  0.18703590  1
  Zn  Zn142  1  0.43445288  0.94385613  0.68718442  1
  Zn  Zn143  1  0.93888512  0.43843148  0.19632197  1
  Zn  Zn144  1  0.93779053  0.43331268  0.69335848  1
  Zn  Zn145  1  0.93502219  0.94050484  0.19027489  1
  Zn  Zn146  1  0.93905854  0.93713313  0.69162653  1
  Zn  Zn147  1  0.06541956  0.07033404  0.31236116  1
  Zn  Zn148  1  0.06208218  0.05805057  0.81243099  1
  Zn  Zn149  1  0.06367632  0.56078822  0.32056293  1
  Zn  Zn150  1  0.05733436  0.56913915  0.82169344  1
  Zn  Zn151  1  0.56193350  0.06532549  0.31373393  1
  Zn  Zn152  1  0.56521840  0.06231115  0.81394068  1
  Zn  Zn153  1  0.56044509  0.56179732  0.30753450  1
  Zn  Zn154  1  0.56193839  0.56198359  0.81251374  1
  Zn  Zn155  1  0.43927865  0.18146036  0.43520152  1
  Zn  Zn156  1  0.43858936  0.18585916  0.93734796  1
  Zn  Zn157  1  0.44074568  0.68572028  0.44121500  1
  Zn  Zn158  1  0.43379753  0.68208904  0.92757793  1
  Zn  Zn159  1  0.93979105  0.18948950  0.43819863  1
  Zn  Zn160  1  0.93216577  0.18577693  0.94350171  1
  Zn  Zn161  1  0.93625510  0.69375627  0.43751546  1
  Zn  Zn162  1  0.93849717  0.68835231  0.93847435  1
  Zn  Zn163  1  0.06110807  0.31082717  0.06473340  1
  Zn  Zn164  1  0.06146105  0.31735841  0.56819947  1
  Zn  Zn165  1  0.06069730  0.81653306  0.05889264  1
  Zn  Zn166  1  0.06340170  0.81247307  0.55852411  1
  Zn  Zn167  1  0.56275754  0.30571813  0.06305645  1
  Zn  Zn168  1  0.55981872  0.31891029  0.55913106  1
  Zn  Zn169  1  0.56630593  0.80850339  0.06245660  1
  Zn  Zn170  1  0.56470507  0.81164549  0.53872557  1
  O  O171  1  0.11725425  0.11811714  0.11882354  1
  O  O172  1  0.11210014  0.11601890  0.63334443  1
  O  O173  1  0.12023973  0.62017754  0.12345417  1
  O  O174  1  0.12758396  0.62706547  0.60690267  1
  O  O175  1  0.61291097  0.12768138  0.12815742  1
  O  O176  1  0.62283255  0.11571356  0.61722872  1
  O  O177  1  0.60637541  0.63772970  0.10627978  1
  O  O178  1  0.63685981  0.61152451  0.62323719  1
  O  O179  1  0.38020368  0.38584412  0.36956082  1
  O  O180  1  0.38046178  0.37596907  0.88013356  1
  O  O181  1  0.38249324  0.88637561  0.36862634  1
  O  O182  1  0.38198823  0.87947342  0.87858858  1
  O  O183  1  0.88244531  0.37639472  0.38094475  1
  O  O184  1  0.88577841  0.38052473  0.87672003  1
  O  O185  1  0.88868193  0.88714489  0.37468006  1
  O  O186  1  0.88715968  0.87213005  0.87634439  1
  O  O187  1  0.25471424  0.00423251  0.37042087  1
  O  O188  1  0.25417476  -0.00050015  0.87136183  1
  O  O189  1  0.26530086  0.50727831  0.37827998  1
  O  O190  1  0.25757315  0.51362275  0.91568685  1
  O  O191  1  0.75726405  0.00845739  0.37038469  1
  O  O192  1  0.74754078  0.01126253  0.86725195  1
  O  O193  1  0.76658483  0.49601776  0.36717133  1
  O  O194  1  0.75507085  0.50345558  0.87594178  1
  O  O195  1  0.24232413  0.48939094  0.12270719  1
  O  O196  1  0.23814575  0.47812146  0.58739004  1
  O  O197  1  0.23996605  1.00068711  0.13290062  1
  O  O198  1  0.24365993  0.99144225  0.63264499  1
  O  O199  1  0.73675862  0.55296609  0.14466922  1
  O  O200  1  0.74882744  0.49228481  0.63147767  1
  O  O201  1  0.75726255  1.00264483  0.14029488  1
  O  O202  1  0.73905660  1.00213104  0.63088636  1
  O  O203  1  0.00877528  0.37156899  0.25936245  1
  O  O204  1  0.00415721  0.36959502  0.76257972  1
  O  O205  1  -0.00030382  0.87091662  0.25829779  1
  O  O206  1  -0.00117891  0.86886085  0.76421101  1
  O  O207  1  0.51533792  0.37014682  0.24464705  1
  O  O208  1  0.50358648  0.36944501  0.75531319  1
  O  O209  1  0.50013571  0.87183846  0.25718531  1
  O  O210  1  0.50263087  0.87430760  0.75560210  1
  O  O211  1  0.49128075  0.12321133  0.24356159  1
  O  O212  1  0.49930318  0.13503346  0.75124336  1
  O  O213  1  0.49136739  0.62546401  0.23655496  1
  O  O214  1  0.48404667  0.62200485  0.75885562  1
  O  O215  1  0.99867856  0.12427339  0.23561296  1
  O  O216  1  0.99191082  0.12722535  0.74644340  1
  O  O217  1  0.99919562  0.63588229  0.24722855  1
  O  O218  1  0.98671826  0.63585750  0.76030004  1
  O  O219  1  0.36719778  0.25478682  0.00028737  1
  O  O220  1  0.39228412  0.26107777  0.50185746  1
  O  O221  1  0.36649664  0.75213757  0.00316563  1
  O  O222  1  0.37937514  0.74840079  0.50947861  1
  O  O223  1  0.86238857  0.24908331  0.01046728  1
  O  O224  1  0.86972734  0.25576081  0.50587593  1
  O  O225  1  0.86770101  0.74422038  0.01018615  1
  O  O226  1  0.86777256  0.75748521  0.50510681  1
  O  O227  1  0.12502495  0.25468701  0.49486322  1
  O  O228  1  0.12889538  0.24272225  0.99494659  1
  O  O229  1  0.12752277  0.74509360  0.48647746  1
  O  O230  1  0.13004390  0.74914557  0.99367818  1
  O  O231  1  0.62927909  0.24638870  0.49100438  1
  O  O232  1  0.63979856  0.24623989  0.99994347  1
  O  O233  1  0.63679846  0.74508704  0.48458915  1
  O  O234  1  0.63469339  0.74081639  0.99146334  1
  O  O235  1  0.49458685  0.23764858  0.12776383  1
  O  O236  1  0.50371304  0.25014568  0.63671043  1
  O  O237  1  0.48491625  0.74021068  0.11898536  1
  O  O238  1  0.51590460  0.76161715  0.63291465  1
  O  O239  1  0.98480218  0.24277259  0.11582459  1
  O  O240  1  0.99624610  0.24140891  0.63217473  1
  O  O241  1  0.99811431  0.75013301  0.13146820  1
  O  O242  1  0.99250979  0.75927939  0.63374985  1
  O  O243  1  0.01371699  0.25621705  0.38005472  1
  O  O244  1  0.00165253  0.25734753  0.87673547  1
  O  O245  1  0.00712598  0.76238928  0.36884967  1
  O  O246  1  0.00376734  0.76038619  0.87163219  1
  O  O247  1  0.51778414  0.24001232  0.37111288  1
  O  O248  1  0.50051623  0.25943417  0.86790394  1
  O  O249  1  0.51167075  0.75559780  0.37109556  1
  O  O250  1  0.50154248  0.76175469  0.87950844  1
  O  O251  1  0.25361551  0.11878834  0.48780299  1
  O  O252  1  0.24336959  0.12635909  0.99484069  1
  O  O253  1  0.24657452  0.62943945  0.48846432  1
  O  O254  1  0.24011273  0.64349016  1.00748637  1
  O  O255  1  0.74662278  0.13063975  0.49352862  1
  O  O256  1  0.74942898  0.12898257  0.99177106  1
  O  O257  1  0.75340760  0.64444805  0.49766625  1
  O  O258  1  0.74254316  0.63123940  0.99177907  1
  O  O259  1  0.25049179  0.36617362  0.01157786  1
  O  O260  1  0.27936019  0.36625936  0.48014131  1
  O  O261  1  0.25410483  0.86525504  0.00350958  1
  O  O262  1  0.25005906  0.87759475  0.51438576  1
  O  O263  1  0.74984563  0.36244873  -0.00528748  1
  O  O264  1  0.76160792  0.36878934  0.50446816  1
  O  O265  1  0.74909836  0.86249582  -0.00445714  1
  O  O266  1  0.75323823  0.86030356  0.48732049  1
  O  O267  1  0.12639325  0.49008777  0.24571235  1
  O  O268  1  0.11536719  0.49289980  0.76005681  1
  O  O269  1  0.13242887  1.00752593  0.24162421  1
  O  O270  1  0.13278373  1.00021894  0.74215269  1
  O  O271  1  0.62427998  0.48445638  0.25429342  1
  O  O272  1  0.63189754  0.49392287  0.74368361  1
  O  O273  1  0.64057221  1.00097705  0.25688098  1
  O  O274  1  0.63466448  1.00489663  0.73974009  1
  O  O275  1  0.36840714  0.00846765  0.25703339  1
  O  O276  1  0.36819533  0.00076228  0.76363045  1
  O  O277  1  0.37330493  0.50388108  0.25882075  1
  O  O278  1  0.37283117  0.50956163  0.74870008  1
  O  O279  1  0.86881135  0.00734255  0.26204666  1
  O  O280  1  0.86644612  0.01185715  0.74235571  1
  O  O281  1  0.87294319  0.51210485  0.25521925  1
  O  O282  1  0.87034410  0.50018056  0.77339621  1
  O  O283  1  0.11913889  0.36145272  0.36860976  1
  O  O284  1  0.11233315  0.37133688  0.87116882  1
  O  O285  1  0.11570188  0.87150979  0.37991737  1
  O  O286  1  0.11701661  0.86338357  0.87774479  1
  O  O287  1  0.62725230  0.36273358  0.37963756  1
  O  O288  1  0.61641883  0.37159395  0.86613914  1
  O  O289  1  0.61803266  0.86324512  0.36389369  1
  O  O290  1  0.61247466  0.87249469  0.87372311  1
  O  O291  1  0.38016084  0.12431499  0.13523313  1
  O  O292  1  0.38071016  0.12385024  0.62943745  1
  O  O293  1  0.37619250  0.62878873  0.12597991  1
  O  O294  1  0.38014272  0.62332956  0.63386886  1
  O  O295  1  0.88300839  0.13504665  0.12805029  1
  O  O296  1  0.88338816  0.12934811  0.63293203  1
  O  O297  1  0.88673120  0.63923220  0.13608794  1
  O  O298  1  0.85154938  0.65313851  0.62969167  1
  O  O299  1  0.25105929  0.25463092  0.11979079  1
  O  O300  1  0.24962383  0.26167684  0.63376521  1
  O  O301  1  0.25823845  0.75260963  0.12105430  1
  O  O302  1  0.24235478  0.76793420  0.62389343  1
  O  O303  1  0.76120827  0.24655152  0.11275738  1
  O  O304  1  0.75456445  0.25387202  0.62077843  1
  O  O305  1  0.76020679  0.74789042  0.11467078  1
  O  O306  1  0.75132714  0.76233264  0.60975064  1
  O  O307  1  0.23418883  0.24091869  0.37226968  1
  O  O308  1  0.24266875  0.24296708  0.88010892  1
  O  O309  1  0.24451002  0.74608535  0.37531889  1
  O  O310  1  0.24177924  0.75205786  0.88104552  1
  O  O311  1  0.74229875  0.24384822  0.37902658  1
  O  O312  1  0.75194548  0.24117392  0.88732781  1
  O  O313  1  0.74048435  0.75567584  0.37625588  1
  O  O314  1  0.75296030  0.74054979  0.87964888  1
  O  O315  1  0.00395331  0.11695513  0.00696539  1
  O  O316  1  -0.00716142  0.11483090  0.51129939  1
  O  O317  1  0.00438163  0.61685589  0.00878653  1
  O  O318  1  0.00986587  0.63492635  0.49997409  1
  O  O319  1  0.50149394  0.11651797  0.00814321  1
  O  O320  1  0.50905684  0.11140020  0.49834043  1
  O  O321  1  0.50342359  0.61552508  -0.00148571  1
  O  O322  1  0.50949544  0.60809353  0.49494019  1
  O  O323  1  0.49145714  0.38681980  0.49570329  1
  O  O324  1  0.49837493  0.37692263  0.99253748  1
  O  O325  1  0.50469696  0.88710846  0.48176537  1
  O  O326  1  0.49417131  0.88080298  0.99340713  1
  O  O327  1  0.98887725  0.37075974  0.49463203  1
  O  O328  1  1.00456981  0.38753238  0.99669583  1
  O  O329  1  0.99715565  0.88889092  0.49221749  1
  O  O330  1  1.00129438  0.88370892  0.98748566  1
  O  O331  1  0.48816710  0.50390724  0.37851690  1
  O  O332  1  0.50012465  0.48517975  0.88032001  1
  O  O333  1  0.49332391  0.99427360  0.37820913  1
  O  O334  1  0.49257445  0.99386858  0.88139240  1
  O  O335  1  0.98968190  0.48311055  0.36784741  1
  O  O336  1  0.99076913  0.49531115  0.88888249  1
  O  O337  1  0.99709568  1.00117230  0.38010332  1
  O  O338  1  1.00302468  0.98697590  0.88194013  1
  O  O339  1  0.00326776  0.00648851  0.11944259  1
  O  O340  1  0.00619822  0.00369171  0.62001792  1
  O  O341  1  0.00364348  0.50536281  0.12362569  1
  O  O342  1  -0.06844948  0.53431836  0.64409531  1
  O  O343  1  0.49106555  0.00784680  0.11400622  1
  O  O344  1  0.51007479  -0.00254231  0.61622123  1
  O  O345  1  0.49553398  0.51066825  0.11623342  1
  O  O346  1  0.51524119  0.49268134  0.61477205  1
  O  O347  1  0.24392618  0.37452720  0.23978718  1
  O  O348  1  0.23015173  0.38038599  0.75892987  1
  O  O349  1  0.25441688  0.89046183  0.24912067  1
  O  O350  1  0.25252734  0.88480598  0.74292812  1
  O  O351  1  0.73216276  0.37715235  0.24881545  1
  O  O352  1  0.74721171  0.37843116  0.74772663  1
  O  O353  1  0.75242859  0.89325657  0.25228487  1
  O  O354  1  0.75500687  0.88934223  0.75881493  1
  O  O355  1  0.25621265  0.11440715  0.25827367  1
  O  O356  1  0.24909528  0.11154670  0.75956613  1
  O  O357  1  0.25607252  0.62107178  0.26155709  1
  O  O358  1  0.26319191  0.62499224  0.74733169  1
  O  O359  1  0.75076312  0.11765219  0.25778209  1
  O  O360  1  0.75726235  0.12049098  0.75761429  1
  O  O361  1  0.77161061  0.64534729  0.26569133  1
  O  O362  1  0.76782001  0.61446564  0.75696505  1
  O  O363  1  0.36831733  0.11502363  0.36931685  1
  O  O364  1  0.36724292  0.11434702  0.87627448  1
  O  O365  1  0.37111112  0.61917072  0.36786483  1
  O  O366  1  0.36639783  0.62087582  0.86319499  1
  O  O367  1  0.86532185  0.12358072  0.37372833  1
  O  O368  1  0.86785198  0.12928977  0.86482524  1
  O  O369  1  0.89056241  0.61482807  0.36805921  1
  O  O370  1  0.86475329  0.61540615  0.88280002  1
  O  O371  1  0.12985168  0.37773133  0.13199528  1
  O  O372  1  0.11326178  0.37867509  0.64861602  1
  O  O373  1  0.12462795  0.88936417  0.12236052  1
  O  O374  1  0.13147685  0.88599572  0.62214453  1
  O  O375  1  0.62506127  0.37630746  0.12992211  1
  O  O376  1  0.63409425  0.38029976  0.63054365  1
  O  O377  1  0.63105511  0.87132917  0.12664089  1
  O  O378  1  0.61906456  0.87775671  0.63214376  1
  O  O379  1  0.12686347  0.25702110  0.24859173  1
  O  O380  1  0.11472485  0.25106058  0.76193565  1
  O  O381  1  0.11633727  0.74956084  0.25974632  1
  O  O382  1  0.11133442  0.74113901  0.75730002  1
  O  O383  1  0.62641174  0.26093462  0.25996961  1
  O  O384  1  0.61813510  0.25704776  0.75198891  1
  O  O385  1  0.62719972  0.74516448  0.25431093  1
  O  O386  1  0.63405320  0.75087513  0.74805885  1
  O  O387  1  0.37415563  0.23631762  0.25414007  1
  O  O388  1  0.38454119  0.24825218  0.74876809  1
  O  O389  1  0.37561041  0.74166916  0.23987739  1
  O  O390  1  0.37663400  0.73626944  0.73891240  1
  O  O391  1  0.86644924  0.25114518  0.23388718  1
  O  O392  1  0.88073833  0.24195173  0.74555144  1
  O  O393  1  0.89014936  0.74964357  0.24695850  1
  O  O394  1  0.88591722  0.74695719  0.74113263  1
  O  O395  1  0.38452033  0.49222665  0.48863628  1
  O  O396  1  0.39182133  0.48901838  1.00026192  1
  O  O397  1  0.38574750  1.00240419  0.49053337  1
  O  O398  1  0.37878405  0.99368606  0.99016760  1
  O  O399  1  0.87178198  0.48909304  0.48992141  1
  O  O400  1  0.87986292  0.50356061  0.99832102  1
  O  O401  1  0.88017793  1.00209406  0.48819919  1
  O  O402  1  0.88594996  1.00283220  1.00402163  1
  O  O403  1  0.11745138  0.00550741  0.00829117  1
  O  O404  1  0.11542145  0.00299692  0.51015554  1
  O  O405  1  0.11342268  0.50503290  0.01192227  1
  O  O406  1  0.11327933  0.52009285  0.48007869  1
  O  O407  1  0.61333873  0.00137462  -0.00376070  1
  O  O408  1  0.62186989  0.00221427  0.50520411  1
  O  O409  1  0.61313042  0.50767498  -0.00337802  1
  O  O410  1  0.62358028  0.49942766  0.50579340  1
  O  O411  1  0.36618086  0.37200340  0.12012937  1
  O  O412  1  0.37635190  0.37314257  0.61171956  1
  O  O413  1  0.37296794  0.86537774  0.11711821  1
  O  O414  1  0.36178611  0.87571924  0.62913430  1
  O  O415  1  0.88098447  0.36504797  0.12673697  1
  O  O416  1  0.87316280  0.36662325  0.61897816  1
  O  O417  1  0.87023902  0.86427275  0.13040094  1
  O  O418  1  0.87437558  0.87025796  0.62328357  1
  O  O419  1  0.12994290  0.13969417  0.37676190  1
  O  O420  1  0.12824432  0.12800952  0.88193708  1
  O  O421  1  0.13443232  0.63593629  0.37619625  1
  O  O422  1  0.12488872  0.63800421  0.88521035  1
  O  O423  1  0.63642132  0.13084654  0.37932252  1
  O  O424  1  0.63619192  0.12847812  0.87776916  1
  O  O425  1  0.62431780  0.63785747  0.37014196  1
  O  O426  1  0.63764989  0.62393731  0.87992141  1
