# generated using pymatgen
data_V85Zn86O256
_symmetry_space_group_name_H-M   'P 1'
_cell_length_a   16.95792469
_cell_length_b   16.94439748
_cell_length_c   16.94752882
_cell_angle_alpha   89.99070483
_cell_angle_beta   89.95371668
_cell_angle_gamma   90.01647175
_symmetry_Int_Tables_number   1
_chemical_formula_structural   V85Zn86O256
_chemical_formula_sum   'V85 Zn86 O256'
_cell_volume   4869.73186320
_cell_formula_units_Z   1
loop_
 _symmetry_equiv_pos_site_id
 _symmetry_equiv_pos_as_xyz
  1  'x, y, z'
loop_
 _atom_site_type_symbol
 _atom_site_label
 _atom_site_symmetry_multiplicity
 _atom_site_fract_x
 _atom_site_fract_y
 _atom_site_fract_z
 _atom_site_occupancy
  V  V0  1  -0.00216063  0.37809930  0.87616944  1
  V  V1  1  -0.00284800  0.61528680  0.62625798  1
  V  V2  1  0.12087328  0.87487509  0.75036657  1
  V  V3  1  0.87785870  0.87363524  0.48933022  1
  V  V4  1  -0.00124439  0.75285637  0.25917425  1
  V  V5  1  0.37923184  0.25058065  0.13129145  1
  V  V6  1  0.00315224  0.12769280  0.62252410  1
  V  V7  1  0.75585488  0.00001022  0.74619049  1
  V  V8  1  0.50077506  0.87248492  0.87471424  1
  V  V9  1  0.49740260  0.12632624  0.13136358  1
  V  V10  1  0.11867241  0.10967446  0.00224406  1
  V  V11  1  0.62571478  0.61849498  0.49802876  1
  V  V12  1  0.12464709  0.00198413  0.62364046  1
  V  V13  1  0.62479306  -0.00107065  0.12610247  1
  V  V14  1  0.50133773  0.49680108  -0.01203047  1
  V  V15  1  0.75037480  0.75269285  0.00208873  1
  V  V16  1  -0.00071979  0.11151430  0.12834914  1
  V  V17  1  0.75241331  0.12577680  0.87380701  1
  V  V18  1  0.74653134  0.50248957  0.25802797  1
  V  V19  1  0.01001387  0.38159150  0.37745069  1
  V  V20  1  0.62461006  0.74883325  0.87446497  1
  V  V21  1  0.37402604  0.74886735  0.12369072  1
  V  V22  1  0.61961981  0.25505733  0.87475631  1
  V  V23  1  0.01198480  0.25825354  0.24565370  1
  V  V24  1  0.75582825  0.87496742  0.12350701  1
  V  V25  1  0.87410101  0.51464845  0.87139502  1
  V  V26  1  0.61319115  0.36213473  0.26389440  1
  V  V27  1  0.61765313  0.01106492  0.62437383  1
  V  V28  1  0.24175606  0.49860618  0.24972182  1
  V  V29  1  0.62295642  0.75403975  0.37758270  1
  V  V30  1  0.49868298  0.75167175  0.25623384  1
  V  V31  1  0.00301905  -0.00380777  0.49356953  1
  V  V32  1  0.38244827  0.37124723  -0.00448574  1
  V  V33  1  0.75281845  0.25206889  -0.00139198  1
  V  V34  1  0.87882189  0.25124983  0.13332218  1
  V  V35  1  0.38103398  0.87009307  0.49660631  1
  V  V36  1  0.12447366  0.25013740  0.87691581  1
  V  V37  1  0.13966549  0.74493710  0.87555123  1
  V  V38  1  -0.00444989  0.51752725  -0.00121534  1
  V  V39  1  0.25003009  0.24948685  0.00042303  1
  V  V40  1  0.13053945  0.12755956  0.48743123  1
  V  V41  1  0.74951625  0.74931942  0.49345692  1
  V  V42  1  0.12021570  0.61419743  0.49958070  1
  V  V43  1  0.24866605  0.00130459  0.74854889  1
  V  V44  1  0.25032415  0.12404643  0.87348113  1
  V  V45  1  -0.00358216  0.74545224  0.75301393  1
  V  V46  1  0.87562619  0.74735797  0.62797589  1
  V  V47  1  0.75044059  0.62666115  0.87101505  1
  V  V48  1  0.62091396  0.87904315  0.25357435  1
  V  V49  1  0.24627249  0.75005317  0.49882824  1
  V  V50  1  0.36725743  0.86910016  0.00034892  1
  V  V51  1  0.36182303  0.61873788  0.75217102  1
  V  V52  1  0.50189554  0.61573050  0.62401904  1
  V  V53  1  0.62294958  0.62298693  0.00045808  1
  V  V54  1  0.87001561  0.62474908  0.25457780  1
  V  V55  1  0.87743958  0.25210977  0.62597520  1
  V  V56  1  0.49818667  0.48833482  0.49836238  1
  V  V57  1  0.61912942  0.38138590  0.75102833  1
  V  V58  1  0.75032985  0.50518464  0.74567624  1
  V  V59  1  0.38145062  0.48644057  0.37552145  1
  V  V60  1  0.87671979  0.01142048  0.37136524  1
  V  V61  1  0.14873849  0.62919558  -0.00192863  1
  V  V62  1  0.87775569  -0.00770961  0.88931183  1
  V  V63  1  0.74823818  0.37901161  0.62542389  1
  V  V64  1  0.37707576  -0.00102737  0.87284800  1
  V  V65  1  0.87600552  0.37866827  -0.00051707  1
  V  V66  1  0.49685192  0.00662403  0.49961410  1
  V  V67  1  0.25429665  0.37937531  0.63190398  1
  V  V68  1  0.62511951  0.12581117  -0.00032962  1
  V  V69  1  0.75058895  0.87509898  0.62055437  1
  V  V70  1  0.75010454  0.37616888  0.12748243  1
  V  V71  1  0.87297350  0.49856106  0.38316296  1
  V  V72  1  0.75009568  0.24610435  0.49721964  1
  V  V73  1  0.50165036  -0.00255215  -0.00130185  1
  V  V74  1  0.36437382  0.00424102  0.37291190  1
  V  V75  1  0.37344542  0.62472332  0.25526128  1
  V  V76  1  0.37729162  0.24623619  0.62220902  1
  V  V77  1  0.62526949  0.87392451  0.74744808  1
  V  V78  1  0.75402074  0.00761989  0.24953616  1
  V  V79  1  0.25289090  0.25547076  0.49271744  1
  V  V80  1  0.50275557  0.24262258  0.74456304  1
  V  V81  1  0.49834315  0.74473406  0.74748097  1
  V  V82  1  0.62071913  0.49642987  0.12832643  1
  V  V83  1  0.00438184  0.25325788  0.75038265  1
  V  V84  1  0.35456039  0.49626054  0.87227371  1
  Zn  Zn85  1  0.12780174  0.49814580  0.63113084  1
  Zn  Zn86  1  0.23137707  0.00729113  0.22940110  1
  Zn  Zn87  1  0.00516142  0.88317722  0.89403680  1
  Zn  Zn88  1  0.50133126  0.62354115  0.12736928  1
  Zn  Zn89  1  0.12120325  0.50064586  0.12820115  1
  Zn  Zn90  1  0.24846266  0.62525615  0.37532550  1
  Zn  Zn91  1  -0.00192475  0.62482513  0.12897964  1
  Zn  Zn92  1  0.24437554  0.87551713  0.12755199  1
  Zn  Zn93  1  0.13261363  0.25354728  0.36443100  1
  Zn  Zn94  1  0.13622423  0.38653925  0.76113246  1
  Zn  Zn95  1  0.74771427  0.13584253  0.36649069  1
  Zn  Zn96  1  0.25046652  0.87468310  0.62372499  1
  Zn  Zn97  1  0.37224351  0.74750432  0.62571414  1
  Zn  Zn98  1  0.11388794  0.75533486  0.38230938  1
  Zn  Zn99  1  0.12396880  0.88392838  0.25599428  1
  Zn  Zn100  1  0.36696623  0.13039878  0.25995890  1
  Zn  Zn101  1  0.88129472  0.37974047  0.50273457  1
  Zn  Zn102  1  0.87400003  0.74956068  0.12811063  1
  Zn  Zn103  1  0.38253460  0.12119575  0.74643587  1
  Zn  Zn104  1  0.87884549  0.12356741  0.75165658  1
  Zn  Zn105  1  0.24686546  0.37379415  0.12926584  1
  Zn  Zn106  1  0.59436365  0.15992361  0.46915392  1
  Zn  Zn107  1  0.18848421  0.18000809  0.18343289  1
  Zn  Zn108  1  0.18924291  0.19073818  0.68439307  1
  Zn  Zn109  1  0.16900729  0.71698537  0.17017698  1
  Zn  Zn110  1  0.18428953  0.68734049  0.68252528  1
  Zn  Zn111  1  0.68754679  0.18815616  0.18496493  1
  Zn  Zn112  1  0.68925831  0.18849767  0.68565940  1
  Zn  Zn113  1  0.68605303  0.68521286  0.19044645  1
  Zn  Zn114  1  0.68576598  0.68517462  0.68194269  1
  Zn  Zn115  1  0.31285939  0.31655611  0.30951690  1
  Zn  Zn116  1  0.31850337  0.31259733  0.81337451  1
  Zn  Zn117  1  0.30586576  0.81815348  0.31493535  1
  Zn  Zn118  1  0.31389818  0.81404329  0.80782105  1
  Zn  Zn119  1  0.81347146  0.31951110  0.31295160  1
  Zn  Zn120  1  0.81269087  0.31629311  0.81128904  1
  Zn  Zn121  1  0.80978586  0.81643010  0.31295413  1
  Zn  Zn122  1  0.81344489  0.81335870  0.81204283  1
  Zn  Zn123  1  0.19312579  0.43741140  0.43876511  1
  Zn  Zn124  1  0.17766919  0.42965629  0.96235780  1
  Zn  Zn125  1  0.18668449  0.93020001  0.43263254  1
  Zn  Zn126  1  0.18998312  0.93383872  0.93658075  1
  Zn  Zn127  1  0.68688414  0.43272966  0.43953208  1
  Zn  Zn128  1  0.68846893  0.43761574  0.93591883  1
  Zn  Zn129  1  0.66555309  0.97067865  0.41746758  1
  Zn  Zn130  1  0.69043859  0.93704867  0.93626516  1
  Zn  Zn131  1  0.31329708  0.06168132  0.06187403  1
  Zn  Zn132  1  0.31144916  0.06603136  0.56122919  1
  Zn  Zn133  1  0.31971253  0.56047112  0.06817752  1
  Zn  Zn134  1  0.31560663  0.56322088  0.55957989  1
  Zn  Zn135  1  0.81479972  0.06633417  0.06606683  1
  Zn  Zn136  1  0.81664637  0.06344191  0.56304584  1
  Zn  Zn137  1  0.80869322  0.56541906  0.06470521  1
  Zn  Zn138  1  0.81052760  0.56598511  0.56256878  1
  Zn  Zn139  1  0.43767363  0.43597966  0.18646286  1
  Zn  Zn140  1  0.43480998  0.43420563  0.68790357  1
  Zn  Zn141  1  0.43505094  0.93713602  0.18850487  1
  Zn  Zn142  1  0.43508978  0.93294083  0.68455129  1
  Zn  Zn143  1  0.93848373  0.44057734  0.19018271  1
  Zn  Zn144  1  0.93603953  0.43749173  0.69214335  1
  Zn  Zn145  1  0.93784671  0.93421015  0.19204597  1
  Zn  Zn146  1  0.93917980  0.93449641  0.68373933  1
  Zn  Zn147  1  0.06284938  0.06309831  0.30838690  1
  Zn  Zn148  1  0.05952563  0.06344569  0.81489053  1
  Zn  Zn149  1  0.05906718  0.56694702  0.31534854  1
  Zn  Zn150  1  0.06674747  0.56586070  0.81121747  1
  Zn  Zn151  1  0.54692179  0.09903567  0.33093403  1
  Zn  Zn152  1  0.56709615  0.06267501  0.81161193  1
  Zn  Zn153  1  0.56282763  0.56472226  0.31593299  1
  Zn  Zn154  1  0.56279953  0.56247040  0.81020669  1
  Zn  Zn155  1  0.43073775  0.19274107  0.43719479  1
  Zn  Zn156  1  0.43976188  0.18519235  0.93641132  1
  Zn  Zn157  1  0.43952302  0.68580056  0.43617843  1
  Zn  Zn158  1  0.43312006  0.68108223  0.93523141  1
  Zn  Zn159  1  0.94074040  0.19244254  0.43571495  1
  Zn  Zn160  1  0.93676873  0.18490152  0.93955338  1
  Zn  Zn161  1  0.93352584  0.67963519  0.43896137  1
  Zn  Zn162  1  0.95535845  0.72610686  0.95884287  1
  Zn  Zn163  1  0.06386388  0.31781130  0.06093724  1
  Zn  Zn164  1  0.06988513  0.31732128  0.55955966  1
  Zn  Zn165  1  0.05724944  0.81900484  0.07153308  1
  Zn  Zn166  1  0.06223990  0.81162395  0.56307534  1
  Zn  Zn167  1  0.56223031  0.31346743  0.06549444  1
  Zn  Zn168  1  0.56510420  0.31568201  0.56918148  1
  Zn  Zn169  1  0.56112715  0.81166893  0.06654539  1
  Zn  Zn170  1  0.56160732  0.81485173  0.56423591  1
  O  O171  1  0.11191139  0.12803990  0.11023844  1
  O  O172  1  0.11930580  0.12101176  0.61779601  1
  O  O173  1  0.12478687  0.62706495  0.10504805  1
  O  O174  1  0.11513509  0.62254224  0.61625339  1
  O  O175  1  0.61766578  0.11975308  0.11904574  1
  O  O176  1  0.63138957  0.11078166  0.62297900  1
  O  O177  1  0.62486972  0.61154330  0.12001947  1
  O  O178  1  0.61064930  0.62851780  0.61455478  1
  O  O179  1  0.38032556  0.38760576  0.37085265  1
  O  O180  1  0.37787297  0.38752881  0.87994589  1
  O  O181  1  0.37419936  0.88396233  0.39152911  1
  O  O182  1  0.38272072  0.87702197  0.87942419  1
  O  O183  1  0.88492673  0.38323034  0.37736233  1
  O  O184  1  0.87860236  0.38459064  0.88119953  1
  O  O185  1  0.87392047  0.88199797  0.38677576  1
  O  O186  1  0.87390566  0.88996613  0.87190188  1
  O  O187  1  0.26493237  -0.00029988  0.38436495  1
  O  O188  1  0.25571050  0.00325064  0.86756520  1
  O  O189  1  0.26202206  0.50062507  0.36731085  1
  O  O190  1  0.25779891  0.49075074  0.88262069  1
  O  O191  1  0.76317629  -0.00807763  0.36168778  1
  O  O192  1  0.75795729  0.00365266  0.86573775  1
  O  O193  1  0.75786920  0.49131943  0.36718729  1
  O  O194  1  0.75565744  0.50566078  0.86825716  1
  O  O195  1  0.25360035  0.50128011  0.14105016  1
  O  O196  1  0.25761544  0.48170790  0.61807492  1
  O  O197  1  0.25525690  0.98772227  0.11623858  1
  O  O198  1  0.24274129  1.00118217  0.63328910  1
  O  O199  1  0.74057849  0.49392474  0.13161600  1
  O  O200  1  0.75712224  0.49340631  0.63503188  1
  O  O201  1  0.74695288  0.99472336  0.12977571  1
  O  O202  1  0.74562968  0.99490305  0.62915691  1
  O  O203  1  -0.00237834  0.36893858  0.26034520  1
  O  O204  1  -0.00102911  0.36413495  0.75759835  1
  O  O205  1  -0.00209082  0.85577360  0.24855484  1
  O  O206  1  0.01175511  0.86941604  0.74916972  1
  O  O207  1  0.51495797  0.37625349  0.24504095  1
  O  O208  1  0.51460358  0.36680141  0.74425970  1
  O  O209  1  0.51395992  0.86888219  0.24449533  1
  O  O210  1  0.50350449  0.86419552  0.75503344  1
  O  O211  1  0.48892237  0.11640991  0.23328445  1
  O  O212  1  0.50425745  0.13787226  0.75206471  1
  O  O213  1  0.49550036  0.63405068  0.25011187  1
  O  O214  1  0.49528663  0.62796991  0.74281869  1
  O  O215  1  1.00136036  0.13749285  0.23180625  1
  O  O216  1  1.00108964  0.13762479  0.74395800  1
  O  O217  1  0.98449304  0.62550948  0.25012633  1
  O  O218  1  1.00218643  0.63505423  0.73886164  1
  O  O219  1  0.37129272  0.25524201  0.00059375  1
  O  O220  1  0.36242649  0.24726445  0.50674271  1
  O  O221  1  0.38982184  0.75750358  0.00931520  1
  O  O222  1  0.37175148  0.75807733  0.49972935  1
  O  O223  1  0.87160982  0.25947465  0.00509227  1
  O  O224  1  0.87102026  0.25363220  0.51312594  1
  O  O225  1  0.85131960  0.73461655  0.00772594  1
  O  O226  1  0.86812436  0.75526402  0.50324143  1
  O  O227  1  0.13644383  0.24362638  0.49718504  1
  O  O228  1  0.13456850  0.24359641  0.99403615  1
  O  O229  1  0.13122747  0.74111807  0.50192765  1
  O  O230  1  0.12789068  0.73740301  0.98508006  1
  O  O231  1  0.64579197  0.25161201  0.51441423  1
  O  O232  1  0.63101039  0.24825778  0.99236432  1
  O  O233  1  0.62936785  0.74810359  0.49502990  1
  O  O234  1  0.62885295  0.74211992  0.99598531  1
  O  O235  1  0.49176679  0.23882798  0.11583495  1
  O  O236  1  0.49175527  0.25298147  0.63194861  1
  O  O237  1  0.49617152  0.74711192  0.13921038  1
  O  O238  1  0.49933595  0.74334731  0.63686618  1
  O  O239  1  0.99480928  0.25558953  0.12934877  1
  O  O240  1  0.99699821  0.25017226  0.63125354  1
  O  O241  1  0.99060914  0.74050194  0.14332042  1
  O  O242  1  0.99307963  0.74541468  0.63350391  1
  O  O243  1  0.00146305  0.26055557  0.36248237  1
  O  O244  1  0.00239775  0.25381068  0.86834172  1
  O  O245  1  -0.00883575  0.74342214  0.36401062  1
  O  O246  1  0.00954319  0.74787403  0.85846857  1
  O  O247  1  0.52610569  0.20005504  0.38472675  1
  O  O248  1  0.51480627  0.24646567  0.86905988  1
  O  O249  1  0.50633896  0.75212622  0.36474944  1
  O  O250  1  0.50500913  0.74949222  0.86411212  1
  O  O251  1  0.24054380  0.13962409  0.50486810  1
  O  O252  1  0.23936962  0.12987530  0.99333695  1
  O  O253  1  0.23849558  0.63028183  0.50142266  1
  O  O254  1  0.24647378  0.62078778  0.99983001  1
  O  O255  1  0.75821077  0.14367832  0.50499920  1
  O  O256  1  0.74443171  0.13246214  0.99619588  1
  O  O257  1  0.73675898  0.63658381  0.50833970  1
  O  O258  1  0.73767524  0.62722718  0.99279187  1
  O  O259  1  0.26749360  0.36222201  -0.00550674  1
  O  O260  1  0.24633888  0.36121895  0.50994859  1
  O  O261  1  0.26529952  0.87008297  -0.00409659  1
  O  O262  1  0.25990276  0.86695377  0.50291172  1
  O  O263  1  0.75615885  0.37196858  0.00667328  1
  O  O264  1  0.75441043  0.36725223  0.51005357  1
  O  O265  1  0.74080451  0.86436917  0.00946779  1
  O  O266  1  0.75982050  0.86641565  0.50746493  1
  O  O267  1  0.13863764  0.50994784  0.24902510  1
  O  O268  1  0.11956890  0.49649161  0.74460155  1
  O  O269  1  0.11608802  0.99758400  0.24023873  1
  O  O270  1  0.12721283  0.99310029  0.74785498  1
  O  O271  1  0.62888378  0.49581108  0.24463787  1
  O  O272  1  0.63523194  0.49078291  0.75652449  1
  O  O273  1  0.63338393  0.99222567  0.24296420  1
  O  O274  1  0.63555617  0.99475201  0.74351074  1
  O  O275  1  0.38061584  -0.00445106  0.26985299  1
  O  O276  1  0.36852870  -0.00042973  0.75469896  1
  O  O277  1  0.37403306  0.50593311  0.25873980  1
  O  O278  1  0.37675115  0.50235676  0.76481289  1
  O  O279  1  0.86854958  -0.00398098  0.26019735  1
  O  O280  1  0.86444808  -0.00014180  0.74814520  1
  O  O281  1  0.86413358  0.50377726  0.25784183  1
  O  O282  1  0.86269947  0.49642259  0.76065335  1
  O  O283  1  0.11366379  0.37650235  0.37687084  1
  O  O284  1  0.11600183  0.36742931  0.88041239  1
  O  O285  1  0.12126945  0.86753903  0.37164099  1
  O  O286  1  0.12234190  0.86412462  0.86997133  1
  O  O287  1  0.62530646  0.37558738  0.36259309  1
  O  O288  1  0.63329855  0.36490645  0.86521474  1
  O  O289  1  0.62927489  0.86670911  0.36628584  1
  O  O290  1  0.62064063  0.86909153  0.86757919  1
  O  O291  1  0.38481280  0.13570001  0.11384650  1
  O  O292  1  0.36659171  0.14074797  0.63119258  1
  O  O293  1  0.38209908  0.62911258  0.13751725  1
  O  O294  1  0.38547202  0.62553158  0.63182949  1
  O  O295  1  0.89117896  0.13857714  0.11358624  1
  O  O296  1  0.88528479  0.13397092  0.62808765  1
  O  O297  1  0.86820756  0.62430990  0.14235183  1
  O  O298  1  0.88210925  0.63983579  0.61693299  1
  O  O299  1  0.25760718  0.25047132  0.11154641  1
  O  O300  1  0.25625975  0.25811048  0.61709919  1
  O  O301  1  0.27247928  0.74652349  0.12860157  1
  O  O302  1  0.25198746  0.75073775  0.61275288  1
  O  O303  1  0.75932030  0.25450947  0.11816707  1
  O  O304  1  0.76130700  0.25803687  0.62357205  1
  O  O305  1  0.74304270  0.75837776  0.11946193  1
  O  O306  1  0.75696724  0.75453672  0.61846208  1
  O  O307  1  0.25058907  0.25840509  0.38710882  1
  O  O308  1  0.24780298  0.24365150  0.88250047  1
  O  O309  1  0.25106927  0.74532709  0.38903799  1
  O  O310  1  0.23782563  0.75119064  0.86733164  1
  O  O311  1  0.75930965  0.25158957  0.39196162  1
  O  O312  1  0.74491855  0.24561229  0.87880011  1
  O  O313  1  0.74306270  0.75446610  0.38764915  1
  O  O314  1  0.74371645  0.74772869  0.88105594  1
  O  O315  1  0.01228220  0.12909479  0.00803407  1
  O  O316  1  0.00710121  0.12115521  0.50561184  1
  O  O317  1  -0.00946303  0.62185068  0.00098436  1
  O  O318  1  0.01258886  0.63019198  0.50932808  1
  O  O319  1  0.50796879  0.11587551  0.00287385  1
  O  O320  1  0.49453372  0.10677855  0.51566630  1
  O  O321  1  0.50751386  0.61588641  0.00158730  1
  O  O322  1  0.50545878  0.61920893  0.50728417  1
  O  O323  1  0.50979699  0.38936675  0.50369000  1
  O  O324  1  0.49042002  0.38052970  1.00193394  1
  O  O325  1  0.48471494  0.87969702  0.50655598  1
  O  O326  1  0.49914291  0.88032117  0.99234503  1
  O  O327  1  0.99880909  0.36872704  0.48292368  1
  O  O328  1  0.99187543  0.38987958  0.99350808  1
  O  O329  1  0.99111403  0.88577340  0.50787552  1
  O  O330  1  0.98487785  0.83382141  0.99316247  1
  O  O331  1  0.48851152  0.50471593  0.38160178  1
  O  O332  1  0.50189675  0.49992229  0.88638816  1
  O  O333  1  0.49224049  1.00293031  0.39552597  1
  O  O334  1  0.49793270  0.99395416  0.87760199  1
  O  O335  1  0.99200614  0.48752396  0.36914122  1
  O  O336  1  0.98992125  0.50093091  0.88037451  1
  O  O337  1  0.99264477  1.00767513  0.38741630  1
  O  O338  1  0.98343440  0.99832927  0.87221623  1
  O  O339  1  -0.01228027  0.01341052  0.12459084  1
  O  O340  1  0.00448385  0.00722879  0.61557898  1
  O  O341  1  0.00110667  0.50507695  0.11464364  1
  O  O342  1  -0.00804374  0.51289127  0.62654096  1
  O  O343  1  0.50378672  0.00479195  0.11650605  1
  O  O344  1  0.50966956  -0.00623752  0.62343147  1
  O  O345  1  0.50723332  0.49996484  0.11474181  1
  O  O346  1  0.49251467  0.50626378  0.61575202  1
  O  O347  1  0.25246094  0.39240278  0.24737152  1
  O  O348  1  0.25053010  0.36578574  0.73673486  1
  O  O349  1  0.24835313  0.88529550  0.24782186  1
  O  O350  1  0.23861687  0.88243476  0.74850260  1
  O  O351  1  0.74263192  0.38455354  0.24388498  1
  O  O352  1  0.74391697  0.38346996  0.74449076  1
  O  O353  1  0.73969879  0.88070287  0.24201896  1
  O  O354  1  0.74553271  0.88197747  0.74288069  1
  O  O355  1  0.25654672  0.11811509  0.24272675  1
  O  O356  1  0.24649334  0.11788225  0.75840000  1
  O  O357  1  0.26121424  0.61382145  0.25438654  1
  O  O358  1  0.26350104  0.62777461  0.74121365  1
  O  O359  1  0.74843027  0.11241298  0.24745538  1
  O  O360  1  0.75220938  0.11646658  0.75505575  1
  O  O361  1  0.75019254  0.61036822  0.25076878  1
  O  O362  1  0.74201820  0.61518667  0.75488878  1
  O  O363  1  0.37433432  0.10872180  0.37802005  1
  O  O364  1  0.36896220  0.11683662  0.87246358  1
  O  O365  1  0.37536796  0.61999291  0.36476892  1
  O  O366  1  0.37615135  0.60720398  0.86763203  1
  O  O367  1  0.86990781  0.11449148  0.38112111  1
  O  O368  1  0.86969201  0.11485327  0.87282530  1
  O  O369  1  0.87384503  0.61222809  0.36616116  1
  O  O370  1  0.86653213  0.61671769  0.87742733  1
  O  O371  1  0.14179980  0.39488165  0.08447166  1
  O  O372  1  0.14023032  0.37578617  0.62831892  1
  O  O373  1  0.13761771  0.83076646  0.14284400  1
  O  O374  1  0.12612928  0.88311995  0.63306360  1
  O  O375  1  0.63082692  0.38471801  0.12746372  1
  O  O376  1  0.64074601  0.37334799  0.63666207  1
  O  O377  1  0.63193404  0.88147631  0.13117301  1
  O  O378  1  0.63246825  0.87870512  0.63234491  1
  O  O379  1  0.11623947  0.25153482  0.24460814  1
  O  O380  1  0.11819092  0.25260595  0.75864823  1
  O  O381  1  0.10285415  0.72798278  0.26369383  1
  O  O382  1  0.12096964  0.75586385  0.75618659  1
  O  O383  1  0.63101024  0.26392880  0.24556516  1
  O  O384  1  0.62211495  0.25639362  0.75527762  1
  O  O385  1  0.62009349  0.75519219  0.25847879  1
  O  O386  1  0.61866380  0.75327787  0.75353502  1
  O  O387  1  0.37155630  0.25054812  0.23509168  1
  O  O388  1  0.38814418  0.24804041  0.74629783  1
  O  O389  1  0.38272240  0.74533079  0.24915093  1
  O  O390  1  0.38334713  0.73975763  0.75107895  1
  O  O391  1  0.87968486  0.25623371  0.23660328  1
  O  O392  1  0.88233689  0.24979041  0.74094096  1
  O  O393  1  0.87517463  0.74056852  0.25446628  1
  O  O394  1  0.88300526  0.75603799  0.74016841  1
  O  O395  1  0.38260668  0.50458130  0.48367506  1
  O  O396  1  0.38176413  0.49341050  0.99090469  1
  O  O397  1  0.38089808  0.99087911  0.50117068  1
  O  O398  1  0.38448327  0.98996262  0.99065979  1
  O  O399  1  0.86921559  0.50104643  0.48746086  1
  O  O400  1  0.87750042  0.49866261  0.99356010  1
  O  O401  1  0.88239462  0.99325590  0.49515913  1
  O  O402  1  0.86700040  0.99983262  0.98736313  1
  O  O403  1  0.12375111  0.01085684  -0.00826707  1
  O  O404  1  0.11962748  0.00734385  0.50256806  1
  O  O405  1  0.11287740  0.52350840  -0.01062497  1
  O  O406  1  0.12982659  0.51157577  0.50664842  1
  O  O407  1  0.62189854  0.00481462  0.00478883  1
  O  O408  1  0.60490899  -0.01572354  0.51301501  1
  O  O409  1  0.61945404  0.50176372  0.00646636  1
  O  O410  1  0.61823500  0.51311780  0.49011385  1
  O  O411  1  0.37352103  0.36716959  0.11464403  1
  O  O412  1  0.36438808  0.36144970  0.62998550  1
  O  O413  1  0.38202237  0.86545672  0.11418218  1
  O  O414  1  0.37022945  0.86949729  0.61399514  1
  O  O415  1  0.86963819  0.37157151  0.11920621  1
  O  O416  1  0.86782112  0.36923459  0.62526527  1
  O  O417  1  0.85886478  0.87154192  0.13138910  1
  O  O418  1  0.87098194  0.86508577  0.61636487  1
  O  O419  1  0.11780965  0.13187537  0.38524426  1
  O  O420  1  0.12716184  0.13031574  0.88503619  1
  O  O421  1  0.12476182  0.62533711  0.39127242  1
  O  O422  1  0.12561643  0.63746235  0.88229824  1
  O  O423  1  0.64496270  0.08771585  0.39151848  1
  O  O424  1  0.63383495  0.13206729  0.88024874  1
  O  O425  1  0.62014282  0.64209284  0.38504328  1
  O  O426  1  0.62965511  0.63073989  0.88015826  1
