# generated using pymatgen
data_V85Zn86O256
_symmetry_space_group_name_H-M   'P 1'
_cell_length_a   16.96086045
_cell_length_b   16.94418628
_cell_length_c   16.95963767
_cell_angle_alpha   90.03469989
_cell_angle_beta   89.95607485
_cell_angle_gamma   90.00989748
_symmetry_Int_Tables_number   1
_chemical_formula_structural   V85Zn86O256
_chemical_formula_sum   'V85 Zn86 O256'
_cell_volume   4873.99359345
_cell_formula_units_Z   1
loop_
 _symmetry_equiv_pos_site_id
 _symmetry_equiv_pos_as_xyz
  1  'x, y, z'
loop_
 _atom_site_type_symbol
 _atom_site_label
 _atom_site_symmetry_multiplicity
 _atom_site_fract_x
 _atom_site_fract_y
 _atom_site_fract_z
 _atom_site_occupancy
  V  V0  1  0.50201283  0.87001504  0.87382250  1
  V  V1  1  0.25023469  0.37596577  0.62379527  1
  V  V2  1  -0.00208996  0.76190723  0.25466456  1
  V  V3  1  0.50519570  0.24992379  0.75503529  1
  V  V4  1  0.25809450  0.12938391  0.36194175  1
  V  V5  1  0.87927336  -0.00501861  0.37213860  1
  V  V6  1  -0.00367694  0.50342682  0.49953550  1
  V  V7  1  0.25199985  0.24979951  -0.00035448  1
  V  V8  1  0.74611769  0.37873303  0.61608521  1
  V  V9  1  0.74661316  0.87751827  0.12885204  1
  V  V10  1  0.75036231  0.13169269  0.37425554  1
  V  V11  1  0.23740424  0.63354254  0.87773307  1
  V  V12  1  0.37587202  0.37590391  0.00172189  1
  V  V13  1  0.49778208  0.50664393  0.00307916  1
  V  V14  1  0.38006929  0.00330302  0.36696998  1
  V  V15  1  0.49924777  0.24599729  0.25348834  1
  V  V16  1  0.12476930  0.24785866  0.87398444  1
  V  V17  1  0.74899652  0.37059772  0.12894156  1
  V  V18  1  0.63047642  0.38170086  0.75063890  1
  V  V19  1  0.87780734  0.75237139  0.12232093  1
  V  V20  1  0.50175649  0.12320834  0.62579110  1
  V  V21  1  0.11216668  0.86896387  0.75340043  1
  V  V22  1  0.62484394  0.12605911  -0.00597030  1
  V  V23  1  0.25031951  0.86950123  0.61953571  1
  V  V24  1  0.50463857  0.37280891  0.87664115  1
  V  V25  1  0.24425164  0.50826012  0.24510007  1
  V  V26  1  0.87114305  0.36882511  0.49868988  1
  V  V27  1  0.50165352  -0.00247834  0.49648216  1
  V  V28  1  0.62374312  0.37400036  0.25322064  1
  V  V29  1  0.00911304  0.24530949  0.24649930  1
  V  V30  1  0.61004272  0.50662522  0.62261421  1
  V  V31  1  0.25152272  0.24365967  0.49519471  1
  V  V32  1  -0.00014086  0.62446052  0.62878086  1
  V  V33  1  0.37796684  0.12308253  0.74974802  1
  V  V34  1  0.86836527  0.74381811  0.62792830  1
  V  V35  1  0.13547999  0.87514131  0.23517526  1
  V  V36  1  0.00073931  -0.00190210  -0.01311505  1
  V  V37  1  0.37619529  0.38194728  0.49955979  1
  V  V38  1  0.37370245  0.50323354  0.87526274  1
  V  V39  1  0.74529881  0.24824714  -0.00777923  1
  V  V40  1  0.12279881  0.76309698  0.38114537  1
  V  V41  1  0.60965347  0.62475744  0.50090754  1
  V  V42  1  0.75782749  0.11315961  0.86353993  1
  V  V43  1  0.62748233  0.13318133  0.50091295  1
  V  V44  1  0.37389320  0.24937399  0.13171621  1
  V  V45  1  0.23660392  0.75274339  0.00504378  1
  V  V46  1  0.49272133  0.75805487  0.24899129  1
  V  V47  1  0.86646945  0.60557440  0.75069848  1
  V  V48  1  0.24998183  0.50342241  0.75071789  1
  V  V49  1  0.37427226  0.25035504  0.62550724  1
  V  V50  1  0.25121057  0.63330980  0.37359996  1
  V  V51  1  0.12981516  0.63266050  0.49957224  1
  V  V52  1  0.49863081  0.12368952  0.12760254  1
  V  V53  1  0.37581097  0.87394644  0.49436892  1
  V  V54  1  0.12709704  0.37645242  0.75246411  1
  V  V55  1  0.62353532  0.50192334  0.12750418  1
  V  V56  1  0.87808399  0.87756219  -0.01341828  1
  V  V57  1  0.12584109  0.50356950  0.62476728  1
  V  V58  1  0.38076872  0.62792806  0.74681158  1
  V  V59  1  0.00044569  0.37478951  0.87879537  1
  V  V60  1  0.87432943  0.24305842  0.12729268  1
  V  V61  1  0.49875400  0.38040568  0.37803835  1
  V  V62  1  0.00915088  0.37839513  0.37504091  1
  V  V63  1  0.01231182  0.62212319  0.12829675  1
  V  V64  1  0.25307619  0.12430115  0.87460072  1
  V  V65  1  0.24184388  0.38056112  0.12516229  1
  V  V66  1  0.62194322  0.76729322  0.36695803  1
  V  V67  1  0.37773147  -0.00449118  0.87452349  1
  V  V68  1  0.74718923  0.62567501  0.37909926  1
  V  V69  1  0.74711150  0.75597001  0.50229596  1
  V  V70  1  0.88408505  0.87168008  0.49494950  1
  V  V71  1  0.80909834  0.92580104  0.68146620  1
  V  V72  1  0.74958300  0.49948455  0.25197220  1
  V  V73  1  0.62721757  0.87714049  0.74205100  1
  V  V74  1  0.62894227  0.74638373  0.87565880  1
  V  V75  1  0.37336842  0.86968900  0.01162257  1
  V  V76  1  0.87561667  0.62513412  0.24899429  1
  V  V77  1  0.87380727  0.37694349  0.00404328  1
  V  V78  1  0.25053225  -0.00593490  0.74722285  1
  V  V79  1  0.38086459  0.74734227  0.61829101  1
  V  V80  1  0.50093802  -0.00214117  0.00079024  1
  V  V81  1  0.37419121  0.50669545  0.37044393  1
  V  V82  1  0.01197622  0.50276132  0.00858105  1
  V  V83  1  0.07663592  0.19400312  0.42778140  1
  V  V84  1  0.12259809  0.01058532  0.61682004  1
  Zn  Zn85  1  0.74421394  -0.00278568  0.25475118  1
  Zn  Zn86  1  0.12540792  0.37750214  0.25048589  1
  Zn  Zn87  1  0.36807560  0.74106222  0.13033702  1
  Zn  Zn88  1  0.87478071  0.49915289  0.37371911  1
  Zn  Zn89  1  0.25926671  -0.00275639  0.23982181  1
  Zn  Zn90  1  -0.00144129  0.74604579  0.76294987  1
  Zn  Zn91  1  0.86879408  0.49460061  0.87491160  1
  Zn  Zn92  1  0.86437644  0.23647294  0.63441636  1
  Zn  Zn93  1  0.62271487  -0.00496012  0.12994365  1
  Zn  Zn94  1  0.62809316  0.62563565  0.00186686  1
  Zn  Zn95  1  0.87608951  0.12171770  0.25210958  1
  Zn  Zn96  1  -0.01042343  0.22952370  0.74787555  1
  Zn  Zn97  1  0.00136748  0.11688433  0.12302779  1
  Zn  Zn98  1  0.75104046  0.74626707  0.00042525  1
  Zn  Zn99  1  0.00966150  -0.00510653  0.49449080  1
  Zn  Zn100  1  0.12967288  -0.00135349  0.11825107  1
  Zn  Zn101  1  0.49231669  0.62167843  0.14233897  1
  Zn  Zn102  1  0.74450036  0.61051891  0.87592004  1
  Zn  Zn103  1  0.62854019  -0.00095914  0.62792960  1
  Zn  Zn104  1  0.63117612  0.25509705  0.38090604  1
  Zn  Zn105  1  0.50453990  0.74520613  0.74390887  1
  Zn  Zn106  1  0.12450101  0.12114631  -0.00051300  1
  Zn  Zn107  1  0.18547712  0.18348587  0.18255715  1
  Zn  Zn108  1  0.18776442  0.18765915  0.69077933  1
  Zn  Zn109  1  0.18726439  0.69293532  0.19027922  1
  Zn  Zn110  1  0.19260733  0.69096024  0.68796819  1
  Zn  Zn111  1  0.68487578  0.18175999  0.18994341  1
  Zn  Zn112  1  0.68630232  0.19358483  0.68656123  1
  Zn  Zn113  1  0.68762846  0.68850626  0.18804041  1
  Zn  Zn114  1  0.68634669  0.68387754  0.68886935  1
  Zn  Zn115  1  0.31086269  0.31614031  0.31110106  1
  Zn  Zn116  1  0.31572091  0.31393294  0.81288904  1
  Zn  Zn117  1  0.31193626  0.81411472  0.31701692  1
  Zn  Zn118  1  0.31320877  0.81034269  0.81223821  1
  Zn  Zn119  1  0.81876734  0.31017145  0.31451991  1
  Zn  Zn120  1  0.80600281  0.31468824  0.81659861  1
  Zn  Zn121  1  0.80978377  0.81274411  0.31293829  1
  Zn  Zn122  1  0.81482321  0.79923225  0.81389566  1
  Zn  Zn123  1  0.18929324  0.44182108  0.43802316  1
  Zn  Zn124  1  0.18887443  0.43997400  0.93905118  1
  Zn  Zn125  1  0.19609810  0.94203250  0.43513374  1
  Zn  Zn126  1  0.19107868  0.93648047  0.93743905  1
  Zn  Zn127  1  0.68403317  0.44289129  0.44055470  1
  Zn  Zn128  1  0.68652828  0.43825547  0.94009233  1
  Zn  Zn129  1  0.69263017  0.94305259  0.44190200  1
  Zn  Zn130  1  0.68920886  0.93558657  0.94022902  1
  Zn  Zn131  1  0.31282186  0.06161938  0.06440012  1
  Zn  Zn132  1  0.31245367  0.06137260  0.55968999  1
  Zn  Zn133  1  0.31022311  0.56954345  0.06306322  1
  Zn  Zn134  1  0.31396755  0.56525269  0.55937037  1
  Zn  Zn135  1  0.81366232  0.05896446  0.05630162  1
  Zn  Zn136  1  0.80401210  0.05537977  0.55359429  1
  Zn  Zn137  1  0.81089973  0.56231038  0.06288289  1
  Zn  Zn138  1  0.80605238  0.55638691  0.56536768  1
  Zn  Zn139  1  0.43260577  0.43774208  0.19083386  1
  Zn  Zn140  1  0.43792715  0.43904090  0.68878508  1
  Zn  Zn141  1  0.44582762  0.93117594  0.19081289  1
  Zn  Zn142  1  0.44107922  0.93369578  0.68512209  1
  Zn  Zn143  1  0.93804275  0.43562495  0.18897260  1
  Zn  Zn144  1  0.93242600  0.37742251  0.69271069  1
  Zn  Zn145  1  0.93900321  0.93904505  0.18106611  1
  Zn  Zn146  1  0.94181544  1.06664230  0.67370885  1
  Zn  Zn147  1  0.05838834  0.05434946  0.30726985  1
  Zn  Zn148  1  0.06657396  0.05646981  0.81291132  1
  Zn  Zn149  1  0.06583193  0.56604576  0.31312534  1
  Zn  Zn150  1  0.05532275  0.56016988  0.81506409  1
  Zn  Zn151  1  0.56731491  0.05998781  0.31251625  1
  Zn  Zn152  1  0.57004266  0.05987704  0.81389899  1
  Zn  Zn153  1  0.56087486  0.56699019  0.31574399  1
  Zn  Zn154  1  0.56188538  0.56039096  0.81279463  1
  Zn  Zn155  1  0.43816112  0.18777386  0.43795097  1
  Zn  Zn156  1  0.43767965  0.18724079  0.93949414  1
  Zn  Zn157  1  0.43802125  0.69380400  0.43018007  1
  Zn  Zn158  1  0.43463573  0.68815771  0.93790786  1
  Zn  Zn159  1  0.90564116  0.15982852  0.48172582  1
  Zn  Zn160  1  0.93521577  0.18482324  0.93534994  1
  Zn  Zn161  1  0.93778916  0.68820872  0.43640064  1
  Zn  Zn162  1  0.93468330  0.68020020  0.93838276  1
  Zn  Zn163  1  0.06276280  0.30775349  0.06188355  1
  Zn  Zn164  1  0.05994562  0.31672201  0.56631984  1
  Zn  Zn165  1  0.05856408  0.81625459  -0.06883602  1
  Zn  Zn166  1  0.06175494  0.81210724  0.57106173  1
  Zn  Zn167  1  0.56334413  0.31273578  0.06355533  1
  Zn  Zn168  1  0.55892782  0.31465472  0.56465710  1
  Zn  Zn169  1  0.56142892  0.80815852  0.06356567  1
  Zn  Zn170  1  0.56005142  0.81186440  0.55887160  1
  O  O171  1  0.11951882  0.12313285  0.11598878  1
  O  O172  1  0.13657472  0.10881624  0.62674128  1
  O  O173  1  0.11104467  0.62846801  0.13247136  1
  O  O174  1  0.11993223  0.62538690  0.61921067  1
  O  O175  1  0.61141884  0.12704912  0.11560415  1
  O  O176  1  0.61990784  0.12365013  0.61884627  1
  O  O177  1  0.62300357  0.61094724  0.12673969  1
  O  O178  1  0.62392871  0.61458759  0.61880821  1
  O  O179  1  0.37919814  0.38299629  0.38133792  1
  O  O180  1  0.38345961  0.38268434  0.88031533  1
  O  O181  1  0.36973987  0.88501353  0.38790955  1
  O  O182  1  0.38562748  0.87743858  0.87778538  1
  O  O183  1  0.88738393  0.37759974  0.38148771  1
  O  O184  1  0.88453487  0.37300080  0.88801900  1
  O  O185  1  0.87034761  0.88052715  0.38355230  1
  O  O186  1  0.86924161  0.86746845  0.88868319  1
  O  O187  1  0.26087860  0.01231709  0.37009196  1
  O  O188  1  0.25708359  0.00319533  0.86532338  1
  O  O189  1  0.25529051  0.51078339  0.36928522  1
  O  O190  1  0.25568934  0.50908935  0.87217373  1
  O  O191  1  0.76047119  0.00854210  0.37555370  1
  O  O192  1  0.74531941  0.01395519  0.87789473  1
  O  O193  1  0.75066166  0.50951969  0.36997030  1
  O  O194  1  0.75510719  0.49591091  0.87691509  1
  O  O195  1  0.25481399  0.49315741  0.13300892  1
  O  O196  1  0.24541805  0.49630790  0.62952202  1
  O  O197  1  0.24525291  1.00417535  0.12845428  1
  O  O198  1  0.24807645  0.99166487  0.63095074  1
  O  O199  1  0.74193221  0.49166145  0.13183349  1
  O  O200  1  0.73050353  0.48905279  0.62142463  1
  O  O201  1  0.75295853  0.98542231  0.12302196  1
  O  O202  1  0.74758106  0.98588940  0.62366027  1
  O  O203  1  0.00184244  0.36857741  0.25908090  1
  O  O204  1  0.01258618  0.39203557  0.77266202  1
  O  O205  1  0.00643201  0.86413369  0.24623951  1
  O  O206  1  0.01479781  0.87108367  0.74477174  1
  O  O207  1  0.50320637  0.36689196  0.25689965  1
  O  O208  1  0.50251736  0.36924958  0.75842912  1
  O  O209  1  0.51102694  0.85836540  0.24914197  1
  O  O210  1  0.50833308  0.87105048  0.75852290  1
  O  O211  1  0.50362506  0.13910110  0.24309668  1
  O  O212  1  0.49896041  0.13190903  0.74800912  1
  O  O213  1  0.50965798  0.64686798  0.25601853  1
  O  O214  1  0.48428708  0.62480532  0.75401201  1
  O  O215  1  0.99635670  0.13219395  0.24769167  1
  O  O216  1  1.00329149  0.12004094  0.74879360  1
  O  O217  1  0.99158361  0.62759597  0.24646562  1
  O  O218  1  0.99149599  0.62281743  0.74122187  1
  O  O219  1  0.37239910  0.25709909  0.00945386  1
  O  O220  1  0.36852902  0.25953476  0.50580520  1
  O  O221  1  0.36833006  0.75770048  -0.00002804  1
  O  O222  1  0.37996584  0.76176459  0.50391429  1
  O  O223  1  0.86976739  0.25856082  0.00814892  1
  O  O224  1  0.87869552  0.26815799  0.50607050  1
  O  O225  1  0.87617384  0.75743581  0.00878834  1
  O  O226  1  0.86786084  0.75176006  0.50537028  1
  O  O227  1  0.13037648  0.25281125  0.49581694  1
  O  O228  1  0.13211345  0.24957669  0.98738990  1
  O  O229  1  0.11794471  0.74288614  0.49500793  1
  O  O230  1  0.13906016  0.76071498  0.99766342  1
  O  O231  1  0.61392715  0.23746176  0.49885870  1
  O  O232  1  0.63466175  0.24210783  1.00767336  1
  O  O233  1  0.63032089  0.74501303  0.49320691  1
  O  O234  1  0.62497417  0.74661768  0.98966345  1
  O  O235  1  0.49340698  0.24722866  0.13232221  1
  O  O236  1  0.49200344  0.24436542  0.63364480  1
  O  O237  1  0.50230842  0.74647613  0.13924199  1
  O  O238  1  0.48567788  0.75342936  0.62609947  1
  O  O239  1  0.99142820  0.24836946  0.13075892  1
  O  O240  1  0.98766939  0.28031704  0.64066026  1
  O  O241  1  0.98546996  0.73718266  0.13837879  1
  O  O242  1  0.98824780  0.73555835  0.62373390  1
  O  O243  1  0.01072148  0.25374455  0.37088906  1
  O  O244  1  0.00868569  0.25771047  0.87542260  1
  O  O245  1  0.01015624  0.74284344  0.36484963  1
  O  O246  1  0.00224403  0.74005339  0.87494883  1
  O  O247  1  0.49694109  0.26090168  0.36689959  1
  O  O248  1  0.49204381  0.26044187  0.86736211  1
  O  O249  1  0.51508915  0.75371194  0.36810642  1
  O  O250  1  0.50692160  0.75861068  0.87365379  1
  O  O251  1  0.25488518  0.13908849  0.49356897  1
  O  O252  1  0.25453681  0.13374536  0.98994021  1
  O  O253  1  0.23585159  0.62013742  0.49232917  1
  O  O254  1  0.25052325  0.63701926  0.98624995  1
  O  O255  1  0.73701915  0.12320609  0.49090167  1
  O  O256  1  0.74232860  0.13106470  0.99721028  1
  O  O257  1  0.74670527  0.63328848  0.49248170  1
  O  O258  1  0.74691664  0.62730240  0.99750832  1
  O  O259  1  0.25664015  0.37075265  0.00553315  1
  O  O260  1  0.25588732  0.36623260  0.50226402  1
  O  O261  1  0.26103476  0.86076422  -0.01073036  1
  O  O262  1  0.26193349  0.88122603  0.50996347  1
  O  O263  1  0.75565493  0.36663778  0.00894288  1
  O  O264  1  0.75801991  0.38072610  0.50211756  1
  O  O265  1  0.76263009  0.87155427  0.00789433  1
  O  O266  1  0.75718781  0.85994924  0.49802322  1
  O  O267  1  0.13945923  0.49756166  0.25529373  1
  O  O268  1  0.13166106  0.49778023  0.74507991  1
  O  O269  1  0.12441686  0.98153178  0.25170253  1
  O  O270  1  0.13469289  0.98904262  0.73912578  1
  O  O271  1  0.62844221  0.49419165  0.24640521  1
  O  O272  1  0.61422308  0.49343581  0.73593547  1
  O  O273  1  0.63020316  1.00424968  0.24196858  1
  O  O274  1  0.62243610  0.98516491  0.74696429  1
  O  O275  1  0.37951535  -0.00794192  0.26348918  1
  O  O276  1  0.37056624  0.00231144  0.75366303  1
  O  O277  1  0.36265495  0.49551952  0.26393688  1
  O  O278  1  0.36796705  0.50674618  0.75345831  1
  O  O279  1  0.87335202  -0.00001505  0.25825617  1
  O  O280  1  0.87110851  -0.01350432  0.72733366  1
  O  O281  1  0.86815973  0.50741629  0.25154491  1
  O  O282  1  0.88013335  0.50687436  0.74746472  1
  O  O283  1  0.11342576  0.37931192  0.37665896  1
  O  O284  1  0.12106114  0.36828720  0.87480666  1
  O  O285  1  0.13050232  0.86489599  0.37702957  1
  O  O286  1  0.12831757  0.87811634  0.85789091  1
  O  O287  1  0.61528769  0.37532145  0.37326391  1
  O  O288  1  0.61112112  0.38137823  0.86706634  1
  O  O289  1  0.63237147  0.86455769  0.38065654  1
  O  O290  1  0.62018695  0.86702024  0.86934129  1
  O  O291  1  0.38964089  0.13625147  0.11756087  1
  O  O292  1  0.38012617  0.12948181  0.63132989  1
  O  O293  1  0.38133676  0.62788227  0.12326261  1
  O  O294  1  0.36574852  0.63551105  0.63212758  1
  O  O295  1  0.87442963  0.13537448  0.12305657  1
  O  O296  1  0.88074668  0.12803012  0.59616314  1
  O  O297  1  0.87437430  0.62993257  0.13793755  1
  O  O298  1  0.88029423  0.62414010  0.63178255  1
  O  O299  1  0.25853565  0.25568881  0.12043534  1
  O  O300  1  0.25447971  0.25602884  0.61889227  1
  O  O301  1  0.24957061  0.74488125  0.10895142  1
  O  O302  1  0.26107706  0.76318710  0.62751297  1
  O  O303  1  0.75600255  0.25322362  0.12167467  1
  O  O304  1  0.74808345  0.27073576  0.62769798  1
  O  O305  1  0.76121270  0.75643125  0.12587604  1
  O  O306  1  0.76011956  0.73910717  0.61647770  1
  O  O307  1  0.25610827  0.24394611  0.38195877  1
  O  O308  1  0.24612458  0.24649611  0.87855896  1
  O  O309  1  0.24156210  0.73957199  0.37295055  1
  O  O310  1  0.25182271  0.73865365  0.87972726  1
  O  O311  1  0.75065502  0.23769506  0.37224823  1
  O  O312  1  0.74822503  0.24752952  0.88973963  1
  O  O313  1  0.74104883  0.74369266  0.38118921  1
  O  O314  1  0.73789817  0.74355202  0.87701661  1
  O  O315  1  -0.00219363  0.11023677  -0.00275588  1
  O  O316  1  0.01910019  0.13459257  0.48489522  1
  O  O317  1  -0.01043358  0.60829216  0.01339393  1
  O  O318  1  0.00734743  0.61992218  0.50392721  1
  O  O319  1  0.50581225  0.12006912  0.00522904  1
  O  O320  1  0.50399019  0.11853839  0.50723804  1
  O  O321  1  0.50214750  0.61164589  -0.00199212  1
  O  O322  1  0.51103305  0.63051005  0.49346575  1
  O  O323  1  0.48790513  0.36971387  0.49003002  1
  O  O324  1  0.49682104  0.38218339  0.99433377  1
  O  O325  1  0.49241462  0.88902841  0.50495835  1
  O  O326  1  0.49404288  0.87728078  0.99332558  1
  O  O327  1  0.99480049  0.38649557  0.49340927  1
  O  O328  1  0.99495380  0.38083387  0.99744457  1
  O  O329  1  0.98668132  0.86976658  0.50451333  1
  O  O330  1  0.98743695  0.88244034  0.99733155  1
  O  O331  1  0.49024508  0.48934217  0.36812236  1
  O  O332  1  0.49348612  0.49315407  0.88375977  1
  O  O333  1  0.49316183  1.00988464  0.38649509  1
  O  O334  1  0.49873393  0.98798475  0.88018423  1
  O  O335  1  0.99957717  0.49557608  0.38141277  1
  O  O336  1  0.99441281  0.49430696  0.89312865  1
  O  O337  1  0.98555214  1.00371032  0.38046252  1
  O  O338  1  1.00191538  0.99633900  0.88720330  1
  O  O339  1  0.00496797  -0.00088205  0.11053618  1
  O  O340  1  0.01875210  0.00023530  0.61410818  1
  O  O341  1  -0.00242450  0.50445643  0.11779447  1
  O  O342  1  0.00785515  0.51259109  0.61520139  1
  O  O343  1  0.49730374  0.00860074  0.11945851  1
  O  O344  1  0.50007296  0.00881087  0.61759546  1
  O  O345  1  0.50567532  0.49798743  0.12077939  1
  O  O346  1  0.51044822  0.49430869  0.61978052  1
  O  O347  1  0.24738653  0.38348553  0.24147624  1
  O  O348  1  0.24614636  0.38227115  0.74604721  1
  O  O349  1  0.23866774  0.87389940  0.25216294  1
  O  O350  1  0.25178386  0.88375878  0.74257503  1
  O  O351  1  0.74517541  0.37851778  0.24863027  1
  O  O352  1  0.73259360  0.37525615  0.74538433  1
  O  O353  1  0.75643996  0.87494377  0.23254447  1
  O  O354  1  0.74817292  0.87262922  0.74847049  1
  O  O355  1  0.25120626  0.12893895  0.25971262  1
  O  O356  1  0.25732105  0.11411759  0.75415002  1
  O  O357  1  0.24540731  0.62045242  0.25995932  1
  O  O358  1  0.25769918  0.62314279  0.75942008  1
  O  O359  1  0.75545438  0.12305650  0.25922035  1
  O  O360  1  0.73878887  0.13097386  0.76547872  1
  O  O361  1  0.75535447  0.62072120  0.25827423  1
  O  O362  1  0.76382457  0.62104041  0.74790151  1
  O  O363  1  0.36849748  0.11744604  0.37824539  1
  O  O364  1  0.37360226  0.11728206  0.86822132  1
  O  O365  1  0.36507663  0.61768515  0.38358574  1
  O  O366  1  0.36726804  0.61995516  0.86765379  1
  O  O367  1  0.86543010  0.11646173  0.38243419  1
  O  O368  1  0.85679847  0.12946809  0.87522141  1
  O  O369  1  0.86483510  0.62654012  0.36534971  1
  O  O370  1  0.87304674  0.61806788  0.85965407  1
  O  O371  1  0.13946838  0.37029135  0.12266086  1
  O  O372  1  0.13324525  0.38385985  0.63058363  1
  O  O373  1  0.12779951  0.87185217  0.13842101  1
  O  O374  1  0.13509198  0.88139442  0.63134261  1
  O  O375  1  0.62822645  0.38400786  0.13244175  1
  O  O376  1  0.62466698  0.38455489  0.62907466  1
  O  O377  1  0.64410758  0.87234871  0.11467833  1
  O  O378  1  0.62076206  0.87092321  0.63838424  1
  O  O379  1  0.11246122  0.25528582  0.24280372  1
  O  O380  1  0.12799664  0.25768010  0.76210550  1
  O  O381  1  0.11836807  0.76070511  0.25857478  1
  O  O382  1  0.12318359  0.76477998  0.74051997  1
  O  O383  1  0.61611733  0.25769280  0.25251032  1
  O  O384  1  0.60953607  0.26240332  0.74520781  1
  O  O385  1  0.62894581  0.75152446  0.26526067  1
  O  O386  1  0.62401485  0.75516987  0.75688935  1
  O  O387  1  0.38208452  0.25710720  0.23809267  1
  O  O388  1  0.38320134  0.24505788  0.74500697  1
  O  O389  1  0.38793569  0.75811139  0.25156223  1
  O  O390  1  0.37690855  0.74292590  0.74091017  1
  O  O391  1  0.88710697  0.24868235  0.24225901  1
  O  O392  1  0.88105521  0.27778606  0.74354923  1
  O  O393  1  0.88114553  0.74426340  0.24846017  1
  O  O394  1  0.87782083  0.73829593  0.73981105  1
  O  O395  1  0.36680864  0.48856378  0.48947251  1
  O  O396  1  0.38087997  0.49452040  0.99623562  1
  O  O397  1  0.38281215  0.99527007  0.49303707  1
  O  O398  1  0.38132411  0.99091003  0.99223520  1
  O  O399  1  0.88659561  0.50151118  0.49573056  1
  O  O400  1  0.88019989  0.48397569  1.00835158  1
  O  O401  1  0.87705159  0.98617479  0.49298622  1
  O  O402  1  0.88419206  0.98560822  1.00042852  1
  O  O403  1  0.11342059  -0.00338399  -0.00366956  1
  O  O404  1  0.13009194  -0.00379439  0.51213694  1
  O  O405  1  0.11054613  0.49660750  0.00204182  1
  O  O406  1  0.11598509  0.50861014  0.50435695  1
  O  O407  1  0.61721407  0.00664464  0.00593462  1
  O  O408  1  0.61709427  0.00850944  0.50377610  1
  O  O409  1  0.61434021  0.49686410  0.01164090  1
  O  O410  1  0.62292301  0.51171540  0.50987452  1
  O  O411  1  0.36725307  0.36885761  0.11997584  1
  O  O412  1  0.36982981  0.37269464  0.61769617  1
  O  O413  1  0.38041039  0.86993856  0.11350602  1
  O  O414  1  0.36950565  0.86982708  0.61678517  1
  O  O415  1  0.87011202  0.36354465  0.12250177  1
  O  O416  1  0.85857880  0.39503602  0.60955928  1
  O  O417  1  0.86931914  0.86618194  0.11714822  1
  O  O418  1  0.86613948  0.86142889  0.61870609  1
  O  O419  1  0.13229220  0.12836324  0.37124346  1
  O  O420  1  0.13505508  0.13240651  0.87599380  1
  O  O421  1  0.13125898  0.63490790  0.38277404  1
  O  O422  1  0.13992475  0.61925072  0.86866376  1
  O  O423  1  0.63210144  0.12913557  0.38338344  1
  O  O424  1  0.62777295  0.12495914  0.88962397  1
  O  O425  1  0.63502629  0.62915672  0.38409203  1
  O  O426  1  0.62360915  0.63292197  0.87441304  1
