# generated using pymatgen
data_V85Zn86O256
_symmetry_space_group_name_H-M   'P 1'
_cell_length_a   16.94027532
_cell_length_b   16.93688029
_cell_length_c   16.95408870
_cell_angle_alpha   89.93655772
_cell_angle_beta   89.99959078
_cell_angle_gamma   89.99226242
_symmetry_Int_Tables_number   1
_chemical_formula_structural   V85Zn86O256
_chemical_formula_sum   'V85 Zn86 O256'
_cell_volume   4864.38637206
_cell_formula_units_Z   1
loop_
 _symmetry_equiv_pos_site_id
 _symmetry_equiv_pos_as_xyz
  1  'x, y, z'
loop_
 _atom_site_type_symbol
 _atom_site_label
 _atom_site_symmetry_multiplicity
 _atom_site_fract_x
 _atom_site_fract_y
 _atom_site_fract_z
 _atom_site_occupancy
  V  V0  1  0.75455884  0.49022263  0.24887258  1
  V  V1  1  0.12815476  0.87065595  0.74634889  1
  V  V2  1  0.39095343  0.49435947  0.37706748  1
  V  V3  1  -0.00494001  -0.00547247  -0.00029127  1
  V  V4  1  0.25468497  0.24619586  0.00397991  1
  V  V5  1  0.75036695  0.25521528  -0.00607109  1
  V  V6  1  0.24916191  0.75360443  0.50787479  1
  V  V7  1  0.12644918  0.74976681  0.37670145  1
  V  V8  1  0.62374957  0.87036376  0.74950285  1
  V  V9  1  0.25463144  0.87218209  0.12727242  1
  V  V10  1  0.37497355  0.00264662  0.37744411  1
  V  V11  1  0.87636162  0.12517346  0.74941042  1
  V  V12  1  0.62107527  -0.00237622  0.62298332  1
  V  V13  1  -0.00389080  0.12559355  0.62580039  1
  V  V14  1  0.74360290  0.00528541  0.25744611  1
  V  V15  1  0.49646042  0.12035245  0.62453583  1
  V  V16  1  0.74937518  0.87438443  0.12701261  1
  V  V17  1  0.49786652  0.87837582  0.37596312  1
  V  V18  1  0.37343632  0.87837521  0.50515215  1
  V  V19  1  0.62219141  0.74639446  0.37590048  1
  V  V20  1  0.37432429  0.62523307  0.74908355  1
  V  V21  1  0.87993025  0.25165734  0.12385311  1
  V  V22  1  0.81471184  0.56788216  0.81531055  1
  V  V23  1  0.62023694  -0.00023176  0.12377170  1
  V  V24  1  0.63817635  0.62825289  0.00109263  1
  V  V25  1  0.75331683  0.24454964  0.50600535  1
  V  V26  1  0.12531452  0.49330222  0.62956402  1
  V  V27  1  0.87547512  0.73913339  0.62149120  1
  V  V28  1  0.00489913  0.25201991  0.74703563  1
  V  V29  1  0.00906665  0.37751026  0.87188413  1
  V  V30  1  0.24596070  0.36809623  0.63047263  1
  V  V31  1  0.37445100  0.87021175  0.00187348  1
  V  V32  1  0.75113935  0.62563082  0.37029055  1
  V  V33  1  0.00307412  0.50431406  -0.00482587  1
  V  V34  1  -0.00336509  0.37711664  0.37416288  1
  V  V35  1  0.74266068  0.74123958  0.50177399  1
  V  V36  1  0.26135437  0.37208167  0.12397054  1
  V  V37  1  0.12601536  0.62314158  0.50114592  1
  V  V38  1  -0.00121614  0.00017807  0.50156981  1
  V  V39  1  0.50734829  0.62562677  0.60731154  1
  V  V40  1  0.87134593  0.75594134  0.12670170  1
  V  V41  1  0.87286659  0.87509924  0.49944404  1
  V  V42  1  0.87111216  0.00625875  0.37644328  1
  V  V43  1  0.50163525  0.50303822  0.01988736  1
  V  V44  1  0.68617951  0.19628902  0.33448263  1
  V  V45  1  0.00299746  0.86972230  0.87810882  1
  V  V46  1  0.62164047  0.12889601  -0.00555490  1
  V  V47  1  0.74706135  0.87041069  0.62437066  1
  V  V48  1  0.12741509  0.37748522  0.24758865  1
  V  V49  1  0.38779721  0.49188613  0.87351646  1
  V  V50  1  0.37695064  0.11556632  0.75217457  1
  V  V51  1  0.87545110  0.36891010  0.50492329  1
  V  V52  1  0.00227110  0.12234503  0.12317515  1
  V  V53  1  0.12873183  0.50366579  0.12007496  1
  V  V54  1  0.12594168  0.25135115  0.37588996  1
  V  V55  1  0.61353193  0.26540827  0.86278424  1
  V  V56  1  0.87952499  0.38046791  -0.00507401  1
  V  V57  1  0.00377758  0.62818641  0.12268047  1
  V  V58  1  -0.00160707  0.75128536  0.25317407  1
  V  V59  1  0.62537911  0.12409535  0.49986901  1
  V  V60  1  0.43182336  0.29629873  0.68244675  1
  V  V61  1  0.50075264  0.74444265  0.75184830  1
  V  V62  1  0.13538136  -0.00334986  0.62390095  1
  V  V63  1  0.37176606  0.13314994  0.24843399  1
  V  V64  1  0.24521199  0.63459533  0.88063161  1
  V  V65  1  0.25537425  0.62038905  0.36987374  1
  V  V66  1  0.74913571  0.12426254  0.87230738  1
  V  V67  1  0.49617836  0.73441891  0.24781176  1
  V  V68  1  0.00118890  0.49763351  0.50157353  1
  V  V69  1  0.62993858  0.49117869  0.62065009  1
  V  V70  1  0.12689140  0.87785874  0.25226811  1
  V  V71  1  0.87069516  0.12957484  0.25216991  1
  V  V72  1  0.49212180  0.00126866  -0.00343757  1
  V  V73  1  0.25806549  0.24897042  0.50462679  1
  V  V74  1  0.12666777  0.24422298  0.87497900  1
  V  V75  1  0.37566747  0.73520811  0.12550251  1
  V  V76  1  0.25210169  -0.00634651  0.76383192  1
  V  V77  1  0.49442581  0.87685335  0.87377596  1
  V  V78  1  0.75818165  0.37472362  0.64001293  1
  V  V79  1  -0.00149826  0.62087082  0.62919785  1
  V  V80  1  0.24406942  0.49632977  0.75540974  1
  V  V81  1  0.00140938  0.74773945  0.74975504  1
  V  V82  1  0.81642567  0.82225507  -0.04946775  1
  V  V83  1  0.49336432  0.13821097  0.12285425  1
  V  V84  1  0.12423979  0.12547292  0.49991791  1
  Zn  Zn85  1  0.37127685  0.75289084  0.62610097  1
  Zn  Zn86  1  0.74978851  0.37998940  0.12018727  1
  Zn  Zn87  1  0.25519657  0.11764628  0.87988630  1
  Zn  Zn88  1  0.12598996  -0.00291045  0.12286488  1
  Zn  Zn89  1  0.87484064  0.62570373  0.24817943  1
  Zn  Zn90  1  0.62478363  0.50357012  0.13103003  1
  Zn  Zn91  1  0.87843940  0.50355909  0.37488035  1
  Zn  Zn92  1  0.25029227  0.00160465  0.25084573  1
  Zn  Zn93  1  0.13221489  0.66419514  -0.00407507  1
  Zn  Zn94  1  -0.00040983  0.87663544  0.37641301  1
  Zn  Zn95  1  0.87226461  -0.00274517  0.87760526  1
  Zn  Zn96  1  0.52344593  0.35470115  0.38961700  1
  Zn  Zn97  1  0.62698993  0.74515728  0.88203641  1
  Zn  Zn98  1  0.38515267  0.37792622  0.50305649  1
  Zn  Zn99  1  0.49857718  0.25182144  0.25740642  1
  Zn  Zn100  1  0.61956115  0.87392337  0.24863765  1
  Zn  Zn101  1  0.00159913  0.25019809  0.24729583  1
  Zn  Zn102  1  0.12896276  0.11241148  -0.00310357  1
  Zn  Zn103  1  0.24862175  0.12449167  0.37364280  1
  Zn  Zn104  1  0.75180857  -0.00538703  0.75130466  1
  Zn  Zn105  1  0.38665595  0.36597026  -0.00138691  1
  Zn  Zn106  1  0.25743975  0.50603141  0.24552712  1
  Zn  Zn107  1  0.18670840  0.18757425  0.18661706  1
  Zn  Zn108  1  0.18727344  0.18154059  0.69032504  1
  Zn  Zn109  1  0.18867095  0.69102577  0.18598558  1
  Zn  Zn110  1  0.18594056  0.68324875  0.68931082  1
  Zn  Zn111  1  0.68953626  0.18727953  0.16746272  1
  Zn  Zn112  1  0.68714681  0.19036858  0.68695797  1
  Zn  Zn113  1  0.68250298  0.68475675  0.18490454  1
  Zn  Zn114  1  0.67454536  0.65621839  0.69878773  1
  Zn  Zn115  1  0.31274494  0.31594410  0.31532635  1
  Zn  Zn116  1  0.30755201  0.31266027  0.81712777  1
  Zn  Zn117  1  0.31462495  0.80918609  0.31340584  1
  Zn  Zn118  1  0.31409814  0.81437662  0.81136900  1
  Zn  Zn119  1  0.62326287  0.37280866  0.25307223  1
  Zn  Zn120  1  0.82213203  0.30859386  0.81643102  1
  Zn  Zn121  1  0.80900700  0.81617547  0.31234786  1
  Zn  Zn122  1  0.78943937  0.76300249  0.78225401  1
  Zn  Zn123  1  0.19143073  0.43532850  0.44176786  1
  Zn  Zn124  1  0.19011705  0.43515364  0.93752731  1
  Zn  Zn125  1  0.19042389  0.93791696  0.43673562  1
  Zn  Zn126  1  0.16682012  0.88281219  0.95732354  1
  Zn  Zn127  1  0.68959719  0.43707708  0.43974705  1
  Zn  Zn128  1  0.68595148  0.44445990  0.93330151  1
  Zn  Zn129  1  0.68344421  0.93510759  0.43839525  1
  Zn  Zn130  1  0.67601254  0.94205359  0.93264225  1
  Zn  Zn131  1  0.31252511  0.05889350  0.06497664  1
  Zn  Zn132  1  0.31437946  0.06366972  0.56205016  1
  Zn  Zn133  1  0.31275185  0.55834187  0.05501833  1
  Zn  Zn134  1  0.31294176  0.56164312  0.56059177  1
  Zn  Zn135  1  0.81248852  0.06174260  0.06071313  1
  Zn  Zn136  1  0.81000222  0.06003989  0.56846206  1
  Zn  Zn137  1  0.81715011  0.56559756  0.06059582  1
  Zn  Zn138  1  0.80909857  0.55540246  0.56061750  1
  Zn  Zn139  1  0.43873655  0.43474827  0.20071767  1
  Zn  Zn140  1  0.43897606  0.45856446  0.68136081  1
  Zn  Zn141  1  0.43703011  0.93855985  0.19192968  1
  Zn  Zn142  1  0.43817452  0.93861988  0.68632507  1
  Zn  Zn143  1  0.93744482  0.43947999  0.18627002  1
  Zn  Zn144  1  0.93224921  0.43844125  0.69436479  1
  Zn  Zn145  1  0.93405145  0.93915831  0.18929136  1
  Zn  Zn146  1  0.93689005  0.93667982  0.68759417  1
  Zn  Zn147  1  0.05828708  0.06350343  0.31248581  1
  Zn  Zn148  1  0.06444015  0.05700785  0.81404773  1
  Zn  Zn149  1  0.06687535  0.56329006  0.31094554  1
  Zn  Zn150  1  0.06337331  0.56598456  0.81380104  1
  Zn  Zn151  1  0.55367642  0.06432110  0.31213331  1
  Zn  Zn152  1  0.56346664  0.06202009  0.80983819  1
  Zn  Zn153  1  0.56984667  0.55956288  0.31703727  1
  Zn  Zn154  1  0.57292219  0.56230316  0.81084288  1
  Zn  Zn155  1  0.44240378  0.18693566  0.43865078  1
  Zn  Zn156  1  0.43591591  0.18756530  0.93102803  1
  Zn  Zn157  1  0.42942068  0.69152881  0.43183077  1
  Zn  Zn158  1  0.43860976  0.68212882  0.93773619  1
  Zn  Zn159  1  0.93599596  0.19043959  0.43559599  1
  Zn  Zn160  1  0.93941309  0.18541383  0.93726955  1
  Zn  Zn161  1  0.93718469  0.68633607  0.43852867  1
  Zn  Zn162  1  0.94375343  0.68471950  0.93518325  1
  Zn  Zn163  1  0.06926343  0.31206434  0.05884151  1
  Zn  Zn164  1  0.06403610  0.31063171  0.56424182  1
  Zn  Zn165  1  0.05667000  0.81689278  0.06776240  1
  Zn  Zn166  1  0.06189207  0.81344946  0.56323194  1
  Zn  Zn167  1  0.56775648  0.32257439  0.06188395  1
  Zn  Zn168  1  0.57263087  0.31306310  0.55933281  1
  Zn  Zn169  1  0.55979206  0.80794842  0.06401743  1
  Zn  Zn170  1  0.55712599  0.80897032  0.56095523  1
  O  O171  1  0.11276339  0.11960470  0.12474797  1
  O  O172  1  0.11460392  0.11538521  0.62113811  1
  O  O173  1  0.12444405  0.62182691  0.11813102  1
  O  O174  1  0.12168009  0.61160803  0.62005746  1
  O  O175  1  0.61645552  0.11635280  0.11405252  1
  O  O176  1  0.62085918  0.11578657  0.62226924  1
  O  O177  1  0.62535300  0.62071077  0.11018060  1
  O  O178  1  0.60874529  0.63908434  0.60826606  1
  O  O179  1  0.37281091  0.38782846  0.38064257  1
  O  O180  1  0.36920865  0.38943491  0.87688053  1
  O  O181  1  0.37953636  0.88097606  0.38046861  1
  O  O182  1  0.38617706  0.86881073  0.88509723  1
  O  O183  1  0.89340522  0.37644120  0.38345021  1
  O  O184  1  0.89163723  0.36797102  0.88816733  1
  O  O185  1  0.87319959  0.88169784  0.38658170  1
  O  O186  1  0.87451608  0.87286358  0.88213422  1
  O  O187  1  0.25858561  0.00315281  0.37125108  1
  O  O188  1  0.24474854  -0.00270618  0.86319518  1
  O  O189  1  0.24208292  0.51414969  0.37368927  1
  O  O190  1  0.25653566  0.50514445  0.86865122  1
  O  O191  1  0.75219227  -0.00617569  0.36265340  1
  O  O192  1  0.74868789  0.01117908  0.87277375  1
  O  O193  1  0.75552687  0.51037087  0.36615277  1
  O  O194  1  0.75184339  0.50552545  0.86440406  1
  O  O195  1  0.24434935  0.49371351  0.12435599  1
  O  O196  1  0.24410499  0.49287631  0.63283639  1
  O  O197  1  0.24893602  0.98541484  0.13048616  1
  O  O198  1  0.23731820  1.00285188  0.62706649  1
  O  O199  1  0.75775321  0.50244198  0.13882293  1
  O  O200  1  0.74798958  0.48352892  0.62608719  1
  O  O201  1  0.74220361  0.99610708  0.13283801  1
  O  O202  1  0.74009230  0.98868317  0.62932830  1
  O  O203  1  0.01084669  0.37616786  0.25618402  1
  O  O204  1  -0.00503164  0.36438108  0.75929720  1
  O  O205  1  0.00562575  0.86629378  0.25124134  1
  O  O206  1  0.00512969  0.86950360  0.75515915  1
  O  O207  1  0.50497706  0.36713482  0.25960346  1
  O  O208  1  0.48235035  0.36236192  0.73512569  1
  O  O209  1  0.49928779  0.86722224  0.26208968  1
  O  O210  1  0.50167526  0.86736104  0.75639796  1
  O  O211  1  0.49166219  0.12768390  0.23815707  1
  O  O212  1  0.49199728  0.11558450  0.73766804  1
  O  O213  1  0.50328787  0.63638227  0.25600438  1
  O  O214  1  0.49280420  0.63086559  0.74504236  1
  O  O215  1  0.99267916  0.12666083  0.23924807  1
  O  O216  1  0.99627024  0.12640122  0.74407005  1
  O  O217  1  1.00202982  0.63849233  0.24462854  1
  O  O218  1  1.00625347  0.63519520  0.74247117  1
  O  O219  1  0.36033575  0.25071481  -0.00868573  1
  O  O220  1  0.35988999  0.24666408  0.49702987  1
  O  O221  1  0.38700007  0.75562941  0.01662504  1
  O  O222  1  0.36492947  0.75876248  0.50029158  1
  O  O223  1  0.87158309  0.25581724  0.00454155  1
  O  O224  1  0.87214615  0.26079196  0.50005679  1
  O  O225  1  0.87450507  0.75488534  0.00523890  1
  O  O226  1  0.86940251  0.75811321  0.50396783  1
  O  O227  1  0.13048065  0.24537917  0.49276835  1
  O  O228  1  0.13511658  0.24476793  0.99106831  1
  O  O229  1  0.13026386  0.74647201  0.49578334  1
  O  O230  1  0.12922667  0.77679180  0.99445228  1
  O  O231  1  0.63815449  0.23390874  0.50541197  1
  O  O232  1  0.63533641  0.24705804  0.99423630  1
  O  O233  1  0.63385029  0.75705437  0.48981305  1
  O  O234  1  0.61828597  0.73443978  1.00083720  1
  O  O235  1  0.50662575  0.23957935  0.12276740  1
  O  O236  1  0.50114163  0.24103785  0.62849999  1
  O  O237  1  0.48970637  0.75235805  0.13974283  1
  O  O238  1  0.49399578  0.74146706  0.63465762  1
  O  O239  1  0.99650787  0.24136586  0.12034769  1
  O  O240  1  1.00789923  0.23929562  0.63513105  1
  O  O241  1  0.99122963  0.74911875  0.13348356  1
  O  O242  1  0.99383851  0.74128392  0.62551711  1
  O  O243  1  0.01147384  0.25839547  0.37384056  1
  O  O244  1  0.01041733  0.25383249  0.87158873  1
  O  O245  1  0.00518019  0.75210514  0.36847562  1
  O  O246  1  -0.00699046  0.75988702  0.86299666  1
  O  O247  1  0.51156254  0.23942800  0.37123249  1
  O  O248  1  0.51494556  0.25009875  0.87967354  1
  O  O249  1  0.50354936  0.75267006  0.36553292  1
  O  O250  1  0.49630809  0.75428792  0.86353734  1
  O  O251  1  0.24070708  0.13200526  0.50008570  1
  O  O252  1  0.24817046  0.12844915  1.00014605  1
  O  O253  1  0.24355650  0.63111693  0.49222006  1
  O  O254  1  0.24831989  0.62290152  0.98487136  1
  O  O255  1  0.74716341  0.13569852  0.51060842  1
  O  O256  1  0.74562676  0.13280628  0.99184178  1
  O  O257  1  0.75760732  0.63666959  0.49075049  1
  O  O258  1  0.73774889  0.62064404  1.00004261  1
  O  O259  1  0.25232407  0.36675920  0.00871064  1
  O  O260  1  0.25249631  0.36770101  0.51486724  1
  O  O261  1  0.26803919  0.87862041  0.01025689  1
  O  O262  1  0.25828071  0.86451220  0.49468274  1
  O  O263  1  0.76148033  0.37170992  -0.00363882  1
  O  O264  1  0.76074994  0.36692152  0.50843088  1
  O  O265  1  0.75361655  0.88520100  0.00563362  1
  O  O266  1  0.75535623  0.86473364  0.50373115  1
  O  O267  1  0.12758124  0.49529310  0.23668614  1
  O  O268  1  0.13643700  0.50321086  0.74480059  1
  O  O269  1  0.12272327  0.98690213  0.25139889  1
  O  O270  1  0.13208536  0.99267185  0.74160941  1
  O  O271  1  0.64406807  0.50534791  0.24935591  1
  O  O272  1  0.63741955  0.53681923  0.71912932  1
  O  O273  1  0.62820290  1.00146104  0.24069628  1
  O  O274  1  0.62822220  0.98851346  0.74248650  1
  O  O275  1  0.37514678  0.00919236  0.26110814  1
  O  O276  1  0.36318662  0.00199417  0.74460169  1
  O  O277  1  0.37049393  0.49945876  0.27034202  1
  O  O278  1  0.36547025  0.50557769  0.75748546  1
  O  O279  1  0.86236925  0.00874741  0.25293761  1
  O  O280  1  0.87303003  0.00983049  0.75328057  1
  O  O281  1  0.86980388  0.50551678  0.25328585  1
  O  O282  1  0.87324669  0.51548249  0.75088611  1
  O  O283  1  0.12029554  0.37102014  0.36915088  1
  O  O284  1  0.11623058  0.36385037  0.87889963  1
  O  O285  1  0.12371262  0.86788075  0.36935382  1
  O  O286  1  0.11294074  0.87764901  0.85672713  1
  O  O287  1  0.63376528  0.37680873  0.36783427  1
  O  O288  1  0.62959663  0.36399513  0.87539912  1
  O  O289  1  0.61639785  0.86517449  0.37339962  1
  O  O290  1  0.61167615  0.86813335  0.87095361  1
  O  O291  1  0.38351560  0.11925701  0.13435521  1
  O  O292  1  0.38490190  0.11998404  0.63310872  1
  O  O293  1  0.36561804  0.63683075  0.12251879  1
  O  O294  1  0.38245456  0.61918018  0.63705924  1
  O  O295  1  0.88251387  0.13125110  0.12764864  1
  O  O296  1  0.88798464  0.11922482  0.63282564  1
  O  O297  1  0.88235134  0.64116699  0.12403958  1
  O  O298  1  0.87883908  0.63381940  0.61424612  1
  O  O299  1  0.24174567  0.25956254  0.11528370  1
  O  O300  1  0.23864350  0.25718033  0.61879148  1
  O  O301  1  0.26546162  0.76037096  0.13318946  1
  O  O302  1  0.25099540  0.74134677  0.61198393  1
  O  O303  1  0.76115861  0.25285311  0.10780486  1
  O  O304  1  0.74740104  0.26375003  0.61848997  1
  O  O305  1  0.75390850  0.76571478  0.13145717  1
  O  O306  1  0.75693012  0.75084514  0.61607817  1
  O  O307  1  0.23851486  0.25189906  0.38385674  1
  O  O308  1  0.23943773  0.24559148  0.87991270  1
  O  O309  1  0.24737315  0.73881542  0.38312754  1
  O  O310  1  0.25746091  0.73297484  0.86951311  1
  O  O311  1  0.75362964  0.24635801  0.39117302  1
  O  O312  1  0.74860110  0.24235244  0.88232837  1
  O  O313  1  0.74151297  0.74728464  0.37938411  1
  O  O314  1  0.75291763  0.76857002  0.89239816  1
  O  O315  1  0.00345203  0.11607253  0.00696172  1
  O  O316  1  0.00359393  0.12183354  0.50752936  1
  O  O317  1  0.01228103  0.62068445  0.00294148  1
  O  O318  1  0.00627684  0.61803237  0.50692056  1
  O  O319  1  0.49901951  0.11814212  0.00418409  1
  O  O320  1  0.51084388  0.12618660  0.51487491  1
  O  O321  1  0.50112741  0.60552267  -0.00442855  1
  O  O322  1  0.48757944  0.63288492  0.51117156  1
  O  O323  1  0.49768051  0.36839085  0.50092671  1
  O  O324  1  0.49970021  0.39495785  1.00222796  1
  O  O325  1  0.48909315  0.86513568  0.48491072  1
  O  O326  1  0.49392771  0.88036808  0.99475795  1
  O  O327  1  0.99742261  0.37816989  0.49586151  1
  O  O328  1  0.99882546  0.38267025  0.99368182  1
  O  O329  1  0.98976253  0.88076441  0.49966115  1
  O  O330  1  0.99525910  0.87968948  0.98862220  1
  O  O331  1  0.49119562  0.50311570  0.37788774  1
  O  O332  1  0.48729507  0.50009671  0.86301505  1
  O  O333  1  0.49085502  0.98984759  0.37353026  1
  O  O334  1  0.50615401  0.99017885  0.88458224  1
  O  O335  1  1.00407855  0.49419540  0.38166082  1
  O  O336  1  1.01147067  0.49118824  0.88379277  1
  O  O337  1  0.99112367  0.99810650  0.38339571  1
  O  O338  1  0.99561610  0.98675239  0.87922145  1
  O  O339  1  -0.00186771  0.00537478  0.11906881  1
  O  O340  1  0.00688263  0.00593658  0.61938550  1
  O  O341  1  0.00818317  0.50963929  0.11951954  1
  O  O342  1  0.00724928  0.50133693  0.62436187  1
  O  O343  1  0.50768854  0.00390027  0.11924819  1
  O  O344  1  0.51345581  0.00358177  0.62496609  1
  O  O345  1  0.49662890  0.50226560  0.12134215  1
  O  O346  1  0.51524336  0.51525343  0.62216314  1
  O  O347  1  0.23976805  0.37670022  0.24365201  1
  O  O348  1  0.25318755  0.38170240  0.73957256  1
  O  O349  1  0.24327520  0.87418205  0.24666600  1
  O  O350  1  0.24126865  0.87942916  0.75051970  1
  O  O351  1  0.75924870  0.39080158  0.24850239  1
  O  O352  1  0.76364115  0.36704033  0.73847759  1
  O  O353  1  0.74426274  0.88638259  0.24207359  1
  O  O354  1  0.74077578  0.86479668  0.74127718  1
  O  O355  1  0.25601589  0.12216799  0.25083021  1
  O  O356  1  0.25753503  0.11159312  0.74948264  1
  O  O357  1  0.24241843  0.62700205  0.26669233  1
  O  O358  1  0.25637417  0.61670246  0.75592772  1
  O  O359  1  0.74609826  0.12746095  0.25909962  1
  O  O360  1  0.75931663  0.12577952  0.75550429  1
  O  O361  1  0.75376888  0.62522647  0.25807355  1
  O  O362  1  0.76456747  0.64979075  0.76455285  1
  O  O363  1  0.37363779  0.11658337  0.37006327  1
  O  O364  1  0.37428036  0.12474807  0.85745826  1
  O  O365  1  0.36041016  0.61539839  0.37865137  1
  O  O366  1  0.36842929  0.61493531  0.86524882  1
  O  O367  1  0.87999815  0.11921928  0.36513962  1
  O  O368  1  0.86625756  0.12338947  0.86890224  1
  O  O369  1  0.86512006  0.62680062  0.37236468  1
  O  O370  1  0.87439917  0.61559885  0.88162764  1
  O  O371  1  0.12967384  0.38282078  0.13248614  1
  O  O372  1  0.13096351  0.38552612  0.62462396  1
  O  O373  1  0.13497459  0.87418681  0.13720897  1
  O  O374  1  0.11790705  0.88431625  0.63497883  1
  O  O375  1  0.63371876  0.38274647  0.13313860  1
  O  O376  1  0.63697301  0.38505521  0.63019760  1
  O  O377  1  0.63030752  0.88406931  0.12357482  1
  O  O378  1  0.62513717  0.87888344  0.62688079  1
  O  O379  1  0.12339888  0.25900672  0.25777044  1
  O  O380  1  0.11408762  0.24242442  0.75945628  1
  O  O381  1  0.11826658  0.75957221  0.25473286  1
  O  O382  1  0.11295497  0.75765687  0.73903901  1
  O  O383  1  0.63690885  0.24365809  0.25286049  1
  O  O384  1  0.62752686  0.24741585  0.76462699  1
  O  O385  1  0.61264487  0.75216190  0.25496534  1
  O  O386  1  0.61578212  0.75042278  0.75434297  1
  O  O387  1  0.37212411  0.23669981  0.25625330  1
  O  O388  1  0.37091538  0.24178013  0.74612648  1
  O  O389  1  0.38643209  0.74919921  0.24192057  1
  O  O390  1  0.37993029  0.74171608  0.74593074  1
  O  O391  1  0.87906254  0.24630964  0.23022637  1
  O  O392  1  0.89129274  0.23443649  0.75649305  1
  O  O393  1  0.88207828  0.75271676  0.24424408  1
  O  O394  1  0.89105234  0.75939949  0.73048966  1
  O  O395  1  0.36543774  0.49775913  0.48263545  1
  O  O396  1  0.38682942  0.49883367  0.98771189  1
  O  O397  1  0.36857229  0.99286948  0.48786469  1
  O  O398  1  0.38725727  0.99059619  1.00541002  1
  O  O399  1  0.88258581  0.48738378  0.49776421  1
  O  O400  1  0.89296272  0.49343208  1.00705025  1
  O  O401  1  0.87632147  0.99350173  0.49767980  1
  O  O402  1  0.88795958  1.00437052  0.99720443  1
  O  O403  1  0.11046629  -0.00989360  0.00306413  1
  O  O404  1  0.11970341  0.00394547  0.50519156  1
  O  O405  1  0.11820590  0.49341196  0.01170671  1
  O  O406  1  0.12051105  0.50211103  0.50975767  1
  O  O407  1  0.61416553  0.00743131  0.00648216  1
  O  O408  1  0.63496149  0.01201779  0.50934120  1
  O  O409  1  0.61434899  0.50675346  0.00337181  1
  O  O410  1  0.64118470  0.50660159  0.52166340  1
  O  O411  1  0.36338302  0.38001031  0.12560157  1
  O  O412  1  0.37085836  0.36735690  0.62700479  1
  O  O413  1  0.37165460  0.86880258  0.12163759  1
  O  O414  1  0.38116353  0.87500953  0.60888720  1
  O  O415  1  0.87924587  0.36781330  0.11190751  1
  O  O416  1  0.86721162  0.37688936  0.61918229  1
  O  O417  1  0.86674533  0.86593811  0.12790052  1
  O  O418  1  0.87021255  0.86899976  0.61342921  1
  O  O419  1  0.12358954  0.13458754  0.37956150  1
  O  O420  1  0.12724130  0.13060077  0.87733944  1
  O  O421  1  0.13128687  0.63139548  0.38224771  1
  O  O422  1  0.14094241  0.62522848  0.87631597  1
  O  O423  1  0.62969653  0.11767275  0.38361300  1
  O  O424  1  0.63313449  0.12958748  0.87818402  1
  O  O425  1  0.63558843  0.63790602  0.37462350  1
  O  O426  1  0.62019795  0.62714861  0.89200063  1
