# generated using pymatgen
data_V85Zn86O256
_symmetry_space_group_name_H-M   'P 1'
_cell_length_a   16.97888376
_cell_length_b   16.97679558
_cell_length_c   16.94370428
_cell_angle_alpha   89.98370618
_cell_angle_beta   89.98934283
_cell_angle_gamma   89.97617688
_symmetry_Int_Tables_number   1
_chemical_formula_structural   V85Zn86O256
_chemical_formula_sum   'V85 Zn86 O256'
_cell_volume   4883.97187946
_cell_formula_units_Z   1
loop_
 _symmetry_equiv_pos_site_id
 _symmetry_equiv_pos_as_xyz
  1  'x, y, z'
loop_
 _atom_site_type_symbol
 _atom_site_label
 _atom_site_symmetry_multiplicity
 _atom_site_fract_x
 _atom_site_fract_y
 _atom_site_fract_z
 _atom_site_occupancy
  V  V0  1  0.50229558  0.00658111  0.51982464  1
  V  V1  1  0.50071049  0.24603083  0.74520306  1
  V  V2  1  0.24698291  0.12080096  0.37184386  1
  V  V3  1  0.49670461  0.62933180  0.14022227  1
  V  V4  1  0.25250144  0.62720975  0.36699857  1
  V  V5  1  0.87456407  0.62566244  0.74960550  1
  V  V6  1  0.87561097  0.75209735  0.12475009  1
  V  V7  1  0.25030188  0.25131086  0.50056045  1
  V  V8  1  0.37269303  0.61995413  0.74593784  1
  V  V9  1  0.62045222  0.49769643  0.61895589  1
  V  V10  1  0.01202002  -0.00121072  0.00883457  1
  V  V11  1  0.63022055  0.37418857  0.74469575  1
  V  V12  1  0.12495649  0.25147500  0.37607312  1
  V  V13  1  0.75023752  0.12355688  0.36069464  1
  V  V14  1  0.87320335  0.37334885  0.00213659  1
  V  V15  1  0.62525453  0.74788020  0.87459516  1
  V  V16  1  0.00073896  0.62683435  0.62411829  1
  V  V17  1  0.00780923  0.24920912  0.75318528  1
  V  V18  1  0.13002500  0.50172928  0.62690160  1
  V  V19  1  0.75142760  0.37226857  0.12620779  1
  V  V20  1  0.37188323  0.00088100  0.87660211  1
  V  V21  1  0.00167956  0.50082956  0.00034887  1
  V  V22  1  0.49891496  0.37508786  0.38081914  1
  V  V23  1  0.37202945  0.75508267  0.62344630  1
  V  V24  1  0.74858089  0.12231490  0.87372899  1
  V  V25  1  0.38194750  0.00322898  0.37938571  1
  V  V26  1  0.00771996  0.74850058  0.75577094  1
  V  V27  1  0.24906255  0.37828829  0.62716976  1
  V  V28  1  0.36530617  0.50034512  0.87043840  1
  V  V29  1  0.74297965  0.87920524  0.62545415  1
  V  V30  1  0.62712801  0.88197767  0.75339600  1
  V  V31  1  0.64322004  0.62596432  0.49267404  1
  V  V32  1  0.37503598  0.24977540  0.62547362  1
  V  V33  1  0.12601950  0.37631316  0.24462936  1
  V  V34  1  0.24732408  0.76015558  0.49932846  1
  V  V35  1  0.25303704  0.89124399  0.13017914  1
  V  V36  1  0.75092930  0.49693060  0.74316370  1
  V  V37  1  0.49826220  0.87514728  0.87361100  1
  V  V38  1  -0.00369513  0.37790683  0.37800328  1
  V  V39  1  0.87063842  0.75383983  0.62425684  1
  V  V40  1  0.11637942  0.75129292  0.36258923  1
  V  V41  1  0.49872471  0.37612609  0.87271944  1
  V  V42  1  0.62454734  0.62376744  -0.00119036  1
  V  V43  1  0.12386546  0.62719525  0.49753196  1
  V  V44  1  -0.00097722  0.00089965  0.49101853  1
  V  V45  1  0.11916598  0.89022689  0.24203822  1
  V  V46  1  0.49710042  0.24628267  0.25121434  1
  V  V47  1  0.12636070  -0.01068597  0.62381158  1
  V  V48  1  0.75139307  0.49990222  0.25905438  1
  V  V49  1  0.37594720  0.37795279  0.50019429  1
  V  V50  1  0.37681491  0.12402154  0.74590278  1
  V  V51  1  0.87965852  0.12315136  0.76132088  1
  V  V52  1  0.50035951  0.74852881  0.74607735  1
  V  V53  1  0.37688774  0.50245072  0.37465195  1
  V  V54  1  0.62316575  0.12340201  -0.00211646  1
  V  V55  1  -0.00661624  0.23758515  0.24916457  1
  V  V56  1  0.75326017  -0.01752447  0.22810468  1
  V  V57  1  0.50116325  0.12178477  0.12387195  1
  V  V58  1  0.75339705  0.74577751  0.00253724  1
  V  V59  1  0.62370391  0.49678486  0.12406557  1
  V  V60  1  0.87521576  0.49947959  0.87261817  1
  V  V61  1  0.13048959  0.37803670  0.75490694  1
  V  V62  1  0.25289644  0.49825749  0.24328997  1
  V  V63  1  0.49716064  -0.00040765  -0.00130605  1
  V  V64  1  -0.00143047  0.12469924  0.62551141  1
  V  V65  1  0.37254593  0.11348432  0.24833443  1
  V  V66  1  0.36792896  0.25590571  0.11892526  1
  V  V67  1  0.87478501  0.87952354  0.49862298  1
  V  V68  1  0.23915861  0.13218923  0.87937272  1
  V  V69  1  0.75279733  0.25264748  0.50576234  1
  V  V70  1  0.49767283  0.62338525  0.60843759  1
  V  V71  1  0.00408164  0.36355487  0.87889457  1
  V  V72  1  0.37748507  0.87724264  0.49761079  1
  V  V73  1  0.87246205  0.62676537  0.25293613  1
  V  V74  1  0.49828030  0.50171464  -0.00195450  1
  V  V75  1  0.87197784  0.88018627  -0.00826128  1
  V  V76  1  0.00136405  0.62700640  0.12967957  1
  V  V77  1  0.62543603  0.12327599  0.51681216  1
  V  V78  1  0.12561464  0.12609669  0.50116525  1
  V  V79  1  0.24851922  -0.00541798  0.74674097  1
  V  V80  1  0.75838792  -0.00150323  0.75337096  1
  V  V81  1  0.12502572  0.63413099  -0.00427175  1
  V  V82  1  0.24762330  0.63534916  0.87221813  1
  V  V83  1  0.01065290  0.87733791  0.87410945  1
  V  V84  1  0.62362022  0.37195255  0.25137621  1
  Zn  Zn85  1  0.86664797  0.22826629  0.14467861  1
  Zn  Zn86  1  -0.00200087  0.50203307  0.49932729  1
  Zn  Zn87  1  0.37203168  0.74472650  0.13694254  1
  Zn  Zn88  1  0.86896096  0.38235681  0.50658551  1
  Zn  Zn89  1  0.74885660  0.62228553  0.87236965  1
  Zn  Zn90  1  0.13304272  0.49911143  0.12098591  1
  Zn  Zn91  1  0.71623011  0.78637982  0.45351184  1
  Zn  Zn92  1  0.62511314  0.25089605  0.87372892  1
  Zn  Zn93  1  0.87666490  0.00593553  0.35963228  1
  Zn  Zn94  1  0.56213302  0.82310438  0.31226343  1
  Zn  Zn95  1  -0.00433206  0.87318136  0.36643019  1
  Zn  Zn96  1  0.87101731  0.25654025  0.63100610  1
  Zn  Zn97  1  0.59237305  -0.04818426  0.16429517  1
  Zn  Zn98  1  0.11895697  0.13337809  0.01680881  1
  Zn  Zn99  1  0.36951292  0.37959229  0.00530046  1
  Zn  Zn100  1  0.87356518  0.50371066  0.37898562  1
  Zn  Zn101  1  0.25221145  0.75269382  0.00653977  1
  Zn  Zn102  1  0.13402766  0.86638871  0.74905667  1
  Zn  Zn103  1  0.22816711  0.26821213  -0.00302916  1
  Zn  Zn104  1  0.62144356  0.24084097  0.37735065  1
  Zn  Zn105  1  0.37357209  0.86899445  0.00424438  1
  Zn  Zn106  1  0.74787397  0.24746904  0.00031147  1
  Zn  Zn107  1  0.18959250  0.19245299  0.19003819  1
  Zn  Zn108  1  0.18753613  0.18509659  0.68944105  1
  Zn  Zn109  1  0.18924404  0.68964867  0.18359868  1
  Zn  Zn110  1  0.19129944  0.68590589  0.68563835  1
  Zn  Zn111  1  0.68151752  0.18552814  0.18497729  1
  Zn  Zn112  1  0.68991040  0.18747320  0.68929252  1
  Zn  Zn113  1  0.69431760  0.68827011  0.30588841  1
  Zn  Zn114  1  0.68601842  0.68810803  0.68286045  1
  Zn  Zn115  1  0.31223918  0.31170840  0.30976371  1
  Zn  Zn116  1  0.31207194  0.31248953  0.81477673  1
  Zn  Zn117  1  0.30883286  0.81331380  0.30976923  1
  Zn  Zn118  1  0.31414879  0.81245309  0.81222679  1
  Zn  Zn119  1  0.81140532  0.31088524  0.32093384  1
  Zn  Zn120  1  0.81561733  0.30879764  0.81473558  1
  Zn  Zn121  1  0.81589983  0.81751338  0.30785448  1
  Zn  Zn122  1  0.81506876  0.81004143  0.81688693  1
  Zn  Zn123  1  0.18634458  0.43954727  0.43583024  1
  Zn  Zn124  1  0.18736131  0.44238181  0.93834608  1
  Zn  Zn125  1  0.18591135  0.93827679  0.43122083  1
  Zn  Zn126  1  0.19022745  0.93405566  0.93821597  1
  Zn  Zn127  1  0.68250273  0.43480112  0.43898822  1
  Zn  Zn128  1  0.68741753  0.43689424  0.93334353  1
  Zn  Zn129  1  0.68681077  0.95365972  0.43380046  1
  Zn  Zn130  1  0.65984892  0.90884932  0.98803067  1
  Zn  Zn131  1  0.30701857  0.06435947  0.06309606  1
  Zn  Zn132  1  0.30958274  0.06336828  0.56478918  1
  Zn  Zn133  1  0.31606001  0.56694119  0.06031814  1
  Zn  Zn134  1  0.30895285  0.56449555  0.55547793  1
  Zn  Zn135  1  0.81323881  0.05789899  0.06086779  1
  Zn  Zn136  1  0.81223406  0.06438080  0.56787562  1
  Zn  Zn137  1  0.81147955  0.56061698  0.06655526  1
  Zn  Zn138  1  0.81463922  0.55778799  0.56729062  1
  Zn  Zn139  1  0.43793386  0.43836313  0.19095277  1
  Zn  Zn140  1  0.44047317  0.43789353  0.68633813  1
  Zn  Zn141  1  0.42704386  0.89716995  0.21733942  1
  Zn  Zn142  1  0.43537815  0.93422919  0.68548850  1
  Zn  Zn143  1  0.93837040  0.43568876  0.18884640  1
  Zn  Zn144  1  0.94189020  0.43577937  0.68371930  1
  Zn  Zn145  1  0.93235642  0.93177357  0.18387002  1
  Zn  Zn146  1  0.93900991  0.93809571  0.68919912  1
  Zn  Zn147  1  0.06086101  0.06239988  0.18934832  1
  Zn  Zn148  1  0.06219138  0.05580052  0.81464962  1
  Zn  Zn149  1  0.06304370  0.56132862  0.31117073  1
  Zn  Zn150  1  0.06422346  0.55966441  0.81316328  1
  Zn  Zn151  1  0.56383254  0.03910716  0.31100120  1
  Zn  Zn152  1  0.56314208  0.06227449  0.81099496  1
  Zn  Zn153  1  0.56356551  0.55740429  0.31709273  1
  Zn  Zn154  1  0.55905920  0.56203707  0.80871865  1
  Zn  Zn155  1  0.43931610  0.18501138  0.43986362  1
  Zn  Zn156  1  0.43429956  0.18745100  0.93326674  1
  Zn  Zn157  1  0.43689770  0.68859859  0.42516218  1
  Zn  Zn158  1  0.43474267  0.69035501  0.94113356  1
  Zn  Zn159  1  0.93438899  0.18652146  0.43326785  1
  Zn  Zn160  1  0.91916156  0.16814081  0.96921706  1
  Zn  Zn161  1  0.92926589  0.69174318  0.43771633  1
  Zn  Zn162  1  0.94021507  0.68780900  0.93474632  1
  Zn  Zn163  1  0.05979554  0.30736720  0.06855600  1
  Zn  Zn164  1  0.05947856  0.31307214  0.56488632  1
  Zn  Zn165  1  0.06249599  0.81233114  0.06585610  1
  Zn  Zn166  1  0.05821663  0.81086424  0.55976680  1
  Zn  Zn167  1  0.55939415  0.30911941  0.06075014  1
  Zn  Zn168  1  0.56393256  0.30923521  0.56322047  1
  Zn  Zn169  1  0.61812303  0.77812371  0.14177298  1
  Zn  Zn170  1  0.55668459  0.81092413  0.47841095  1
  O  O171  1  0.12915896  0.12469534  0.12903985  1
  O  O172  1  0.11816094  0.11756375  0.62006912  1
  O  O173  1  0.11698274  0.62162231  0.11741918  1
  O  O174  1  0.12302109  0.61906116  0.61924928  1
  O  O175  1  0.61309315  0.13096840  0.11137291  1
  O  O176  1  0.62666437  0.12418137  0.61576526  1
  O  O177  1  0.61319180  0.61123622  0.10791892  1
  O  O178  1  0.61708251  0.61644854  0.61841301  1
  O  O179  1  0.38045353  0.37806879  0.38065172  1
  O  O180  1  0.38619557  0.38428660  0.86810689  1
  O  O181  1  0.36261499  0.89054874  0.39079679  1
  O  O182  1  0.37967422  0.88535755  0.87514999  1
  O  O183  1  0.88363844  0.37806157  0.38176883  1
  O  O184  1  0.88370247  0.38419715  0.87664778  1
  O  O185  1  0.87819155  0.88377989  0.38408390  1
  O  O186  1  0.89058162  0.86502906  0.88701710  1
  O  O187  1  0.26015687  0.01617024  0.38709938  1
  O  O188  1  0.25621509  0.00670799  0.86914298  1
  O  O189  1  0.25447842  0.50927197  0.36821579  1
  O  O190  1  0.26308821  0.51103703  0.87438896  1
  O  O191  1  0.75266253  0.01191605  0.36153164  1
  O  O192  1  0.74806957  0.01500354  0.85989165  1
  O  O193  1  0.75036686  0.49080890  0.36228533  1
  O  O194  1  0.75610801  0.49961268  0.86160234  1
  O  O195  1  0.25414019  0.50741084  0.13947386  1
  O  O196  1  0.23806835  0.49583195  0.61958114  1
  O  O197  1  0.24439402  0.99042040  0.12436763  1
  O  O198  1  0.23856280  1.00550927  0.63393076  1
  O  O199  1  0.74349586  0.48794135  0.13238366  1
  O  O200  1  0.74004564  0.50107957  0.63713918  1
  O  O201  1  0.75369361  0.99078941  0.12648886  1
  O  O202  1  0.75483776  0.99199371  0.64066652  1
  O  O203  1  0.00672962  0.37350845  0.26301385  1
  O  O204  1  0.01000941  0.36772941  0.75677429  1
  O  O205  1  0.01244544  0.87593761  0.24898464  1
  O  O206  1  0.00106778  0.86787621  0.76105407  1
  O  O207  1  0.50207684  0.36494890  0.25909378  1
  O  O208  1  0.50961128  0.37006376  0.75505363  1
  O  O209  1  0.52858622  0.92230316  0.25784459  1
  O  O210  1  0.50860518  0.87053131  0.75264868  1
  O  O211  1  0.49372985  0.12766370  0.24226767  1
  O  O212  1  0.49072465  0.13479335  0.75539929  1
  O  O213  1  0.50493278  0.61578741  0.23848649  1
  O  O214  1  0.48984780  0.63077245  0.74220715  1
  O  O215  1  1.00115880  0.13901306  0.25546382  1
  O  O216  1  0.99764491  0.12975322  0.74861003  1
  O  O217  1  0.99546078  0.61691384  0.23400650  1
  O  O218  1  0.99557262  0.63086565  0.74566744  1
  O  O219  1  0.37964462  0.25015091  0.01411457  1
  O  O220  1  0.37084770  0.25582869  0.50654867  1
  O  O221  1  0.37277228  0.75245571  0.01051074  1
  O  O222  1  0.36747581  0.76066379  0.50363222  1
  O  O223  1  0.86890541  0.27148555  -0.01431666  1
  O  O224  1  0.85914930  0.24602331  0.50127888  1
  O  O225  1  0.87054727  0.75170005  0.00229414  1
  O  O226  1  0.88036554  0.76700075  0.51047928  1
  O  O227  1  0.13002277  0.24589236  0.49680092  1
  O  O228  1  0.11842102  0.24634057  0.99941131  1
  O  O229  1  0.13173635  0.74773743  0.49248381  1
  O  O230  1  0.12498966  0.73656179  1.00170576  1
  O  O231  1  0.63092688  0.23735998  0.50032810  1
  O  O232  1  0.62347917  0.23887407  0.99429539  1
  O  O233  1  0.63174785  0.72919348  0.51447655  1
  O  O234  1  0.63511520  0.73610300  0.99221780  1
  O  O235  1  0.49184992  0.23958284  0.13068155  1
  O  O236  1  0.49177324  0.25617872  0.63797446  1
  O  O237  1  0.50805284  0.72791017  0.12115648  1
  O  O238  1  0.48447624  0.73829686  0.62968635  1
  O  O239  1  0.99218892  0.25918706  0.14733470  1
  O  O240  1  1.00340092  0.23651375  0.63337925  1
  O  O241  1  0.98938173  0.73640457  0.11463879  1
  O  O242  1  0.98989857  0.74645675  0.63203786  1
  O  O243  1  0.00535642  0.25564984  0.36946365  1
  O  O244  1  -0.00295485  0.26211474  0.86938032  1
  O  O245  1  0.01466901  0.75287305  0.38033138  1
  O  O246  1  0.00071063  0.75796604  0.86536691  1
  O  O247  1  0.49860121  0.25353397  0.36612908  1
  O  O248  1  0.49763612  0.25961300  0.86357907  1
  O  O249  1  0.49523398  0.77259552  0.39104189  1
  O  O250  1  0.50385864  0.75425358  0.86719842  1
  O  O251  1  0.24581523  0.13365971  0.49588136  1
  O  O252  1  0.24549408  0.12409675  0.98536683  1
  O  O253  1  0.24277906  0.63545235  0.48697227  1
  O  O254  1  0.24186655  0.62465464  0.99118150  1
  O  O255  1  0.73769951  0.12701690  0.49955489  1
  O  O256  1  0.73798556  0.12234538  0.98939789  1
  O  O257  1  0.74132316  0.62184865  0.50381058  1
  O  O258  1  0.74218601  0.62542351  0.99707358  1
  O  O259  1  0.25871680  0.37579614  -0.01074585  1
  O  O260  1  0.25449014  0.36976557  0.50574439  1
  O  O261  1  0.24913099  0.87392947  0.01448660  1
  O  O262  1  0.25196870  0.86476863  0.49737025  1
  O  O263  1  0.75460774  0.37685556  0.00794575  1
  O  O264  1  0.74598658  0.35551199  0.49464010  1
  O  O265  1  0.76687642  0.86344417  -0.01455161  1
  O  O266  1  0.75879892  0.88329345  0.51069975  1
  O  O267  1  0.13483567  0.49320377  0.24938369  1
  O  O268  1  0.12188221  0.49058852  0.73951418  1
  O  O269  1  0.12127869  0.98770781  0.25643664  1
  O  O270  1  0.13223283  0.99683278  0.74095384  1
  O  O271  1  0.63182895  0.49129630  0.24480698  1
  O  O272  1  0.63093033  0.49373357  0.74283111  1
  O  O273  1  0.65167484  1.01997911  0.23832293  1
  O  O274  1  0.63160481  0.98629338  0.75500060  1
  O  O275  1  0.37692496  0.00972806  0.26203112  1
  O  O276  1  0.36943566  0.00603967  0.75483466  1
  O  O277  1  0.36598408  0.49114479  0.26427509  1
  O  O278  1  0.38130298  0.50978958  0.75646436  1
  O  O279  1  0.86055593  -0.00147621  0.24394922  1
  O  O280  1  0.87147320  0.00993332  0.75023568  1
  O  O281  1  0.86664941  0.50615489  0.24894117  1
  O  O282  1  0.86877596  0.50337524  0.75138494  1
  O  O283  1  0.11961285  0.36871967  0.36900232  1
  O  O284  1  0.11479938  0.38650434  0.86556301  1
  O  O285  1  0.12496823  0.86556230  0.36353618  1
  O  O286  1  0.11490997  0.87263963  0.87133608  1
  O  O287  1  0.61460075  0.36983883  0.36963175  1
  O  O288  1  0.61300992  0.37503989  0.86629662  1
  O  O289  1  0.63523431  0.85924616  0.40453830  1
  O  O290  1  0.61728110  0.86696252  0.87448132  1
  O  O291  1  0.37816772  0.13155600  0.13221127  1
  O  O292  1  0.36764936  0.13219731  0.63918445  1
  O  O293  1  0.39202321  0.62398761  0.12511119  1
  O  O294  1  0.37938274  0.62621983  0.62748098  1
  O  O295  1  0.88042043  0.14285853  0.07598170  1
  O  O296  1  0.88500893  0.12807872  0.63775532  1
  O  O297  1  0.88167198  0.62889484  0.13032862  1
  O  O298  1  0.87960208  0.63389885  0.63043617  1
  O  O299  1  0.26598426  0.25021537  0.12253363  1
  O  O300  1  0.25502867  0.25709742  0.62168082  1
  O  O301  1  0.25337940  0.76116768  0.12598892  1
  O  O302  1  0.26228609  0.74162742  0.61295054  1
  O  O303  1  0.75100739  0.26064580  0.12365061  1
  O  O304  1  0.75139705  0.24428903  0.61071580  1
  O  O305  1  0.75802305  0.74651384  0.10551632  1
  O  O306  1  0.76445190  0.75907536  0.63374808  1
  O  O307  1  0.24611501  0.24456778  0.38140667  1
  O  O308  1  0.25574131  0.23454923  0.87626288  1
  O  O309  1  0.24221670  0.74545629  0.37894824  1
  O  O310  1  0.25554032  0.73845671  0.87856149  1
  O  O311  1  0.74478577  0.23857669  0.38672961  1
  O  O312  1  0.74615814  0.23749230  0.87373654  1
  O  O313  1  0.77317833  0.73649454  0.37297693  1
  O  O314  1  0.74420736  0.74296046  0.88094517  1
  O  O315  1  0.00941192  0.09891847  -0.02097063  1
  O  O316  1  0.00324431  0.12116947  0.50838290  1
  O  O317  1  0.00568106  0.61709735  0.00251774  1
  O  O318  1  0.00697405  0.62954784  0.50717840  1
  O  O319  1  0.50171184  0.12055798  0.00241564  1
  O  O320  1  0.51360418  0.12059648  0.50163846  1
  O  O321  1  0.50612369  0.61193794  -0.00358953  1
  O  O322  1  0.50222156  0.62624225  0.50728509  1
  O  O323  1  0.49468993  0.36672133  0.48795538  1
  O  O324  1  0.49753822  0.38446362  0.99062053  1
  O  O325  1  0.48887281  0.89695459  0.51115733  1
  O  O326  1  0.49198517  0.89366730  0.98963884  1
  O  O327  1  1.00416163  0.37485290  0.48652026  1
  O  O328  1  0.99310202  0.38223279  0.99562211  1
  O  O329  1  0.99378373  0.88551331  0.49874740  1
  O  O330  1  0.99857018  0.87959653  0.99075770  1
  O  O331  1  0.48964783  0.48743453  0.37125305  1
  O  O332  1  0.49312172  0.49395160  0.87905680  1
  O  O333  1  0.48497377  1.01259865  0.39286725  1
  O  O334  1  0.48851085  0.99897286  0.87653241  1
  O  O335  1  1.00062166  0.49079392  0.37716145  1
  O  O336  1  0.99400443  0.49438983  0.88471785  1
  O  O337  1  0.99557494  1.00267500  0.38959865  1
  O  O338  1  1.00085799  0.98094012  0.87830479  1
  O  O339  1  -0.00264211  -0.00087600  0.11301230  1
  O  O340  1  0.00755825  0.00996682  0.62137970  1
  O  O341  1  -0.00312596  0.50574583  0.11122461  1
  O  O342  1  0.01280911  0.50969876  0.62369917  1
  O  O343  1  0.49712357  0.01460480  0.11329412  1
  O  O344  1  0.49270921  0.00940279  0.61837144  1
  O  O345  1  0.50334457  0.50174561  0.11578708  1
  O  O346  1  0.51076366  0.50998832  0.62932052  1
  O  O347  1  0.23908038  0.38468550  0.25716695  1
  O  O348  1  0.23755108  0.36924883  0.74590362  1
  O  O349  1  0.23522086  0.87610386  0.23870612  1
  O  O350  1  0.25056965  0.88893782  0.75426436  1
  O  O351  1  0.74484360  0.37580161  0.24418996  1
  O  O352  1  0.73706876  0.37865549  0.75556357  1
  O  O353  1  0.74609084  0.88444919  0.24547189  1
  O  O354  1  0.74776348  0.88188213  0.75159209  1
  O  O355  1  0.26164905  0.13447514  0.26253423  1
  O  O356  1  0.25601134  0.11629064  0.75840107  1
  O  O357  1  0.24418084  0.61850464  0.26134957  1
  O  O358  1  0.26393651  0.62923384  0.75534777  1
  O  O359  1  0.75402228  0.13800689  0.26053529  1
  O  O360  1  0.76020129  0.12030364  0.75247667  1
  O  O361  1  0.76037702  0.61104370  0.24556948  1
  O  O362  1  0.75598884  0.61578612  0.74903083  1
  O  O363  1  0.36874561  0.12293365  0.36900041  1
  O  O364  1  0.36677273  0.11840361  0.86448992  1
  O  O365  1  0.36497522  0.61525526  0.37849737  1
  O  O366  1  0.37145845  0.61922365  0.86528899  1
  O  O367  1  0.85456820  0.12012081  0.38561899  1
  O  O368  1  0.86764531  0.12988729  0.86747421  1
  O  O369  1  0.89118727  0.62250183  0.35525393  1
  O  O370  1  0.87554079  0.61614182  0.86684837  1
  O  O371  1  0.11741008  0.38069609  0.14084779  1
  O  O372  1  0.12798590  0.38322948  0.63156065  1
  O  O373  1  0.12945145  0.87325651  0.13658891  1
  O  O374  1  0.11836192  0.88667426  0.62563353  1
  O  O375  1  0.62923140  0.37689217  0.12986822  1
  O  O376  1  0.61835054  0.38483602  0.63226956  1
  O  O377  1  0.62522642  0.87572291  0.09108405  1
  O  O378  1  0.64232612  0.86860481  0.63896363  1
  O  O379  1  0.11705644  0.25908636  0.25826757  1
  O  O380  1  0.11444768  0.25745073  0.74681388  1
  O  O381  1  0.12577002  0.75269206  0.26143826  1
  O  O382  1  0.11232357  0.75039662  0.73875124  1
  O  O383  1  0.61019947  0.25266964  0.25043005  1
  O  O384  1  0.61784983  0.25719849  0.74830875  1
  O  O385  1  0.62317396  0.75063146  0.24854555  1
  O  O386  1  0.62121959  0.75738359  0.75520041  1
  O  O387  1  0.38339195  0.24300322  0.24144480  1
  O  O388  1  0.38110107  0.24346737  0.74633576  1
  O  O389  1  0.39246028  0.78936960  0.24178730  1
  O  O390  1  0.37834066  0.74496875  0.74056850  1
  O  O391  1  0.88790853  0.25172597  0.25710094  1
  O  O392  1  0.88948017  0.24317784  0.75056190  1
  O  O393  1  0.87029767  0.74297958  0.23156078  1
  O  O394  1  0.88507212  0.74504993  0.74497141  1
  O  O395  1  0.36765694  0.49068765  0.48650191  1
  O  O396  1  0.38346907  0.50091514  0.98935530  1
  O  O397  1  0.38205803  0.99929746  0.50116946  1
  O  O398  1  0.37856722  1.00670758  0.98741600  1
  O  O399  1  0.87910900  0.50037105  0.49657447  1
  O  O400  1  0.87894575  0.49255478  0.99339656  1
  O  O401  1  0.88392269  0.99133811  0.50894357  1
  O  O402  1  0.88559971  0.98168718  0.99869115  1
  O  O403  1  0.11277926  -0.00609290  0.00032989  1
  O  O404  1  0.11858342  0.00510824  0.50503769  1
  O  O405  1  0.11579690  0.50916055  0.00214555  1
  O  O406  1  0.12391702  0.51008109  0.50604031  1
  O  O407  1  0.61011724  0.01438595  -0.01164546  1
  O  O408  1  0.61173557  0.01131697  0.50361604  1
  O  O409  1  0.61781850  0.50226486  0.00098676  1
  O  O410  1  0.62951327  0.50965545  0.50998654  1
  O  O411  1  0.38413867  0.35872631  0.12542877  1
  O  O412  1  0.36919137  0.37299812  0.62047257  1
  O  O413  1  0.35970065  0.88921587  0.12231126  1
  O  O414  1  0.37386151  0.86571415  0.61490534  1
  O  O415  1  0.86584520  0.37584340  0.11697266  1
  O  O416  1  0.88487826  0.36807199  0.61839644  1
  O  O417  1  0.88434660  0.86088955  0.10504803  1
  O  O418  1  0.86977727  0.87001374  0.62268101  1
  O  O419  1  0.13572760  0.13577998  0.38436744  1
  O  O420  1  0.14011996  0.12092041  0.86856768  1
  O  O421  1  0.12918942  0.63650394  0.37657986  1
  O  O422  1  0.13673297  0.61846571  0.88056837  1
  O  O423  1  0.63806020  0.12065012  0.38189404  1
  O  O424  1  0.63078728  0.12877661  0.87733575  1
  O  O425  1  0.62793619  0.62026975  0.38862109  1
  O  O426  1  0.62351458  0.62604274  0.88283581  1
