# generated using pymatgen
data_V85Zn86O256
_symmetry_space_group_name_H-M   'P 1'
_cell_length_a   16.90456504
_cell_length_b   16.91048886
_cell_length_c   16.90577680
_cell_angle_alpha   90.00028238
_cell_angle_beta   90.03069277
_cell_angle_gamma   89.91718451
_symmetry_Int_Tables_number   1
_chemical_formula_structural   V85Zn86O256
_chemical_formula_sum   'V85 Zn86 O256'
_cell_volume   4832.75499388
_cell_formula_units_Z   1
loop_
 _symmetry_equiv_pos_site_id
 _symmetry_equiv_pos_as_xyz
  1  'x, y, z'
loop_
 _atom_site_type_symbol
 _atom_site_label
 _atom_site_symmetry_multiplicity
 _atom_site_fract_x
 _atom_site_fract_y
 _atom_site_fract_z
 _atom_site_occupancy
  V  V0  1  0.37620356  0.62446892  0.74728793  1
  V  V1  1  -0.00756325  0.50580486  -0.00107029  1
  V  V2  1  0.50648590  0.49551105  0.50425385  1
  V  V3  1  0.61789042  0.50403186  0.12754247  1
  V  V4  1  0.25137660  -0.00041760  0.74876719  1
  V  V5  1  -0.00167153  0.75591156  0.26579645  1
  V  V6  1  0.13019597  0.25176837  0.37730621  1
  V  V7  1  0.75583820  0.61756351  0.87876709  1
  V  V8  1  0.50945741  0.61961575  0.62410150  1
  V  V9  1  0.76119336  -0.00126835  0.75605744  1
  V  V10  1  -0.00391021  0.37403046  0.87576524  1
  V  V11  1  0.75465700  0.12989138  0.87621028  1
  V  V12  1  0.38390943  0.24335501  0.62105142  1
  V  V13  1  0.76199642  0.24051324  0.49828935  1
  V  V14  1  0.24661712  0.63904142  0.87520980  1
  V  V15  1  0.13066037  0.37622396  0.24573480  1
  V  V16  1  0.50800865  0.24584167  0.75563229  1
  V  V17  1  -0.00341096  0.12380475  0.12524896  1
  V  V18  1  0.36305964  0.25592414  0.11969061  1
  V  V19  1  0.75474946  0.74855431  0.00432314  1
  V  V20  1  0.37973477  0.12252294  0.74766461  1
  V  V21  1  0.86836034  0.00237483  0.37486584  1
  V  V22  1  0.49050262  0.12363895  0.12538035  1
  V  V23  1  0.86332295  0.12767158  0.25387411  1
  V  V24  1  0.37169543  0.36768278  0.49831020  1
  V  V25  1  0.12757451  0.50086753  0.62112765  1
  V  V26  1  0.75145514  0.87361532  0.62261090  1
  V  V27  1  0.00357856  -0.00422160  0.49090706  1
  V  V28  1  0.62074181  0.13250037  -0.00661325  1
  V  V29  1  -0.00350172  0.25101262  0.74864236  1
  V  V30  1  0.49950534  -0.00224651  0.50189855  1
  V  V31  1  0.00148724  0.74872081  0.75644835  1
  V  V32  1  0.87047990  0.87961254  -0.00701548  1
  V  V33  1  0.49659174  0.74858298  0.23772475  1
  V  V34  1  0.75311453  0.87303403  0.12813790  1
  V  V35  1  0.25208047  0.49988932  0.74687199  1
  V  V36  1  0.87063238  0.38016160  -0.00424381  1
  V  V37  1  0.18420756  0.29881934  0.93233162  1
  V  V38  1  0.25165615  0.85886592  0.12075197  1
  V  V39  1  0.37683788  0.62710010  0.23898580  1
  V  V40  1  0.24641886  0.12499326  0.88140117  1
  V  V41  1  0.62409451  0.00089946  0.12353928  1
  V  V42  1  -0.00101249  0.25124568  0.25110575  1
  V  V43  1  0.37475758  0.86037926  -0.00016985  1
  V  V44  1  -0.00803123  0.12829705  0.62367965  1
  V  V45  1  0.61872941  0.74125492  0.37694924  1
  V  V46  1  0.87024636  0.25253979  0.12456047  1
  V  V47  1  0.61983866  0.62751556  0.00410785  1
  V  V48  1  0.49575303  0.50095777  0.00446816  1
  V  V49  1  0.12481248  -0.00040082  0.12256214  1
  V  V50  1  0.37723618  0.49871081  0.87488636  1
  V  V51  1  -0.00605814  0.00317613  -0.00802813  1
  V  V52  1  0.25044116  0.64161450  0.37798982  1
  V  V53  1  0.13140874  0.12810065  0.50049330  1
  V  V54  1  0.12744547  0.50252686  0.12522012  1
  V  V55  1  0.49328591  0.24493451  0.24946949  1
  V  V56  1  0.00188346  0.50079836  0.49747051  1
  V  V57  1  0.24966345  0.36363711  0.62090171  1
  V  V58  1  0.13149193  0.64171045  0.49991547  1
  V  V59  1  0.62078322  0.87562282  0.25816655  1
  V  V60  1  0.37269917  0.86796728  0.49769851  1
  V  V61  1  0.87039544  0.63024526  0.25466989  1
  V  V62  1  0.50098344  0.74952910  0.74814024  1
  V  V63  1  0.12212676  0.87248275  0.25982093  1
  V  V64  1  -0.00475348  0.63843194  0.12596697  1
  V  V65  1  0.37067991  0.50035253  0.37423080  1
  V  V66  1  0.62575904  0.87558220  0.75110894  1
  V  V67  1  0.62466170  0.12424001  0.49181524  1
  V  V68  1  0.12467489  -0.00135703  0.62597254  1
  V  V69  1  0.25505279  0.00229053  0.24594003  1
  V  V70  1  0.74819887  0.50487118  0.26042460  1
  V  V71  1  0.49905229  0.37049142  0.37564900  1
  V  V72  1  0.62278232  0.37382314  0.25005842  1
  V  V73  1  0.12592126  0.37081135  0.75098396  1
  V  V74  1  0.74888738  0.37788531  0.12603034  1
  V  V75  1  0.62223638  0.00667795  0.62565988  1
  V  V76  1  0.88009152  0.87166758  0.49267995  1
  V  V77  1  0.38189177  -0.00220015  0.37046624  1
  V  V78  1  0.25680042  0.12523569  0.37394527  1
  V  V79  1  0.74305966  0.49984417  0.74527152  1
  V  V80  1  0.12449531  0.64158044  -0.00364839  1
  V  V81  1  0.12614929  0.87056336  0.76115037  1
  V  V82  1  0.75121715  0.37213959  0.62323771  1
  V  V83  1  0.74997794  0.74284281  0.49320058  1
  V  V84  1  0.87689769  0.61875226  0.75210533  1
  Zn  Zn85  1  0.49887053  0.87475414  0.87508151  1
  Zn  Zn86  1  0.00101484  0.62729837  0.62503642  1
  Zn  Zn87  1  0.24768887  0.86299138  0.62091777  1
  Zn  Zn88  1  0.87849598  0.12425546  0.75416334  1
  Zn  Zn89  1  0.74518141  0.00354646  0.25546821  1
  Zn  Zn90  1  -0.00090608  0.37722439  0.37530663  1
  Zn  Zn91  1  0.25148622  0.49974206  0.24537516  1
  Zn  Zn92  1  0.62642993  0.74967832  0.87544898  1
  Zn  Zn93  1  0.62599421  0.37438447  0.75222039  1
  Zn  Zn94  1  0.63459937  0.61293802  0.49964843  1
  Zn  Zn95  1  0.49683572  -0.00268337  -0.00364481  1
  Zn  Zn96  1  0.87027411  0.50145244  0.37979269  1
  Zn  Zn97  1  0.36133620  0.37350697  -0.00050435  1
  Zn  Zn98  1  -0.00276903  0.87652290  0.87554709  1
  Zn  Zn99  1  0.37141918  0.74402519  0.61724771  1
  Zn  Zn100  1  0.12394839  0.13062363  -0.00248324  1
  Zn  Zn101  1  0.74059285  0.25924929  -0.00841575  1
  Zn  Zn102  1  0.87626845  0.74808873  0.62484240  1
  Zn  Zn103  1  0.37684843  -0.00215917  0.87829106  1
  Zn  Zn104  1  0.87969632  0.37281241  0.50276111  1
  Zn  Zn105  1  0.63027755  0.24373390  0.37190688  1
  Zn  Zn106  1  0.50634092  0.36749015  0.88072452  1
  Zn  Zn107  1  0.18517976  0.18350816  0.18863461  1
  Zn  Zn108  1  0.18633571  0.18703399  0.69188673  1
  Zn  Zn109  1  0.18203385  0.68465650  0.19384438  1
  Zn  Zn110  1  0.18884980  0.68961840  0.68714985  1
  Zn  Zn111  1  0.68264957  0.18942583  0.18254329  1
  Zn  Zn112  1  0.69356221  0.18588489  0.68228864  1
  Zn  Zn113  1  0.68637506  0.68874019  0.18789675  1
  Zn  Zn114  1  0.68943397  0.68705455  0.68590780  1
  Zn  Zn115  1  0.31143363  0.31034987  0.30737135  1
  Zn  Zn116  1  0.32293074  0.31500762  0.80685517  1
  Zn  Zn117  1  0.31742348  0.81800610  0.30874247  1
  Zn  Zn118  1  0.31484345  0.81304400  0.80863228  1
  Zn  Zn119  1  0.81304101  0.31717601  0.31873350  1
  Zn  Zn120  1  0.81312250  0.31220533  0.81153025  1
  Zn  Zn121  1  0.81116482  0.81187411  0.31386233  1
  Zn  Zn122  1  0.81231188  0.80589831  0.81469307  1
  Zn  Zn123  1  0.18858559  0.43743606  0.43716916  1
  Zn  Zn124  1  0.18281143  0.46505410  0.93597838  1
  Zn  Zn125  1  0.19305826  0.93815307  0.43676875  1
  Zn  Zn126  1  0.19077588  0.93809022  0.94046347  1
  Zn  Zn127  1  0.68740747  0.42763236  0.43817311  1
  Zn  Zn128  1  0.68204645  0.43924362  0.93271572  1
  Zn  Zn129  1  0.68798367  0.93384637  0.43743421  1
  Zn  Zn130  1  0.68618918  0.94214205  0.93625969  1
  Zn  Zn131  1  0.31493076  0.05772261  0.05991049  1
  Zn  Zn132  1  0.31296809  0.05974564  0.56190542  1
  Zn  Zn133  1  0.30837237  0.56781276  0.05905525  1
  Zn  Zn134  1  0.31604042  0.56159928  0.56014695  1
  Zn  Zn135  1  0.80912360  0.06320372  0.06227867  1
  Zn  Zn136  1  0.81255134  0.05938329  0.56252491  1
  Zn  Zn137  1  0.81129582  0.56423745  0.07144751  1
  Zn  Zn138  1  0.81521698  0.55954355  0.56861501  1
  Zn  Zn139  1  0.43387213  0.43440699  0.18638639  1
  Zn  Zn140  1  0.44060872  0.43305139  0.68633319  1
  Zn  Zn141  1  0.43656395  0.93271626  0.18395393  1
  Zn  Zn142  1  0.43829616  0.93624595  0.68310496  1
  Zn  Zn143  1  0.93907923  0.44246289  0.18865794  1
  Zn  Zn144  1  0.93396967  0.43872349  0.68449509  1
  Zn  Zn145  1  0.93508903  0.93680550  0.18627078  1
  Zn  Zn146  1  0.94039612  0.93453064  0.68264565  1
  Zn  Zn147  1  0.06235455  0.06300225  0.31065688  1
  Zn  Zn148  1  0.06603650  0.06569345  0.81380869  1
  Zn  Zn149  1  0.06513982  0.56834593  0.31417868  1
  Zn  Zn150  1  0.06185358  0.56001979  0.81338853  1
  Zn  Zn151  1  0.56056098  0.06342051  0.31124676  1
  Zn  Zn152  1  0.56342447  0.06088951  0.81442651  1
  Zn  Zn153  1  0.55774401  0.56321600  0.31499171  1
  Zn  Zn154  1  0.56466383  0.56239263  0.81709671  1
  Zn  Zn155  1  0.44103574  0.18269124  0.43902691  1
  Zn  Zn156  1  0.43215732  0.18493718  0.93807126  1
  Zn  Zn157  1  0.44296421  0.68434741  0.43249037  1
  Zn  Zn158  1  0.43882141  0.68673030  0.93492894  1
  Zn  Zn159  1  0.94224411  0.18450001  0.43493391  1
  Zn  Zn160  1  0.93458943  0.19232445  0.93708784  1
  Zn  Zn161  1  0.93914232  0.68247086  0.43758926  1
  Zn  Zn162  1  0.93454226  0.69255647  0.93664944  1
  Zn  Zn163  1  0.05494880  0.31809413  0.06918535  1
  Zn  Zn164  1  0.06243767  0.31090232  0.56200406  1
  Zn  Zn165  1  0.05895542  0.81747273  0.06607894  1
  Zn  Zn166  1  0.06052885  0.81385285  0.56988213  1
  Zn  Zn167  1  0.55725001  0.31393731  0.06378971  1
  Zn  Zn168  1  0.56791994  0.30928007  0.56713446  1
  Zn  Zn169  1  0.56424092  0.81331314  0.06391523  1
  Zn  Zn170  1  0.55953703  0.81402595  0.56201820  1
  O  O171  1  0.11661105  0.11688415  0.12207377  1
  O  O172  1  0.12233479  0.11601264  0.61876697  1
  O  O173  1  0.11516337  0.62225716  0.11909824  1
  O  O174  1  0.12708851  0.61534400  0.61758458  1
  O  O175  1  0.61635336  0.11756247  0.11786780  1
  O  O176  1  0.63387528  0.11061829  0.61440439  1
  O  O177  1  0.63013639  0.61754769  0.11337390  1
  O  O178  1  0.61374439  0.62815283  0.61994531  1
  O  O179  1  0.37719523  0.37820816  0.38034758  1
  O  O180  1  0.38059817  0.38451000  0.87885494  1
  O  O181  1  0.37224869  0.88561816  0.38499209  1
  O  O182  1  0.37279545  0.87375722  0.88814755  1
  O  O183  1  0.88082943  0.38276784  0.38180362  1
  O  O184  1  0.87950814  0.37478962  0.88763924  1
  O  O185  1  0.87334376  0.88233533  0.38584124  1
  O  O186  1  0.87096458  0.87492284  0.88873218  1
  O  O187  1  0.25942697  0.00599706  0.36641228  1
  O  O188  1  0.25016211  0.00674425  0.86360316  1
  O  O189  1  0.26262624  0.50231560  0.37397441  1
  O  O190  1  0.26237756  0.50738847  0.86627089  1
  O  O191  1  0.76317983  -0.00229029  0.37555155  1
  O  O192  1  0.74642626  0.01133467  0.86543164  1
  O  O193  1  0.74507120  0.49732957  0.36376369  1
  O  O194  1  0.75035134  0.51226377  0.86934044  1
  O  O195  1  0.23244850  0.50698037  0.12432805  1
  O  O196  1  0.24639022  0.49108506  0.62768602  1
  O  O197  1  0.24219447  0.99735069  0.13057191  1
  O  O198  1  0.24235981  1.00025055  0.63562792  1
  O  O199  1  0.73725122  0.49543713  0.13413220  1
  O  O200  1  0.74929130  0.48817216  0.63136252  1
  O  O201  1  0.73676477  0.99606632  0.12824443  1
  O  O202  1  0.74467309  0.98869171  0.62943230  1
  O  O203  1  0.00841342  0.36896627  0.25164734  1
  O  O204  1  0.00349621  0.37281337  0.75710070  1
  O  O205  1  0.00506516  0.86348976  0.24399183  1
  O  O206  1  0.00722752  0.87000806  0.75201864  1
  O  O207  1  0.50354185  0.36783018  0.25498634  1
  O  O208  1  0.50045538  0.35692507  0.74877219  1
  O  O209  1  0.50695411  0.86117293  0.24451273  1
  O  O210  1  0.50818694  0.86660829  0.74731652  1
  O  O211  1  0.50383001  0.13396456  0.23956538  1
  O  O212  1  0.48794201  0.13022536  0.75202263  1
  O  O213  1  0.49041492  0.63694462  0.25665316  1
  O  O214  1  0.49928212  0.62928067  0.74374898  1
  O  O215  1  0.99216339  0.13117673  0.24323868  1
  O  O216  1  1.00112305  0.13189064  0.74288160  1
  O  O217  1  0.99688600  0.63762263  0.24575234  1
  O  O218  1  0.99427694  0.62935283  0.75152411  1
  O  O219  1  0.37702375  0.25327380  0.01395671  1
  O  O220  1  0.38037521  0.25835875  0.50517985  1
  O  O221  1  0.37647899  0.75984720  -0.00092088  1
  O  O222  1  0.38665877  0.76540970  0.49476951  1
  O  O223  1  0.87028747  0.26260770  0.00713687  1
  O  O224  1  0.86561377  0.24609690  0.49707678  1
  O  O225  1  0.86165458  0.75869968  0.00103056  1
  O  O226  1  0.86904874  0.75546135  0.49765473  1
  O  O227  1  0.12374755  0.23997013  0.49066632  1
  O  O228  1  0.12368465  0.25164887  1.00250971  1
  O  O229  1  0.12283298  0.74089869  0.50614282  1
  O  O230  1  0.11524715  0.74086726  1.00048627  1
  O  O231  1  0.63179703  0.23800587  0.49974741  1
  O  O232  1  0.62392283  0.23732592  1.00742299  1
  O  O233  1  0.62944911  0.75262494  0.48892041  1
  O  O234  1  0.63308403  0.74349175  0.99952635  1
  O  O235  1  0.49188592  0.24285989  0.13104470  1
  O  O236  1  0.48885776  0.24943566  0.63195710  1
  O  O237  1  0.50925770  0.74429465  0.13932813  1
  O  O238  1  0.49756742  0.74177161  0.63272495  1
  O  O239  1  0.99007570  0.24489069  0.13176357  1
  O  O240  1  1.00544757  0.23956593  0.63247746  1
  O  O241  1  0.99871271  0.74125745  0.13071640  1
  O  O242  1  0.99619325  0.74816067  0.63950938  1
  O  O243  1  0.01391528  0.24807365  0.36818381  1
  O  O244  1  -0.00050595  0.26492399  0.87115108  1
  O  O245  1  0.00053156  0.75072314  0.36455161  1
  O  O246  1  -0.00447360  0.75584048  0.86242664  1
  O  O247  1  0.49976461  0.25202724  0.36613036  1
  O  O248  1  0.49256194  0.24732227  0.85960441  1
  O  O249  1  0.51459758  0.75094559  0.36813094  1
  O  O250  1  0.50539415  0.75073383  0.86119791  1
  O  O251  1  0.23846607  0.11665634  0.49113313  1
  O  O252  1  0.24940085  0.12025457  0.98591172  1
  O  O253  1  0.24769845  0.62181257  0.48681153  1
  O  O254  1  0.23735180  0.62301099  0.98856954  1
  O  O255  1  0.74586370  0.13455414  0.50461902  1
  O  O256  1  0.74254361  0.12678591  0.98959189  1
  O  O257  1  0.75029727  0.63871997  0.50859416  1
  O  O258  1  0.74746999  0.63039328  0.99748092  1
  O  O259  1  0.23951281  0.37130015  -0.01664660  1
  O  O260  1  0.26010703  0.37705875  0.50791032  1
  O  O261  1  0.25623921  0.87398163  0.01258312  1
  O  O262  1  0.26748376  0.88203836  0.50229480  1
  O  O263  1  0.75538752  0.38001123  0.00515139  1
  O  O264  1  0.75184185  0.36470178  0.50904732  1
  O  O265  1  0.75136354  0.86986516  0.00525176  1
  O  O266  1  0.75665938  0.86659067  0.50601645  1
  O  O267  1  0.12325609  0.49516591  0.24303911  1
  O  O268  1  0.12913898  0.49325445  0.73829285  1
  O  O269  1  0.12795059  0.99407539  0.23914791  1
  O  O270  1  0.13061922  0.99601178  0.74285685  1
  O  O271  1  0.62694194  0.49828897  0.24499843  1
  O  O272  1  0.63951372  0.50377947  0.75176481  1
  O  O273  1  0.62428283  0.99215140  0.24485633  1
  O  O274  1  0.63290706  0.99393197  0.74200770  1
  O  O275  1  0.36700189  -0.00736728  0.25606631  1
  O  O276  1  0.36796647  0.00537759  0.74806855  1
  O  O277  1  0.37442087  0.50674522  0.25701801  1
  O  O278  1  0.37417580  0.50344628  0.75611843  1
  O  O279  1  0.87402425  0.00810601  0.25756594  1
  O  O280  1  0.86426749  -0.00099868  0.74419864  1
  O  O281  1  0.86403533  0.50741226  0.25117835  1
  O  O282  1  0.86642078  0.51223588  0.74726563  1
  O  O283  1  0.12460048  0.36632155  0.36958354  1
  O  O284  1  0.12288909  0.37250468  0.87395340  1
  O  O285  1  0.13068483  0.88328256  0.35901967  1
  O  O286  1  0.12409617  0.88147077  0.86397773  1
  O  O287  1  0.61586769  0.36964654  0.36717446  1
  O  O288  1  0.61938845  0.37664595  0.86668429  1
  O  O289  1  0.62671466  0.86857538  0.36273115  1
  O  O290  1  0.62673263  0.87388233  0.86118256  1
  O  O291  1  0.38584659  0.13109845  0.11968670  1
  O  O292  1  0.36685632  0.13328951  0.63247656  1
  O  O293  1  0.36808287  0.62135895  0.13962576  1
  O  O294  1  0.38743429  0.62205952  0.63066949  1
  O  O295  1  0.87709704  0.13090752  0.13220155  1
  O  O296  1  0.88917937  0.11865933  0.62657855  1
  O  O297  1  0.88438390  0.62144250  0.13984760  1
  O  O298  1  0.87876551  0.62826147  0.63639913  1
  O  O299  1  0.26516668  0.24108243  0.13099974  1
  O  O300  1  0.25840724  0.25944932  0.63053661  1
  O  O301  1  0.24433114  0.76116547  0.13079088  1
  O  O302  1  0.25825573  0.74979287  0.62584441  1
  O  O303  1  0.75319791  0.26119817  0.12243976  1
  O  O304  1  0.75196818  0.25670602  0.61214894  1
  O  O305  1  0.74294896  0.76051357  0.11695819  1
  O  O306  1  0.75030367  0.76167731  0.61836944  1
  O  O307  1  0.23956003  0.23998261  0.36631929  1
  O  O308  1  0.25130388  0.24534197  0.87032257  1
  O  O309  1  0.25640661  0.74001750  0.37260284  1
  O  O310  1  0.24957371  0.73808490  0.86629572  1
  O  O311  1  0.74708435  0.25514065  0.39346277  1
  O  O312  1  0.74958828  0.23585228  0.87342423  1
  O  O313  1  0.73566167  0.75489555  0.38230534  1
  O  O314  1  0.74649485  0.73772076  0.88385001  1
  O  O315  1  -0.00226976  0.12028450  0.00661153  1
  O  O316  1  0.01158401  0.11826579  0.50595683  1
  O  O317  1  -0.00061088  0.62264674  0.00585006  1
  O  O318  1  0.01315892  0.61960122  0.50208398  1
  O  O319  1  0.50524587  0.12237884  0.00591041  1
  O  O320  1  0.50995222  0.11163950  0.49941748  1
  O  O321  1  0.50696799  0.61419518  -0.00283891  1
  O  O322  1  0.49986342  0.61325282  0.50649159  1
  O  O323  1  0.49431992  0.37678846  0.49688171  1
  O  O324  1  0.49770269  0.39004167  1.00031660  1
  O  O325  1  0.49185635  0.88827283  0.50123253  1
  O  O326  1  0.48778751  0.87239422  1.00141353  1
  O  O327  1  1.00127890  0.38464410  0.49972985  1
  O  O328  1  0.99102319  0.38400466  0.99564430  1
  O  O329  1  0.99261068  0.88369012  0.50561152  1
  O  O330  1  0.98821210  0.88320101  1.00112786  1
  O  O331  1  0.48781471  0.49324722  0.38067290  1
  O  O332  1  0.48828889  0.50310396  0.88235883  1
  O  O333  1  0.48753727  1.00538186  0.37954092  1
  O  O334  1  0.49655957  0.99315249  0.87596965  1
  O  O335  1  1.00697629  0.50157550  0.38880841  1
  O  O336  1  1.00503693  0.48664278  0.88529180  1
  O  O337  1  0.99384193  1.00495618  0.38648282  1
  O  O338  1  1.00333435  1.00074595  0.88843187  1
  O  O339  1  0.00593522  0.00418647  0.11843818  1
  O  O340  1  0.00832563  0.00650247  0.61605128  1
  O  O341  1  0.00619085  0.51217576  0.11922441  1
  O  O342  1  0.01066910  0.50091741  0.61656865  1
  O  O343  1  0.50792881  0.00624356  0.12577859  1
  O  O344  1  0.51145456  -0.00244741  0.61725934  1
  O  O345  1  0.50948943  0.49808187  0.12153765  1
  O  O346  1  0.49738750  0.50444162  0.61579487  1
  O  O347  1  0.23559068  0.37889275  0.25245881  1
  O  O348  1  0.24721867  0.38010580  0.74194217  1
  O  O349  1  0.24471424  0.88217801  0.23920089  1
  O  O350  1  0.24408936  0.88346356  0.74753831  1
  O  O351  1  0.74309594  0.38259011  0.24556329  1
  O  O352  1  0.75294786  0.38197513  0.74243075  1
  O  O353  1  0.74177928  0.87640022  0.24336955  1
  O  O354  1  0.74634201  0.87886919  0.74413774  1
  O  O355  1  0.24348306  0.10993216  0.25842456  1
  O  O356  1  0.25709898  0.11887967  0.75654987  1
  O  O357  1  0.25568082  0.62355011  0.26249958  1
  O  O358  1  0.25492854  0.61663746  0.75465755  1
  O  O359  1  0.75954147  0.12581316  0.24557913  1
  O  O360  1  0.75256203  0.11801491  0.75837776  1
  O  O361  1  0.75767742  0.61828230  0.24465016  1
  O  O362  1  0.75605051  0.62052901  0.75624968  1
  O  O363  1  0.36247393  0.11915392  0.38027366  1
  O  O364  1  0.36533576  0.12247594  0.86516753  1
  O  O365  1  0.36696788  0.61805205  0.37083969  1
  O  O366  1  0.36833355  0.61900352  0.86817214  1
  O  O367  1  0.87994036  0.11655020  0.36500583  1
  O  O368  1  0.86042859  0.12484717  0.87593926  1
  O  O369  1  0.87964780  0.61996211  0.36055000  1
  O  O370  1  0.86710248  0.62797566  0.86778278  1
  O  O371  1  0.11772589  0.38789769  0.13383911  1
  O  O372  1  0.13424073  0.37998310  0.62708289  1
  O  O373  1  0.13502738  0.88136379  0.12972208  1
  O  O374  1  0.12666354  0.88770704  0.63256707  1
  O  O375  1  0.62826428  0.38319237  0.13064846  1
  O  O376  1  0.64249501  0.36865369  0.63281700  1
  O  O377  1  0.63158992  0.88254408  0.13269711  1
  O  O378  1  0.63196737  0.88121827  0.63258553  1
  O  O379  1  0.11973968  0.25668631  0.25356874  1
  O  O380  1  0.11381074  0.25943224  0.74650119  1
  O  O381  1  0.10972589  0.75809787  0.24757829  1
  O  O382  1  0.11645852  0.76002331  0.74661668  1
  O  O383  1  0.61420525  0.25529426  0.24966805  1
  O  O384  1  0.60897582  0.23904066  0.74217414  1
  O  O385  1  0.61796700  0.75309420  0.25920693  1
  O  O386  1  0.62061844  0.75838712  0.74868154  1
  O  O387  1  0.38554688  0.25409515  0.23850551  1
  O  O388  1  0.38326669  0.24110714  0.74058206  1
  O  O389  1  0.38925582  0.74551264  0.25334288  1
  O  O390  1  0.38617669  0.74268350  0.74818648  1
  O  O391  1  0.87749944  0.24524266  0.24775916  1
  O  O392  1  0.89113879  0.24799453  0.75377052  1
  O  O393  1  0.88609058  0.74620031  0.25393898  1
  O  O394  1  0.88025167  0.73946145  0.74884318  1
  O  O395  1  0.38345042  0.48737086  0.49378547  1
  O  O396  1  0.37876258  0.49922789  0.99467371  1
  O  O397  1  0.38246722  0.99558358  0.49318826  1
  O  O398  1  0.37687942  0.98460706  0.99880551  1
  O  O399  1  0.88776883  0.50331663  0.49946649  1
  O  O400  1  0.88462154  0.49659841  1.00745762  1
  O  O401  1  0.88261993  0.99435463  0.49354167  1
  O  O402  1  0.88187049  0.99319867  1.00588426  1
  O  O403  1  0.11745011  -0.00020487  0.01051312  1
  O  O404  1  0.12053622  0.00335893  0.50521962  1
  O  O405  1  0.10918412  0.51131846  0.00871772  1
  O  O406  1  0.12391660  0.50446414  0.50957693  1
  O  O407  1  0.62147389  0.00802388  0.00871636  1
  O  O408  1  0.62039193  0.00140366  0.50486838  1
  O  O409  1  0.61735919  0.50720294  0.00876646  1
  O  O410  1  0.61130808  0.49687781  0.49176591  1
  O  O411  1  0.37120097  0.36227975  0.12094982  1
  O  O412  1  0.36948440  0.36593276  0.61707993  1
  O  O413  1  0.36012804  0.87379182  0.11690383  1
  O  O414  1  0.37457619  0.87472300  0.60931747  1
  O  O415  1  0.86970020  0.37468272  0.11707053  1
  O  O416  1  0.86015337  0.37632061  0.62189364  1
  O  O417  1  0.85828854  0.88198813  0.11747017  1
  O  O418  1  0.86768343  0.87402347  0.61223789  1
  O  O419  1  0.13314151  0.12885822  0.38111173  1
  O  O420  1  0.13639592  0.12913949  0.87739155  1
  O  O421  1  0.14281943  0.62327998  0.38281880  1
  O  O422  1  0.13402249  0.61631419  0.88409856  1
  O  O423  1  0.62671554  0.12188702  0.38670922  1
  O  O424  1  0.63508696  0.12087249  0.88425713  1
  O  O425  1  0.62327210  0.63694232  0.37918017  1
  O  O426  1  0.63299554  0.62472490  0.88981987  1
