# generated using pymatgen
data_V85Zn86O256
_symmetry_space_group_name_H-M   'P 1'
_cell_length_a   16.95010036
_cell_length_b   16.95619738
_cell_length_c   16.96142679
_cell_angle_alpha   89.97590483
_cell_angle_beta   90.05985899
_cell_angle_gamma   90.04733589
_symmetry_Int_Tables_number   1
_chemical_formula_structural   V85Zn86O256
_chemical_formula_sum   'V85 Zn86 O256'
_cell_volume   4874.86615402
_cell_formula_units_Z   1
loop_
 _symmetry_equiv_pos_site_id
 _symmetry_equiv_pos_as_xyz
  1  'x, y, z'
loop_
 _atom_site_type_symbol
 _atom_site_label
 _atom_site_symmetry_multiplicity
 _atom_site_fract_x
 _atom_site_fract_y
 _atom_site_fract_z
 _atom_site_occupancy
  V  V0  1  0.87569107  0.50079674  0.87533752  1
  V  V1  1  0.74950760  0.37465695  0.12820286  1
  V  V2  1  0.49972950  0.87609681  0.88345754  1
  V  V3  1  0.14050596  0.49875165  0.12972771  1
  V  V4  1  0.36497067  0.75547879  0.62239516  1
  V  V5  1  0.00153317  0.37690058  0.37043449  1
  V  V6  1  0.37547095  0.60646369  0.24998757  1
  V  V7  1  0.37337402  0.00345602  0.37726837  1
  V  V8  1  0.87464033  0.24830031  0.12443833  1
  V  V9  1  0.01349118  0.75838702  0.25812456  1
  V  V10  1  0.88435518  0.24787473  0.62996542  1
  V  V11  1  0.12393338  0.74946333  0.87589315  1
  V  V12  1  0.12695411  0.62958829  0.49136962  1
  V  V13  1  -0.00468625  -0.00200769  -0.00023377  1
  V  V14  1  0.49844346  0.12245309  0.62830281  1
  V  V15  1  0.63450779  0.74975188  0.87659510  1
  V  V16  1  0.12054132  0.36791917  0.75231252  1
  V  V17  1  0.74718412  0.62418580  0.37020581  1
  V  V18  1  0.86522038  -0.00032339  0.87474208  1
  V  V19  1  0.12581490  0.62451006  0.00137598  1
  V  V20  1  -0.00001714  0.62371877  0.12787610  1
  V  V21  1  0.13783542  0.37888284  0.24743269  1
  V  V22  1  0.24266527  0.87075262  0.12521427  1
  V  V23  1  0.62684444  0.61138984  0.50797892  1
  V  V24  1  0.37496501  0.00100263  0.88356782  1
  V  V25  1  0.37645547  0.24978816  0.12170529  1
  V  V26  1  0.63044020  0.50133820  0.12568542  1
  V  V27  1  0.62441269  0.74890497  0.38132686  1
  V  V28  1  0.87575278  0.75829943  0.61591825  1
  V  V29  1  0.74645951  0.50222349  0.74636548  1
  V  V30  1  0.62530856  0.37887665  0.25319426  1
  V  V31  1  0.49626529  0.37170663  0.87663445  1
  V  V32  1  0.87314776  0.11720137  0.24874409  1
  V  V33  1  0.25040746  0.62094431  0.87671569  1
  V  V34  1  -0.00434678  0.87496217  0.88039285  1
  V  V35  1  0.00372440  0.89080432  0.38634032  1
  V  V36  1  -0.00162266  0.62531727  0.62376709  1
  V  V37  1  0.12921564  0.87477565  0.74593324  1
  V  V38  1  0.12631725  0.00160284  0.11872349  1
  V  V39  1  0.62911487  0.88273064  0.74840516  1
  V  V40  1  0.38132163  0.12181959  0.24453021  1
  V  V41  1  0.63484973  0.24372259  0.87888741  1
  V  V42  1  -0.00099811  0.36715145  0.87386538  1
  V  V43  1  0.00620335  0.12650330  0.11937682  1
  V  V44  1  0.49765763  0.74701823  0.24981210  1
  V  V45  1  0.75179994  0.87328257  0.11149936  1
  V  V46  1  0.61044326  0.00167395  0.12612076  1
  V  V47  1  -0.00129645  0.49884998  0.49786043  1
  V  V48  1  0.12317425  0.49820590  0.62666763  1
  V  V49  1  0.62612586  0.24985039  0.37281453  1
  V  V50  1  0.11921385  0.25100303  0.37447501  1
  V  V51  1  0.50274916  0.50041993  -0.01058540  1
  V  V52  1  0.87064242  0.75141186  0.11614323  1
  V  V53  1  0.63011914  0.37170408  0.75264385  1
  V  V54  1  0.50433216  0.24758789  0.24613126  1
  V  V55  1  0.25173193  -0.00044624  0.74600207  1
  V  V56  1  0.12585502  0.12849935  0.50054983  1
  V  V57  1  0.25726551  0.49744044  0.75464879  1
  V  V58  1  0.24708959  0.12219773  0.37289949  1
  V  V59  1  0.36856991  0.37813065  0.00163045  1
  V  V60  1  0.49969145  0.24918126  0.75578697  1
  V  V61  1  0.12746727  -0.00520178  0.61672978  1
  V  V62  1  0.75272210  0.37658894  0.62473380  1
  V  V63  1  0.37347533  0.25451607  0.62777366  1
  V  V64  1  0.86298859  0.12396489  0.75735309  1
  V  V65  1  0.87450261  0.62624311  0.74667576  1
  V  V66  1  -0.00080956  0.75140286  0.74905766  1
  V  V67  1  0.27680486  0.27466126  0.47211169  1
  V  V68  1  0.24434258  -0.00667733  0.24883233  1
  V  V69  1  0.75435689  0.88375332  0.62197118  1
  V  V70  1  0.37567656  0.74946215  0.12400829  1
  V  V71  1  0.75386957  0.25003897  0.50016138  1
  V  V72  1  0.24279632  0.24242793  0.00255030  1
  V  V73  1  0.25087547  0.37201187  0.62705546  1
  V  V74  1  0.87308487  0.62409385  0.25067324  1
  V  V75  1  0.50176872  0.74774813  0.74818309  1
  V  V76  1  0.86304864  0.49632874  0.37234152  1
  V  V77  1  0.62872823  0.87444417  0.25141058  1
  V  V78  1  0.61808008  0.12532096  0.49946825  1
  V  V79  1  0.63475203  0.62850747  -0.00409009  1
  V  V80  1  0.49475530  0.87571197  0.38073865  1
  V  V81  1  0.61902721  0.11467973  -0.00302101  1
  V  V82  1  0.00715185  0.12350292  0.63857236  1
  V  V83  1  0.37375278  0.62703636  0.75444045  1
  V  V84  1  0.87317620  0.37483540  0.00102026  1
  Zn  Zn85  1  0.75648687  0.76102032  0.49384641  1
  Zn  Zn86  1  0.75387671  0.63057717  0.87589049  1
  Zn  Zn87  1  0.76735484  0.10976940  0.39307905  1
  Zn  Zn88  1  0.00201132  0.24912099  0.24704165  1
  Zn  Zn89  1  0.48899690  0.61139834  0.60917856  1
  Zn  Zn90  1  0.00052892  0.49945071  0.00286832  1
  Zn  Zn91  1  0.75190772  0.23868426  -0.00179661  1
  Zn  Zn92  1  0.75130802  -0.00258685  0.25442605  1
  Zn  Zn93  1  0.50347334  0.62457421  0.11976148  1
  Zn  Zn94  1  0.62823320  0.00327481  0.62893602  1
  Zn  Zn95  1  0.36126620  0.88447818  0.50990797  1
  Zn  Zn96  1  0.37691612  0.87821670  0.00406671  1
  Zn  Zn97  1  0.25522379  0.61926919  0.37017046  1
  Zn  Zn98  1  0.25293499  0.75008359  -0.00125177  1
  Zn  Zn99  1  0.49636731  -0.00076363  0.50511277  1
  Zn  Zn100  1  0.11967860  0.23975534  0.87651258  1
  Zn  Zn101  1  0.24060034  0.11975394  0.87953321  1
  Zn  Zn102  1  0.24035683  0.75843965  0.48893685  1
  Zn  Zn103  1  0.37256154  0.12471395  0.75533305  1
  Zn  Zn104  1  0.87827041  0.36786288  0.49681566  1
  Zn  Zn105  1  0.84484098  0.94991352  0.43351085  1
  Zn  Zn106  1  0.38824770  0.49778295  0.40732839  1
  Zn  Zn107  1  0.19028204  0.18796158  0.18595479  1
  Zn  Zn108  1  0.19093605  0.18581938  0.69274028  1
  Zn  Zn109  1  0.19250629  0.68303916  0.19182002  1
  Zn  Zn110  1  0.18566914  0.68636111  0.68542031  1
  Zn  Zn111  1  0.68947800  0.18266706  0.18271625  1
  Zn  Zn112  1  0.68913690  0.18833242  0.68728588  1
  Zn  Zn113  1  0.68738730  0.68846569  0.18790051  1
  Zn  Zn114  1  0.69084106  0.69468826  0.68591216  1
  Zn  Zn115  1  0.31267056  0.31220877  0.30154670  1
  Zn  Zn116  1  0.31208643  0.31068637  0.81728567  1
  Zn  Zn117  1  0.30748193  0.80872824  0.31643438  1
  Zn  Zn118  1  0.31179690  0.81259678  0.81399792  1
  Zn  Zn119  1  0.81102793  0.30628821  0.31147696  1
  Zn  Zn120  1  0.81674319  0.30939173  0.81110689  1
  Zn  Zn121  1  0.81788043  0.80924873  0.30783536  1
  Zn  Zn122  1  0.81335304  0.81701567  0.80765600  1
  Zn  Zn123  1  0.19606424  0.44553246  0.43465823  1
  Zn  Zn124  1  0.18552643  0.43701261  0.94033208  1
  Zn  Zn125  1  0.18220598  0.93031647  0.43422848  1
  Zn  Zn126  1  0.18726957  0.93613465  0.93865949  1
  Zn  Zn127  1  0.57204620  0.43685426  0.43721875  1
  Zn  Zn128  1  0.68917192  0.43600654  0.93671568  1
  Zn  Zn129  1  0.67849522  0.93914016  0.44116378  1
  Zn  Zn130  1  0.68300556  0.93817608  0.93857896  1
  Zn  Zn131  1  0.31497905  0.06347846  0.06431124  1
  Zn  Zn132  1  0.31059631  0.07073341  0.56171471  1
  Zn  Zn133  1  0.31876896  0.56370785  0.06054543  1
  Zn  Zn134  1  0.30821683  0.56374718  0.56749641  1
  Zn  Zn135  1  0.80786723  0.05800529  0.06173601  1
  Zn  Zn136  1  0.80992266  0.06722086  0.57416066  1
  Zn  Zn137  1  0.81227842  0.56149544  0.06311794  1
  Zn  Zn138  1  0.80989690  0.56318799  0.55695192  1
  Zn  Zn139  1  0.44901084  0.43207534  0.17860351  1
  Zn  Zn140  1  0.45048772  0.44152310  0.59043557  1
  Zn  Zn141  1  0.43363382  0.93043744  0.19224101  1
  Zn  Zn142  1  0.43796379  0.93505774  0.69485646  1
  Zn  Zn143  1  0.93837395  0.43948152  0.19049336  1
  Zn  Zn144  1  0.93620953  0.43644520  0.68865898  1
  Zn  Zn145  1  0.93782723  0.93409191  0.18679421  1
  Zn  Zn146  1  0.94178452  0.94184720  0.68869737  1
  Zn  Zn147  1  0.06096624  0.05944749  0.30695748  1
  Zn  Zn148  1  0.06512448  0.06053337  0.81431631  1
  Zn  Zn149  1  0.06020414  0.56144232  0.31017264  1
  Zn  Zn150  1  0.06260839  0.55838950  0.81154223  1
  Zn  Zn151  1  0.56233619  0.06292950  0.31463355  1
  Zn  Zn152  1  0.56065030  0.06110962  0.81646874  1
  Zn  Zn153  1  0.55563019  0.55902367  0.31252627  1
  Zn  Zn154  1  0.53162210  0.52914794  0.76934273  1
  Zn  Zn155  1  0.44778244  0.30466624  0.44067788  1
  Zn  Zn156  1  0.43886154  0.18208714  0.94137895  1
  Zn  Zn157  1  0.43726409  0.68443324  0.43813822  1
  Zn  Zn158  1  0.44267521  0.68753000  0.93510563  1
  Zn  Zn159  1  0.92665816  0.14610984  0.45402098  1
  Zn  Zn160  1  0.93851241  0.18402271  0.93905205  1
  Zn  Zn161  1  0.94109227  0.68921498  0.43435587  1
  Zn  Zn162  1  0.93876307  0.68553051  0.93867094  1
  Zn  Zn163  1  0.06106604  0.31777124  0.06316068  1
  Zn  Zn164  1  0.06496965  0.31030640  0.55870906  1
  Zn  Zn165  1  0.06131864  0.81059333  0.06440634  1
  Zn  Zn166  1  0.05946084  0.81576832  0.55795943  1
  Zn  Zn167  1  0.56270320  0.30761885  0.06185934  1
  Zn  Zn168  1  0.57231844  0.30291398  0.57309402  1
  Zn  Zn169  1  0.56546290  0.81167876  0.06224146  1
  Zn  Zn170  1  0.55863885  0.80944351  0.56589674  1
  O  O171  1  0.11732656  0.11663760  0.12746453  1
  O  O172  1  0.12382188  0.12193494  0.62115845  1
  O  O173  1  0.12010857  0.61553349  0.12380885  1
  O  O174  1  0.11542522  0.61676404  0.62183742  1
  O  O175  1  0.62383862  0.10641533  0.12316909  1
  O  O176  1  0.61607118  0.12591354  0.62249859  1
  O  O177  1  0.62650646  0.61785411  0.11784379  1
  O  O178  1  0.63392114  0.63162756  0.60786889  1
  O  O179  1  0.34479085  0.33945359  0.40563865  1
  O  O180  1  0.39000113  0.36729692  0.88388141  1
  O  O181  1  0.38127084  0.88713251  0.37099193  1
  O  O182  1  0.38289431  0.87864300  0.87776946  1
  O  O183  1  0.88164211  0.38002890  0.37160752  1
  O  O184  1  0.88058217  0.38063745  0.87885405  1
  O  O185  1  0.89110894  0.87135831  0.36812175  1
  O  O186  1  0.88872668  0.88237425  0.86576633  1
  O  O187  1  0.25289321  0.00235337  0.36531284  1
  O  O188  1  0.25693324  -0.00326568  0.86685681  1
  O  O189  1  0.27406596  0.50748733  0.38736447  1
  O  O190  1  0.24123485  0.51272216  0.86972308  1
  O  O191  1  0.74858243  -0.00212363  0.37133893  1
  O  O192  1  0.76604191  -0.01012457  0.88058668  1
  O  O193  1  0.76267395  0.50868281  0.37627033  1
  O  O194  1  0.76336089  0.49889536  0.86782415  1
  O  O195  1  0.23845731  0.50376719  0.12146747  1
  O  O196  1  0.24275113  0.49189314  0.63591276  1
  O  O197  1  0.24410905  0.99320235  0.12774829  1
  O  O198  1  0.24437862  1.00605887  0.63765507  1
  O  O199  1  0.73913727  0.49087621  0.11986224  1
  O  O200  1  0.76064507  0.48883742  0.63341347  1
  O  O201  1  0.74191191  0.98402120  0.12961542  1
  O  O202  1  0.74855937  0.98867277  0.62759543  1
  O  O203  1  0.00713686  0.37462529  0.26022456  1
  O  O204  1  0.00848839  0.38084086  0.76023520  1
  O  O205  1  -0.00040513  0.86027731  0.24741895  1
  O  O206  1  0.01108066  0.87159797  0.75751982  1
  O  O207  1  0.51826418  0.36388268  0.24151614  1
  O  O208  1  0.51012648  0.35910126  0.76029867  1
  O  O209  1  0.50856056  0.86743588  0.25977849  1
  O  O210  1  0.50746966  0.86258434  0.75664204  1
  O  O211  1  0.48814671  0.12961799  0.25420151  1
  O  O212  1  0.50034159  0.13476235  0.74702200  1
  O  O213  1  0.49580176  0.63296404  0.24271781  1
  O  O214  1  0.48712555  0.63858781  0.76528831  1
  O  O215  1  0.99154609  0.12609153  0.23568849  1
  O  O216  1  0.99977618  0.12635336  0.74072974  1
  O  O217  1  0.99325471  0.63230924  0.24526449  1
  O  O218  1  0.99479350  0.62952107  0.74362306  1
  O  O219  1  0.37028042  0.25438218  0.00620737  1
  O  O220  1  0.37148663  0.24158964  0.51389423  1
  O  O221  1  0.37747121  0.74727899  0.01418529  1
  O  O222  1  0.37648661  0.74455151  0.51717028  1
  O  O223  1  0.87316595  0.25370529  0.00957491  1
  O  O224  1  0.86908330  0.24057856  0.50958933  1
  O  O225  1  0.87834478  0.74244091  0.01669349  1
  O  O226  1  0.87693908  0.74477083  0.51288855  1
  O  O227  1  0.13488199  0.24728847  0.48795486  1
  O  O228  1  0.14157516  0.26179025  1.00312171  1
  O  O229  1  0.12021276  0.73257447  0.50602350  1
  O  O230  1  0.12620115  0.74123655  0.99489074  1
  O  O231  1  0.63184723  0.24578869  0.49105358  1
  O  O232  1  0.62770907  0.24005992  0.99356786  1
  O  O233  1  0.62743269  0.75274091  0.48672528  1
  O  O234  1  0.61977881  0.74032280  0.99055259  1
  O  O235  1  0.49532743  0.24908306  0.13709356  1
  O  O236  1  0.49486542  0.24127872  0.63711360  1
  O  O237  1  0.49546521  0.75083915  0.13350940  1
  O  O238  1  0.49319805  0.74088007  0.63514933  1
  O  O239  1  0.99435553  0.24282535  0.12284612  1
  O  O240  1  0.99021291  0.24569480  0.62219638  1
  O  O241  1  0.99436196  0.73993222  0.13190590  1
  O  O242  1  0.99386780  0.74707693  0.63078276  1
  O  O243  1  0.01158858  0.25784028  0.37282038  1
  O  O244  1  0.00009303  0.26351224  0.88202094  1
  O  O245  1  -0.00096703  0.75349596  0.36082697  1
  O  O246  1  0.00298153  0.75604363  0.86974612  1
  O  O247  1  0.51151277  0.25316976  0.35935647  1
  O  O248  1  0.50919255  0.25114428  0.87212873  1
  O  O249  1  0.50389167  0.75645195  0.36890485  1
  O  O250  1  0.50895628  0.75844319  0.86846569  1
  O  O251  1  0.24379442  0.13825273  0.48971523  1
  O  O252  1  0.25204146  0.13922001  1.00150867  1
  O  O253  1  0.23112482  0.62670758  0.50910928  1
  O  O254  1  0.24599739  0.62604351  0.99246407  1
  O  O255  1  0.73318763  0.13677060  0.50887546  1
  O  O256  1  0.72986740  0.12472003  1.01073888  1
  O  O257  1  0.74188067  0.63100458  0.48693894  1
  O  O258  1  0.73904311  0.62078064  0.99665833  1
  O  O259  1  0.26520013  0.37045863  -0.00607170  1
  O  O260  1  0.23656417  0.36607663  0.51329878  1
  O  O261  1  0.25314707  0.86973041  0.00960911  1
  O  O262  1  0.25018547  0.87055782  0.49796204  1
  O  O263  1  0.75634243  0.37143488  0.01072137  1
  O  O264  1  0.75695643  0.35829928  0.51061757  1
  O  O265  1  0.74372157  0.87259999  0.01331564  1
  O  O266  1  0.75723649  0.88000099  0.50535317  1
  O  O267  1  0.12373821  0.49596353  0.23812689  1
  O  O268  1  0.13233848  0.49150762  0.74496267  1
  O  O269  1  0.13607600  1.00461704  0.23639231  1
  O  O270  1  0.13182253  0.99183279  0.74175406  1
  O  O271  1  0.62180870  0.49068368  0.23845320  1
  O  O272  1  0.64302920  0.48912758  0.76163956  1
  O  O273  1  0.62399022  0.99180952  0.24136462  1
  O  O274  1  0.61893537  0.98628765  0.74952446  1
  O  O275  1  0.36803557  0.00605905  0.25203732  1
  O  O276  1  0.36535000  -0.00237585  0.75900646  1
  O  O277  1  0.38572959  0.50868486  0.23598086  1
  O  O278  1  0.35872504  0.51257633  0.75407560  1
  O  O279  1  0.87486464  0.01382169  0.24173234  1
  O  O280  1  0.88335555  0.01469747  0.76014862  1
  O  O281  1  0.88009731  0.51431337  0.25772937  1
  O  O282  1  0.86750306  0.50569702  0.75594424  1
  O  O283  1  0.12099664  0.37229233  0.36806176  1
  O  O284  1  0.11468447  0.37662351  0.86983214  1
  O  O285  1  0.10483290  0.87821061  0.37015183  1
  O  O286  1  0.11600723  0.86920502  0.86886781  1
  O  O287  1  0.63303294  0.36082327  0.36530118  1
  O  O288  1  0.61860623  0.36333909  0.87380119  1
  O  O289  1  0.61574787  0.86869282  0.36900312  1
  O  O290  1  0.61877546  0.87086239  0.86829471  1
  O  O291  1  0.37317743  0.13507635  0.13298820  1
  O  O292  1  0.38185164  0.13506581  0.63149543  1
  O  O293  1  0.38104620  0.63208372  0.13270424  1
  O  O294  1  0.37235581  0.63728427  0.64224893  1
  O  O295  1  0.88039811  0.13150120  0.12927963  1
  O  O296  1  0.88574831  0.12896842  0.63954063  1
  O  O297  1  0.87974020  0.62773058  0.13212417  1
  O  O298  1  0.87924812  0.63201673  0.62791934  1
  O  O299  1  0.26019472  0.24953574  0.11358853  1
  O  O300  1  0.25984965  0.25593926  0.62907065  1
  O  O301  1  0.25774737  0.75525566  0.12655975  1
  O  O302  1  0.26322803  0.74947374  0.62744185  1
  O  O303  1  0.75806725  0.25668141  0.12236338  1
  O  O304  1  0.76336755  0.25355188  0.62242201  1
  O  O305  1  0.75545360  0.76264424  0.13063626  1
  O  O306  1  0.75949358  0.76339328  0.61992455  1
  O  O307  1  0.23687217  0.24069908  0.36885254  1
  O  O308  1  0.24981045  0.24857141  0.89134200  1
  O  O309  1  0.25838052  0.73311456  0.37853565  1
  O  O310  1  0.24125620  0.73959355  0.87492739  1
  O  O311  1  0.74647683  0.24189807  0.38493072  1
  O  O312  1  0.73862684  0.25307591  0.87647979  1
  O  O313  1  0.74170486  0.74417284  0.37393520  1
  O  O314  1  0.73861079  0.75317275  0.86983306  1
  O  O315  1  -0.00266192  0.11601584  0.01221200  1
  O  O316  1  0.02125902  0.13344298  0.51488063  1
  O  O317  1  0.00764877  0.62251532  0.00974277  1
  O  O318  1  0.00746818  0.61898974  0.50385458  1
  O  O319  1  0.51906589  0.13003728  0.00547138  1
  O  O320  1  0.51141884  0.12895446  0.51367028  1
  O  O321  1  0.50980978  0.61482684  -0.00275453  1
  O  O322  1  0.52212368  0.63156586  0.49839981  1
  O  O323  1  0.50843103  0.37255044  0.51128842  1
  O  O324  1  0.49646129  0.37896943  0.99327264  1
  O  O325  1  0.49466994  0.87482593  0.48907494  1
  O  O326  1  0.49986299  0.87113980  0.98696351  1
  O  O327  1  0.99956741  0.37858977  0.48673449  1
  O  O328  1  0.99119320  0.38003235  0.99332768  1
  O  O329  1  0.99773721  0.87946054  0.48758387  1
  O  O330  1  1.00307303  0.88160228  0.99104609  1
  O  O331  1  0.49591085  0.48359735  0.36909456  1
  O  O332  1  0.50708194  0.48659366  0.87971979  1
  O  O333  1  0.49103234  0.99246714  0.37595245  1
  O  O334  1  0.48783521  0.98794886  0.86726545  1
  O  O335  1  0.99225358  0.49291531  0.37841796  1
  O  O336  1  0.98795190  0.49322492  0.87553631  1
  O  O337  1  0.99744188  0.99192575  0.37136022  1
  O  O338  1  0.99568501  0.99206010  0.88347730  1
  O  O339  1  0.00639877  0.00312329  0.11890075  1
  O  O340  1  0.01471486  0.01057248  0.62822572  1
  O  O341  1  0.00167344  0.51432546  0.12665660  1
  O  O342  1  0.00180156  0.50381813  0.61813694  1
  O  O343  1  0.51249002  -0.01291124  0.12803426  1
  O  O344  1  0.49629105  0.01292027  0.62891888  1
  O  O345  1  0.51617062  0.49866967  0.10858460  1
  O  O346  1  0.50457677  0.51166497  0.66041263  1
  O  O347  1  0.23762590  0.37544185  0.24702721  1
  O  O348  1  0.24544653  0.38215831  0.74944768  1
  O  O349  1  0.25688836  0.88587550  0.24172812  1
  O  O350  1  0.23572200  0.87988930  0.75530709  1
  O  O351  1  0.74071231  0.36746104  0.23710112  1
  O  O352  1  0.75242937  0.38093881  0.74409578  1
  O  O353  1  0.73568832  0.87137347  0.24794465  1
  O  O354  1  0.73826774  0.86945593  0.73889485  1
  O  O355  1  0.25852345  0.11650814  0.25325778  1
  O  O356  1  0.25259726  0.11309147  0.75631457  1
  O  O357  1  0.27204991  0.62216225  0.24738510  1
  O  O358  1  0.25137441  0.61968758  0.75758843  1
  O  O359  1  0.76519654  0.12127716  0.24447917  1
  O  O360  1  0.76440690  0.12280168  0.74677565  1
  O  O361  1  0.75638466  0.62950910  0.26159270  1
  O  O362  1  0.75608946  0.61824278  0.74910925  1
  O  O363  1  0.36708013  0.11056187  0.36352798  1
  O  O364  1  0.37316773  0.11451534  0.87476682  1
  O  O365  1  0.38849365  0.62012894  0.35629562  1
  O  O366  1  0.36278184  0.63495224  0.86579144  1
  O  O367  1  0.87790212  0.14049463  0.34956860  1
  O  O368  1  0.87899083  0.11869812  0.86459602  1
  O  O369  1  0.86837861  0.62108031  0.36912323  1
  O  O370  1  0.87461053  0.61792004  0.86838596  1
  O  O371  1  0.11712525  0.39194195  0.13291252  1
  O  O372  1  0.12667786  0.37883672  0.63401714  1
  O  O373  1  0.13650817  0.88015051  0.12306456  1
  O  O374  1  0.11837956  0.88431506  0.63259146  1
  O  O375  1  0.63320472  0.37960145  0.12747089  1
  O  O376  1  0.64502927  0.36430220  0.63785156  1
  O  O377  1  0.63207961  0.87929142  0.13157573  1
  O  O378  1  0.63135261  0.87535545  0.63121969  1
  O  O379  1  0.12321419  0.25878411  0.25422082  1
  O  O380  1  0.13203863  0.26497082  0.75445929  1
  O  O381  1  0.11115372  0.74238331  0.24549945  1
  O  O382  1  0.11870634  0.75600539  0.75326778  1
  O  O383  1  0.62210390  0.24945775  0.25350871  1
  O  O384  1  0.62106479  0.25021322  0.75993785  1
  O  O385  1  0.61517872  0.75399500  0.25858689  1
  O  O386  1  0.61809123  0.75571500  0.75619409  1
  O  O387  1  0.38278996  0.24332784  0.24210843  1
  O  O388  1  0.38406682  0.24865720  0.74792875  1
  O  O389  1  0.38659372  0.74869513  0.24094872  1
  O  O390  1  0.38058847  0.74782751  0.74384343  1
  O  O391  1  0.87824455  0.24554868  0.23503467  1
  O  O392  1  0.87559695  0.23559311  0.74530080  1
  O  O393  1  0.88261290  0.73736831  0.24028611  1
  O  O394  1  0.88061404  0.74440465  0.74078863  1
  O  O395  1  0.39411247  0.51364977  0.52110176  1
  O  O396  1  0.38895082  0.49039513  1.00540081  1
  O  O397  1  0.37620906  1.00284416  0.49168812  1
  O  O398  1  0.37041968  0.99772176  0.98836438  1
  O  O399  1  0.88191287  0.49704257  0.49008431  1
  O  O400  1  0.87559017  0.49462526  0.99152902  1
  O  O401  1  0.86720030  1.04870457  0.48112135  1
  O  O402  1  0.88714152  1.00461438  0.99303537  1
  O  O403  1  0.11522504  -0.00492432  0.01156760  1
  O  O404  1  0.13794411  0.01207979  0.51183033  1
  O  O405  1  0.12267266  0.50465813  0.01311806  1
  O  O406  1  0.11736812  0.50620426  0.50777302  1
  O  O407  1  0.62243903  0.00517215  0.01080245  1
  O  O408  1  0.61632686  0.01043438  0.50623156  1
  O  O409  1  0.62115052  0.50637429  0.00156009  1
  O  O410  1  0.63337737  0.51233102  0.50049202  1
  O  O411  1  0.38270303  0.36085135  0.11482265  1
  O  O412  1  0.37037832  0.36133827  0.62766081  1
  O  O413  1  0.36561647  0.86673418  0.12387727  1
  O  O414  1  0.38287339  0.85953998  0.62582777  1
  O  O415  1  0.87004839  0.37003429  0.12302485  1
  O  O416  1  0.87063891  0.36465259  0.62461622  1
  O  O417  1  0.85989753  0.86751415  0.12974630  1
  O  O418  1  0.86953287  0.86935891  0.63332242  1
  O  O419  1  0.12454420  0.13140391  0.38035052  1
  O  O420  1  0.12595206  0.12727583  0.87703264  1
  O  O421  1  0.12558632  0.61459344  0.38941926  1
  O  O422  1  0.12847795  0.62919605  0.88014514  1
  O  O423  1  0.62499314  0.13416430  0.38358319  1
  O  O424  1  0.62383333  0.12654963  0.88760515  1
  O  O425  1  0.63087846  0.63077730  0.37788752  1
  O  O426  1  0.63010451  0.63700123  0.88239665  1
