# generated using pymatgen
data_V85Zn86O256
_symmetry_space_group_name_H-M   'P 1'
_cell_length_a   16.94126022
_cell_length_b   16.94223618
_cell_length_c   16.94199464
_cell_angle_alpha   89.96069553
_cell_angle_beta   89.97027118
_cell_angle_gamma   89.99423463
_symmetry_Int_Tables_number   1
_chemical_formula_structural   V85Zn86O256
_chemical_formula_sum   'V85 Zn86 O256'
_cell_volume   4862.73745550
_cell_formula_units_Z   1
loop_
 _symmetry_equiv_pos_site_id
 _symmetry_equiv_pos_as_xyz
  1  'x, y, z'
loop_
 _atom_site_type_symbol
 _atom_site_label
 _atom_site_symmetry_multiplicity
 _atom_site_fract_x
 _atom_site_fract_y
 _atom_site_fract_z
 _atom_site_occupancy
  V  V0  1  0.74927836  0.25141218  0.50252638  1
  V  V1  1  0.37976254  0.87105263  -0.00311479  1
  V  V2  1  0.37348075  0.13298590  0.24189282  1
  V  V3  1  0.12178184  0.25196724  0.87662848  1
  V  V4  1  0.24764149  0.50221087  0.76423394  1
  V  V5  1  0.75295393  0.37013685  0.62739030  1
  V  V6  1  0.87318874  0.76183446  0.12066110  1
  V  V7  1  0.36764789  0.62653505  0.75829846  1
  V  V8  1  0.75196200  0.76184393  0.00339517  1
  V  V9  1  0.62450665  0.11986079  0.00431597  1
  V  V10  1  0.62403719  0.49967394  0.62266462  1
  V  V11  1  -0.00032116  0.12526574  0.12269141  1
  V  V12  1  0.74567741  0.37111021  0.12909294  1
  V  V13  1  0.62128907  0.76908406  0.37461813  1
  V  V14  1  0.49938096  0.37708248  0.38278079  1
  V  V15  1  0.74013757  0.62420286  0.37482437  1
  V  V16  1  -0.00228697  -0.01377876  -0.00472013  1
  V  V17  1  0.87812571  0.37044649  0.50400985  1
  V  V18  1  0.37419586  0.75228866  0.62674316  1
  V  V19  1  0.73863707  0.49519125  0.25072972  1
  V  V20  1  0.87099996  0.49971533  0.37438403  1
  V  V21  1  0.12652349  0.25001913  0.36779648  1
  V  V22  1  0.13251015  0.62096201  -0.00305075  1
  V  V23  1  0.12659105  0.12330566  -0.00059663  1
  V  V24  1  -0.00096090  0.62752792  0.62584640  1
  V  V25  1  0.75152944  0.00042174  0.74839114  1
  V  V26  1  0.61837238  0.87607684  0.75160702  1
  V  V27  1  0.87323944  0.00063615  0.36835638  1
  V  V28  1  0.00682203  0.87231654  0.36782957  1
  V  V29  1  0.49002047  0.24842839  0.75149653  1
  V  V30  1  0.12359104  -0.00641075  0.12910745  1
  V  V31  1  -0.00470009  0.62071175  0.12188693  1
  V  V32  1  -0.00789650  0.13252198  0.62265871  1
  V  V33  1  0.61631356  0.37680529  0.75344443  1
  V  V34  1  -0.00613386  0.49816236  -0.01628726  1
  V  V35  1  0.61972809  0.25292884  0.87387518  1
  V  V36  1  0.50199269  0.61757688  0.12543454  1
  V  V37  1  0.87465459  0.25132989  0.12419735  1
  V  V38  1  0.25645052  0.37813216  0.62266416  1
  V  V39  1  0.25827862  0.25384019  0.49892857  1
  V  V40  1  0.75090741  0.25109877  -0.00077509  1
  V  V41  1  0.87454154  0.75036231  0.62709535  1
  V  V42  1  0.75674844  0.49983102  0.75533172  1
  V  V43  1  0.74714361  0.74715823  0.50250470  1
  V  V44  1  0.50676751  -0.00238911  0.49373366  1
  V  V45  1  0.49782605  0.75298952  0.75516212  1
  V  V46  1  0.61926562  0.49649300  0.11721247  1
  V  V47  1  0.38295184  -0.00199589  0.87536778  1
  V  V48  1  0.75754341  0.62272909  0.88008516  1
  V  V49  1  0.75031828  0.12466431  0.37527798  1
  V  V50  1  0.36563859  0.60943589  0.26574513  1
  V  V51  1  0.24826434  0.74865731  0.49419370  1
  V  V52  1  0.25167891  0.37344967  0.12054641  1
  V  V53  1  0.37366447  0.74217049  0.12831767  1
  V  V54  1  0.13083225  0.74669331  0.87573434  1
  V  V55  1  -0.00190385  0.37778409  0.36352407  1
  V  V56  1  -0.00214627  0.75552249  0.75795173  1
  V  V57  1  0.86827058  0.62615226  0.24673076  1
  V  V58  1  0.12104800  0.37574361  0.75461063  1
  V  V59  1  0.38973940  0.36994726  0.00071510  1
  V  V60  1  0.24786575  0.87804834  0.62512466  1
  V  V61  1  0.49097447  0.12352911  0.62702612  1
  V  V62  1  0.39289285  0.50000892  0.88387874  1
  V  V63  1  0.62192025  0.75119948  0.87697467  1
  V  V64  1  0.12430724  0.49286643  0.12498060  1
  V  V65  1  0.50042872  0.75775848  0.25641123  1
  V  V66  1  0.25612980  0.12692695  0.87320483  1
  V  V67  1  0.37593543  0.87809764  0.49107472  1
  V  V68  1  0.12654114  0.12788284  0.50027472  1
  V  V69  1  0.12560415  0.50168035  0.62625965  1
  V  V70  1  0.75357626  0.12570711  0.87171763  1
  V  V71  1  0.25272799  -0.00451908  0.24947156  1
  V  V72  1  0.18203160  0.43273227  0.30515314  1
  V  V73  1  0.00044904  -0.00119364  0.50013209  1
  V  V74  1  0.12542991  0.62662992  0.49287564  1
  V  V75  1  0.87653200  0.37927531  -0.01253492  1
  V  V76  1  0.24680225  0.86768212  0.12764214  1
  V  V77  1  0.12233759  0.87845544  0.75923245  1
  V  V78  1  0.51172751  0.25416982  0.24273171  1
  V  V79  1  -0.00506995  0.25302277  0.74803223  1
  V  V80  1  0.74865967  0.87540632  0.62174854  1
  V  V81  1  0.49841787  0.62457495  0.62578064  1
  V  V82  1  0.87911651  -0.01392809  0.87494060  1
  V  V83  1  0.25468634  0.00594414  0.75093273  1
  V  V84  1  0.00103381  0.50010844  0.50062487  1
  Zn  Zn85  1  0.62718082  0.25295516  0.37019396  1
  Zn  Zn86  1  0.12367147  0.00369625  0.62811387  1
  Zn  Zn87  1  0.25195940  0.12244472  0.37440782  1
  Zn  Zn88  1  0.87680551  0.87433495  0.50086211  1
  Zn  Zn89  1  0.62799956  -0.03103544  0.13858080  1
  Zn  Zn90  1  0.87811094  0.62041294  0.75543350  1
  Zn  Zn91  1  0.61966125  0.62449308  0.49825228  1
  Zn  Zn92  1  0.87672275  0.12564704  0.24891415  1
  Zn  Zn93  1  0.62361076  0.12809569  0.50269024  1
  Zn  Zn94  1  0.48550145  0.49795588  0.49786487  1
  Zn  Zn95  1  0.13222475  0.75073935  0.36234674  1
  Zn  Zn96  1  0.00368873  0.75214258  0.24419576  1
  Zn  Zn97  1  0.50482509  -0.00747135  0.00221770  1
  Zn  Zn98  1  0.37338848  0.25012467  0.62576799  1
  Zn  Zn99  1  0.25521479  0.24867905  0.00484593  1
  Zn  Zn100  1  0.38080240  -0.00166424  0.36816278  1
  Zn  Zn101  1  0.87302386  0.12985966  0.74536969  1
  Zn  Zn102  1  0.25253123  0.74360056  -0.00349166  1
  Zn  Zn103  1  0.62199583  0.62110527  -0.00027307  1
  Zn  Zn104  1  0.49873382  0.12058908  0.12393123  1
  Zn  Zn105  1  0.00523204  0.25404349  0.24393207  1
  Zn  Zn106  1  0.62300798  0.00315165  0.62716485  1
  Zn  Zn107  1  0.18930054  0.18590899  0.18535753  1
  Zn  Zn108  1  0.18573607  0.18939229  0.68635361  1
  Zn  Zn109  1  0.18690620  0.67994850  0.18919840  1
  Zn  Zn110  1  0.18665865  0.68998779  0.68651325  1
  Zn  Zn111  1  0.69487328  0.10101666  0.19172919  1
  Zn  Zn112  1  0.68054725  0.18794681  0.68529726  1
  Zn  Zn113  1  0.68868414  0.79818708  0.18922699  1
  Zn  Zn114  1  0.68670097  0.68580456  0.69147119  1
  Zn  Zn115  1  0.31880230  0.30795813  0.31243367  1
  Zn  Zn116  1  0.31033916  0.31906879  0.81933326  1
  Zn  Zn117  1  0.31439388  0.80866647  0.30902875  1
  Zn  Zn118  1  0.30903883  0.81560666  0.81398401  1
  Zn  Zn119  1  0.81255852  0.30852324  0.31052969  1
  Zn  Zn120  1  0.80960567  0.31228005  0.81055849  1
  Zn  Zn121  1  0.82175971  0.80752203  0.31943237  1
  Zn  Zn122  1  0.80771060  0.81040094  0.81150027  1
  Zn  Zn123  1  0.31970071  0.43548957  0.44087963  1
  Zn  Zn124  1  0.18667432  0.43468879  0.94111385  1
  Zn  Zn125  1  0.18592308  0.93816057  0.43648624  1
  Zn  Zn126  1  0.19107663  0.93654112  0.94063969  1
  Zn  Zn127  1  0.67937332  0.43300614  0.43722850  1
  Zn  Zn128  1  0.68756111  0.43559924  0.93772150  1
  Zn  Zn129  1  0.69336697  0.94399905  0.31028788  1
  Zn  Zn130  1  0.68865711  0.93708048  0.93393098  1
  Zn  Zn131  1  0.31252053  0.05894308  0.06133824  1
  Zn  Zn132  1  0.31483514  0.06373155  0.56184548  1
  Zn  Zn133  1  0.31295187  0.55570960  0.06756376  1
  Zn  Zn134  1  0.30815329  0.56744850  0.56919469  1
  Zn  Zn135  1  0.81179434  0.05484273  0.05912666  1
  Zn  Zn136  1  0.81376918  0.06081019  0.55903474  1
  Zn  Zn137  1  0.80768820  0.56195936  0.06155112  1
  Zn  Zn138  1  0.81201402  0.55992260  0.56319110  1
  Zn  Zn139  1  0.43583843  0.43134062  0.18990428  1
  Zn  Zn140  1  0.43529514  0.44039309  0.68960149  1
  Zn  Zn141  1  0.44020163  0.93830478  0.18090125  1
  Zn  Zn142  1  0.43526826  0.93962598  0.68597187  1
  Zn  Zn143  1  0.92991985  0.44044880  0.18257316  1
  Zn  Zn144  1  0.93754392  0.43662109  0.68892277  1
  Zn  Zn145  1  0.93623632  0.93967263  0.18867136  1
  Zn  Zn146  1  0.93723354  0.94044514  0.68777449  1
  Zn  Zn147  1  0.06285079  0.06245759  0.30999349  1
  Zn  Zn148  1  0.06268696  0.06571035  0.81266030  1
  Zn  Zn149  1  0.05742633  0.57055381  0.31172814  1
  Zn  Zn150  1  0.06181112  0.56645526  0.81266916  1
  Zn  Zn151  1  0.55934917  0.07192782  0.31823398  1
  Zn  Zn152  1  0.56325502  0.06673112  0.81161925  1
  Zn  Zn153  1  0.55578168  0.56122675  0.30753607  1
  Zn  Zn154  1  0.56645739  0.56728007  0.81003524  1
  Zn  Zn155  1  0.43752031  0.18406096  0.42989730  1
  Zn  Zn156  1  0.43901633  0.18697978  0.93699968  1
  Zn  Zn157  1  0.43488093  0.68525841  0.43795886  1
  Zn  Zn158  1  0.43840107  0.68376210  0.94038498  1
  Zn  Zn159  1  0.93791947  0.19086563  0.43728107  1
  Zn  Zn160  1  0.93911256  0.18539116  0.93796934  1
  Zn  Zn161  1  0.93391558  0.68847600  0.43756837  1
  Zn  Zn162  1  0.93771170  0.68964630  0.93871988  1
  Zn  Zn163  1  0.06139897  0.31462303  0.05712024  1
  Zn  Zn164  1  0.06822387  0.31418656  0.56160133  1
  Zn  Zn165  1  0.06293242  0.80859783  0.06319285  1
  Zn  Zn166  1  0.06401124  0.81433377  0.56422820  1
  Zn  Zn167  1  0.56533876  0.30550510  0.06752611  1
  Zn  Zn168  1  0.56105539  0.31242344  0.56393880  1
  Zn  Zn169  1  0.55504902  0.80281445  0.05873837  1
  Zn  Zn170  1  0.56252252  0.81448269  0.56187862  1
  O  O171  1  0.12004663  0.11731509  0.11787235  1
  O  O172  1  0.11707456  0.12594898  0.61333823  1
  O  O173  1  0.11512259  0.61206363  0.11793243  1
  O  O174  1  0.11278318  0.62448927  0.62217970  1
  O  O175  1  0.62317503  0.13904870  0.10531543  1
  O  O176  1  0.61154040  0.12313454  0.62057863  1
  O  O177  1  0.61334271  0.61045175  0.12562589  1
  O  O178  1  0.61570757  0.61766193  0.62799732  1
  O  O179  1  0.38894013  0.37181133  0.37410212  1
  O  O180  1  0.37372803  0.39002476  0.88716467  1
  O  O181  1  0.36986562  0.87581803  0.38841350  1
  O  O182  1  0.36469437  0.88494933  0.88496284  1
  O  O183  1  0.88144823  0.38018585  0.38178768  1
  O  O184  1  0.86828401  0.37169855  0.88809861  1
  O  O185  1  0.88667108  0.88352873  0.38143386  1
  O  O186  1  0.87263469  0.88689871  0.86716916  1
  O  O187  1  0.24661643  -0.00190009  0.35865215  1
  O  O188  1  0.25527719  0.00755541  0.86921878  1
  O  O189  1  0.23617969  0.48257209  0.37018297  1
  O  O190  1  0.25224700  0.49777625  0.86603362  1
  O  O191  1  0.76192406  0.01133894  0.38088300  1
  O  O192  1  0.75788738  0.00739572  0.86837825  1
  O  O193  1  0.75001487  0.50303400  0.37035595  1
  O  O194  1  0.74132571  0.50943230  0.86626832  1
  O  O195  1  0.23733364  0.48778923  0.12233881  1
  O  O196  1  0.24271837  0.49506918  0.63887947  1
  O  O197  1  0.24321843  0.99075148  0.13153146  1
  O  O198  1  0.24826006  0.99576067  0.63292730  1
  O  O199  1  0.74377649  0.49163480  0.13264146  1
  O  O200  1  0.74276535  0.49202827  0.63169573  1
  O  O201  1  0.73420189  1.01671262  0.12548161  1
  O  O202  1  0.74958884  0.99250007  0.62956403  1
  O  O203  1  -0.00744479  0.37775305  0.26022755  1
  O  O204  1  0.01280248  0.36996908  0.74465310  1
  O  O205  1  -0.00187476  0.87478731  0.26468418  1
  O  O206  1  0.01123678  0.86776211  0.74242860  1
  O  O207  1  0.49455630  0.35883735  0.25742915  1
  O  O208  1  0.51146648  0.36962572  0.74414310  1
  O  O209  1  0.48772674  0.85619369  0.24979109  1
  O  O210  1  0.51096580  0.87121000  0.74454458  1
  O  O211  1  0.48772483  0.13540384  0.25051171  1
  O  O212  1  0.50438969  0.13649957  0.74116356  1
  O  O213  1  0.48902979  0.63052254  0.24196131  1
  O  O214  1  0.49003167  0.62993052  0.74250783  1
  O  O215  1  0.99987969  0.12615579  0.23429193  1
  O  O216  1  1.00174098  0.13470181  0.73939764  1
  O  O217  1  0.98330171  0.62033536  0.24071263  1
  O  O218  1  0.99831240  0.63413451  0.74250257  1
  O  O219  1  0.37333882  0.26585883  -0.00947353  1
  O  O220  1  0.36078840  0.24122799  0.49936393  1
  O  O221  1  0.37124365  0.75224001  0.00705673  1
  O  O222  1  0.36861487  0.75694797  0.50714256  1
  O  O223  1  0.87382906  0.25661138  0.00678064  1
  O  O224  1  0.86820593  0.26401034  0.49823024  1
  O  O225  1  0.86193584  0.74609849  0.00554971  1
  O  O226  1  0.86655779  0.75073294  0.50955316  1
  O  O227  1  0.13260549  0.24537041  0.49003495  1
  O  O228  1  0.12601583  0.24341273  0.99094646  1
  O  O229  1  0.13214620  0.74392499  0.50161984  1
  O  O230  1  0.12456203  0.73966853  0.99233649  1
  O  O231  1  0.64048786  0.25227465  0.50370436  1
  O  O232  1  0.62978597  0.24420199  0.98955021  1
  O  O233  1  0.62807121  0.74672509  0.49273423  1
  O  O234  1  0.63485077  0.74534285  0.99133057  1
  O  O235  1  0.49879419  0.24552559  0.13858838  1
  O  O236  1  0.49580612  0.24458673  0.63250159  1
  O  O237  1  0.49111896  0.73965269  0.13716994  1
  O  O238  1  0.49405123  0.74440182  0.63277738  1
  O  O239  1  0.99572474  0.24304571  0.12238915  1
  O  O240  1  1.00743747  0.24415576  0.63316019  1
  O  O241  1  0.99153917  0.73545882  0.11999855  1
  O  O242  1  0.99581212  0.74528986  0.63376416  1
  O  O243  1  0.00808836  0.26188857  0.37446581  1
  O  O244  1  0.01432874  0.24013834  0.86583426  1
  O  O245  1  -0.00360036  0.76521366  0.37748981  1
  O  O246  1  0.00750500  0.74712063  0.86321449  1
  O  O247  1  0.50119437  0.25637159  0.36658934  1
  O  O248  1  0.51238575  0.24383599  0.86676363  1
  O  O249  1  0.50661655  0.74477903  0.36606205  1
  O  O250  1  0.50949054  0.74261464  0.86824678  1
  O  O251  1  0.24059612  0.12967350  0.49830274  1
  O  O252  1  0.24447104  0.12689337  0.99370965  1
  O  O253  1  0.23711876  0.63778808  0.51188791  1
  O  O254  1  0.23519701  0.62135302  1.00636628  1
  O  O255  1  0.75367449  0.13607336  0.49553164  1
  O  O256  1  0.74197724  0.13235095  0.98954894  1
  O  O257  1  0.74749227  0.62795017  0.49237277  1
  O  O258  1  0.74480817  0.62992079  0.99228839  1
  O  O259  1  0.25759688  0.37258115  0.00653936  1
  O  O260  1  0.24882884  0.36648432  0.51032738  1
  O  O261  1  0.25851299  0.87185689  0.01227414  1
  O  O262  1  0.25395614  0.87285464  0.50850226  1
  O  O263  1  0.75658459  0.36920394  0.00629367  1
  O  O264  1  0.75692087  0.37190869  0.50783970  1
  O  O265  1  0.75000748  0.86044432  -0.00624985  1
  O  O266  1  0.75213066  0.86589246  0.51690264  1
  O  O267  1  0.12503392  0.49961542  0.24663442  1
  O  O268  1  0.12936540  0.49565711  0.74849396  1
  O  O269  1  0.13235346  1.00500921  0.23557002  1
  O  O270  1  0.13307683  0.99375122  0.75070079  1
  O  O271  1  0.63571579  0.50224354  0.24242207  1
  O  O272  1  0.63180141  0.49437667  0.74194757  1
  O  O273  1  0.63101663  1.01802310  0.25013107  1
  O  O274  1  0.63147587  0.99173989  0.75132312  1
  O  O275  1  0.36797912  0.00419659  0.24872371  1
  O  O276  1  0.36158026  -0.00732033  0.75872534  1
  O  O277  1  0.37793475  0.51082811  0.24849535  1
  O  O278  1  0.36825301  0.50613531  0.76252209  1
  O  O279  1  0.88082926  0.00539012  0.26367139  1
  O  O280  1  0.86994583  0.00627038  0.75633648  1
  O  O281  1  0.86371871  0.50568080  0.25531866  1
  O  O282  1  0.86085584  0.49913968  0.74774155  1
  O  O283  1  0.11793481  0.37057323  0.36446065  1
  O  O284  1  0.12866966  0.36519195  0.86726468  1
  O  O285  1  0.11050397  0.87175665  0.37984264  1
  O  O286  1  0.12997977  0.86933088  0.86493053  1
  O  O287  1  0.60996268  0.36810578  0.37506563  1
  O  O288  1  0.63015354  0.36577098  0.86538032  1
  O  O289  1  0.62679532  0.86724029  0.37883440  1
  O  O290  1  0.63025471  0.86167004  0.86560224  1
  O  O291  1  0.37765280  0.11636727  0.13698928  1
  O  O292  1  0.38525849  0.12930410  0.62581584  1
  O  O293  1  0.37871621  0.63182569  0.12602147  1
  O  O294  1  0.38021506  0.63321137  0.63781538  1
  O  O295  1  0.88374953  0.13369743  0.12137923  1
  O  O296  1  0.88824781  0.12430303  0.62398247  1
  O  O297  1  0.87825317  0.62736571  0.13075977  1
  O  O298  1  0.88535361  0.62898980  0.62683130  1
  O  O299  1  0.23986067  0.26733824  0.12364595  1
  O  O300  1  0.24927117  0.25863668  0.61813851  1
  O  O301  1  0.25594605  0.75283353  0.12318225  1
  O  O302  1  0.25402447  0.75995043  0.61935766  1
  O  O303  1  0.76069274  0.25712660  0.11644906  1
  O  O304  1  0.74834410  0.26322041  0.62319490  1
  O  O305  1  0.75862368  0.74390266  0.11016515  1
  O  O306  1  0.75457103  0.75370889  0.62472322  1
  O  O307  1  0.24218028  0.24938071  0.38112251  1
  O  O308  1  0.24020429  0.24237515  0.87349114  1
  O  O309  1  0.24859980  0.75749368  0.39007641  1
  O  O310  1  0.23581641  0.75034006  0.87590366  1
  O  O311  1  0.75138869  0.24858131  0.38770534  1
  O  O312  1  0.74104784  0.24341470  0.87651779  1
  O  O313  1  0.74190482  0.74034866  0.38242253  1
  O  O314  1  0.74488047  0.74263507  0.88330120  1
  O  O315  1  0.00696870  0.11837056  0.00899430  1
  O  O316  1  0.00683066  0.12222236  0.50427755  1
  O  O317  1  0.00416624  0.61728218  0.00558194  1
  O  O318  1  0.00302953  0.62280905  0.50784045  1
  O  O319  1  0.51332019  0.12361372  -0.00222917  1
  O  O320  1  0.49691242  0.11381329  0.50613102  1
  O  O321  1  0.50267904  0.63007746  0.01875207  1
  O  O322  1  0.49887652  0.62478048  0.51541564  1
  O  O323  1  0.49953335  0.37410398  0.48893154  1
  O  O324  1  0.48843287  0.37090440  1.00613749  1
  O  O325  1  0.48908502  0.88869425  0.51028607  1
  O  O326  1  0.48442755  0.87166162  0.99859044  1
  O  O327  1  0.99465152  0.37975891  0.49407014  1
  O  O328  1  0.98919293  0.38624562  1.00269376  1
  O  O329  1  1.00017512  0.88463349  0.49600252  1
  O  O330  1  1.00603168  0.88725275  1.00061103  1
  O  O331  1  0.50663035  0.48348409  0.37725021  1
  O  O332  1  0.49125325  0.50240550  0.87176825  1
  O  O333  1  0.49841810  1.00241737  0.38995334  1
  O  O334  1  0.48542082  1.00562655  0.87320087  1
  O  O335  1  0.99422496  0.49469898  0.38053303  1
  O  O336  1  0.99871186  0.50385263  0.88430694  1
  O  O337  1  0.99864633  0.99142577  0.38064565  1
  O  O338  1  0.99116304  1.00763460  0.88249080  1
  O  O339  1  0.00589799  0.00462167  0.11863342  1
  O  O340  1  0.00274538  0.00846589  0.61639790  1
  O  O341  1  0.00279397  0.50820650  0.11986035  1
  O  O342  1  0.00364386  0.50918811  0.62305995  1
  O  O343  1  0.51180193  0.00170814  0.12012944  1
  O  O344  1  0.49792434  0.00847601  0.61923684  1
  O  O345  1  0.50916888  0.50271215  0.13360389  1
  O  O346  1  0.50694481  0.50794410  0.62834226  1
  O  O347  1  0.24677380  0.37615492  0.24688824  1
  O  O348  1  0.23928567  0.38258145  0.74728165  1
  O  O349  1  0.25668272  0.87928638  0.23636082  1
  O  O350  1  0.24204811  0.88239277  0.74309738  1
  O  O351  1  0.75671403  0.38274758  0.24098847  1
  O  O352  1  0.74185877  0.38070107  0.74399952  1
  O  O353  1  0.75000871  0.86376010  0.25712997  1
  O  O354  1  0.74018861  0.87758601  0.74076303  1
  O  O355  1  0.25907801  0.11603320  0.24730672  1
  O  O356  1  0.24340474  0.11622269  0.75748559  1
  O  O357  1  0.26716565  0.62382084  0.24663837  1
  O  O358  1  0.25980193  0.61853586  0.74558733  1
  O  O359  1  0.76088230  0.14441096  0.27158039  1
  O  O360  1  0.74982224  0.12151533  0.75435083  1
  O  O361  1  0.75915049  0.61486583  0.25990436  1
  O  O362  1  0.75181919  0.61588522  0.75736266  1
  O  O363  1  0.37004374  0.11911633  0.35908144  1
  O  O364  1  0.36193619  0.11749235  0.88103948  1
  O  O365  1  0.37574654  0.62176607  0.36593566  1
  O  O366  1  0.37677438  0.61279215  0.87040905  1
  O  O367  1  0.87338663  0.11759618  0.37707032  1
  O  O368  1  0.86194773  0.12556732  0.87269014  1
  O  O369  1  0.86462885  0.62024402  0.36936581  1
  O  O370  1  0.86212104  0.62928320  0.87353789  1
  O  O371  1  0.12631165  0.38680979  0.12115782  1
  O  O372  1  0.13447454  0.38143407  0.63289919  1
  O  O373  1  0.13337894  0.88125846  0.12062819  1
  O  O374  1  0.13573112  0.87752377  0.63369610  1
  O  O375  1  0.63868909  0.37761927  0.12101680  1
  O  O376  1  0.63142325  0.38214842  0.63222991  1
  O  O377  1  0.62422899  0.85982563  0.12202063  1
  O  O378  1  0.63201981  0.87610986  0.63372025  1
  O  O379  1  0.12335390  0.24229652  0.26348727  1
  O  O380  1  0.11850205  0.25824580  0.75550322  1
  O  O381  1  0.11503032  0.73599340  0.25191515  1
  O  O382  1  0.11920143  0.75671312  0.75649403  1
  O  O383  1  0.60981228  0.24247872  0.24958669  1
  O  O384  1  0.61783758  0.25899400  0.75557244  1
  O  O385  1  0.60858065  0.74555998  0.26108773  1
  O  O386  1  0.61944138  0.75663695  0.75636268  1
  O  O387  1  0.37549297  0.23536556  0.24564949  1
  O  O388  1  0.38768380  0.25895883  0.75581418  1
  O  O389  1  0.38206891  0.73950199  0.24534554  1
  O  O390  1  0.37653664  0.74402559  0.75028421  1
  O  O391  1  0.88229124  0.25164706  0.23472396  1
  O  O392  1  0.89080283  0.25248921  0.75420566  1
  O  O393  1  0.87964121  0.73956761  0.24127253  1
  O  O394  1  0.88253784  0.74861407  0.74516967  1
  O  O395  1  0.37332992  0.50123239  0.51134239  1
  O  O396  1  0.37542251  0.49529899  0.98838172  1
  O  O397  1  0.38065213  0.99253718  0.49758787  1
  O  O398  1  0.37704547  0.99011874  0.99286946  1
  O  O399  1  0.87952259  0.49125607  0.49414533  1
  O  O400  1  0.88207962  0.49194429  1.00478817  1
  O  O401  1  0.88859663  1.00011507  0.49184985  1
  O  O402  1  0.88556662  1.00433244  0.98788161  1
  O  O403  1  0.12098809  0.00453670  0.00811725  1
  O  O404  1  0.11628776  0.00935781  0.50035094  1
  O  O405  1  0.11455214  0.50345485  0.00541313  1
  O  O406  1  0.11538212  0.51275145  0.51209915  1
  O  O407  1  0.62427166  0.01392885  -0.01115125  1
  O  O408  1  0.60775040  -0.00066097  0.50544979  1
  O  O409  1  0.62898614  0.49964180  0.01286443  1
  O  O410  1  0.62284529  0.50163528  0.51475833  1
  O  O411  1  0.36632592  0.38338578  0.10922454  1
  O  O412  1  0.35978471  0.37281443  0.63555458  1
  O  O413  1  0.36952401  0.86036251  0.11900095  1
  O  O414  1  0.36291634  0.87118676  0.62095392  1
  O  O415  1  0.86599852  0.36919519  0.11649404  1
  O  O416  1  0.86582797  0.38203534  0.61607864  1
  O  O417  1  0.88326006  0.86090740  0.12695160  1
  O  O418  1  0.86743600  0.86884266  0.62628761  1
  O  O419  1  0.12428923  0.13225843  0.38429688  1
  O  O420  1  0.13538110  0.12975719  0.88039606  1
  O  O421  1  0.11780152  0.62837462  0.38997231  1
  O  O422  1  0.12080348  0.63351303  0.88455155  1
  O  O423  1  0.63588411  0.13252660  0.38509840  1
  O  O424  1  0.63547386  0.13239844  0.87908441  1
  O  O425  1  0.63334970  0.62400055  0.37500151  1
  O  O426  1  0.63428271  0.63607138  0.87335127  1
