# generated using pymatgen
data_V85Zn86O256
_symmetry_space_group_name_H-M   'P 1'
_cell_length_a   16.92915208
_cell_length_b   16.92704212
_cell_length_c   16.91700736
_cell_angle_alpha   90.04246436
_cell_angle_beta   89.95574484
_cell_angle_gamma   89.92869566
_symmetry_Int_Tables_number   1
_chemical_formula_structural   V85Zn86O256
_chemical_formula_sum   'V85 Zn86 O256'
_cell_volume   4847.73905195
_cell_formula_units_Z   1
loop_
 _symmetry_equiv_pos_site_id
 _symmetry_equiv_pos_as_xyz
  1  'x, y, z'
loop_
 _atom_site_type_symbol
 _atom_site_label
 _atom_site_symmetry_multiplicity
 _atom_site_fract_x
 _atom_site_fract_y
 _atom_site_fract_z
 _atom_site_occupancy
  V  V0  1  -0.01182180  0.00085843  -0.00360148  1
  V  V1  1  0.13201581  0.00691608  0.63124279  1
  V  V2  1  0.73824587  0.63203458  0.37913329  1
  V  V3  1  0.12271524  0.37369037  0.74941339  1
  V  V4  1  0.37110096  0.12558084  0.25969265  1
  V  V5  1  0.75078545  0.62481359  0.86686668  1
  V  V6  1  0.63184523  0.49133951  0.12359147  1
  V  V7  1  0.62473536  0.75105112  0.87249083  1
  V  V8  1  0.50232273  0.24475467  0.74601228  1
  V  V9  1  0.11818667  0.37779537  0.25153250  1
  V  V10  1  0.62934336  0.37629516  0.73777643  1
  V  V11  1  0.49953689  0.87597476  0.87354879  1
  V  V12  1  -0.00356797  -0.00159996  0.50464287  1
  V  V13  1  0.38034113  0.24537300  0.62344773  1
  V  V14  1  0.62673157  0.24975855  0.87290231  1
  V  V15  1  0.37088016  0.74307600  0.61755208  1
  V  V16  1  0.87428173  0.50180563  0.38946109  1
  V  V17  1  0.75658684  -0.00398125  0.75480551  1
  V  V18  1  0.49935681  0.49887956  -0.00057036  1
  V  V19  1  0.24752923  0.24703410  -0.00047363  1
  V  V20  1  0.88298702  0.74666487  0.12658192  1
  V  V21  1  0.89104984  0.62832794  0.73862587  1
  V  V22  1  0.12010616  0.24775898  0.87239474  1
  V  V23  1  -0.00741396  0.37497101  0.39105684  1
  V  V24  1  0.62074067  0.00231731  0.12834819  1
  V  V25  1  0.37510715  0.75199659  0.12731942  1
  V  V26  1  0.49685619  0.74363608  0.74522903  1
  V  V27  1  -0.00238777  0.50307562  0.00506249  1
  V  V28  1  0.12360410  0.11806423  0.00372684  1
  V  V29  1  0.62857039  0.87260385  0.74170369  1
  V  V30  1  0.87642937  0.12539477  0.75467017  1
  V  V31  1  0.87339183  -0.00859399  0.38305315  1
  V  V32  1  0.87160578  0.25485876  0.12776855  1
  V  V33  1  0.12664846  0.24512136  0.37466985  1
  V  V34  1  0.62655172  0.25101397  0.37525566  1
  V  V35  1  0.25150703  0.87687757  0.62010506  1
  V  V36  1  0.75274771  0.12527794  0.38036832  1
  V  V37  1  0.24741956  0.50588408  0.25115576  1
  V  V38  1  0.11884952  0.87733304  0.25265663  1
  V  V39  1  0.75325768  0.49455246  0.24882044  1
  V  V40  1  0.25123712  0.24257749  0.49636740  1
  V  V41  1  0.11684874  0.50334326  0.61329236  1
  V  V42  1  -0.00136874  0.13071746  0.63026426  1
  V  V43  1  0.37178165  0.12138585  0.74761336  1
  V  V44  1  0.62283280  0.12758164  0.50757405  1
  V  V45  1  0.88597451  0.75899695  0.61748709  1
  V  V46  1  0.50233588  0.24389434  0.24598746  1
  V  V47  1  0.50348125  0.87334852  0.37730259  1
  V  V48  1  0.75116208  -0.00099712  0.25047809  1
  V  V49  1  0.49936842  0.00306444  0.00340115  1
  V  V50  1  0.50140983  0.37783736  0.37647204  1
  V  V51  1  0.12066917  0.74937250  0.86530677  1
  V  V52  1  0.11917290  0.62868080  0.00584528  1
  V  V53  1  0.49966360  0.62470959  0.12487662  1
  V  V54  1  0.36735919  -0.00052020  0.87096737  1
  V  V55  1  0.00433381  0.73524661  0.25398967  1
  V  V56  1  0.24938541  0.63465938  0.39157441  1
  V  V57  1  0.74680816  0.49856694  0.73241101  1
  V  V58  1  0.12083120  0.50303608  0.12657426  1
  V  V59  1  0.87475958  0.26307989  0.62856231  1
  V  V60  1  -0.00039475  0.12012519  0.12742308  1
  V  V61  1  0.24431624  0.00459957  0.25899174  1
  V  V62  1  0.50920845  0.75042524  0.25321444  1
  V  V63  1  0.74859591  0.25845313  0.00351183  1
  V  V64  1  0.37781861  0.23929086  0.12303249  1
  V  V65  1  0.62212153  0.12447007  0.00168123  1
  V  V66  1  0.37611623  0.49941868  0.37892973  1
  V  V67  1  0.49864357  0.00146971  0.50560071  1
  V  V68  1  0.25193554  0.62388057  0.87386903  1
  V  V69  1  0.24753162  0.37454434  0.12606527  1
  V  V70  1  0.62562251  0.62519884  -0.00099432  1
  V  V71  1  0.55763526  0.55925212  0.56251477  1
  V  V72  1  0.37398330  0.37312944  -0.00023610  1
  V  V73  1  0.24705143  0.75180004  0.00160517  1
  V  V74  1  0.75443464  0.26406152  0.50486375  1
  V  V75  1  0.62975616  0.00167268  0.62696352  1
  V  V76  1  0.74017166  0.75902170  0.50745153  1
  V  V77  1  0.24254272  0.88290528  0.12774228  1
  V  V78  1  0.13041163  0.88179720  0.75320350  1
  V  V79  1  0.75273389  0.75093516  0.00184345  1
  V  V80  1  -0.00797542  0.87526652  0.87045503  1
  V  V81  1  -0.00282951  0.37353388  0.87361578  1
  V  V82  1  0.87452126  0.50222617  0.87369800  1
  V  V83  1  0.37457101  0.87745354  0.00093464  1
  V  V84  1  0.25109371  0.37433103  0.62394292  1
  Zn  Zn85  1  -0.00261409  0.24855635  0.25164893  1
  Zn  Zn86  1  0.38029530  0.37566680  0.50220436  1
  Zn  Zn87  1  0.37344017  0.49861414  0.87435989  1
  Zn  Zn88  1  0.37840843  0.61841626  0.74713694  1
  Zn  Zn89  1  0.75122687  0.87464916  0.12611558  1
  Zn  Zn90  1  0.75639605  0.12192458  0.87787592  1
  Zn  Zn91  1  0.86982679  0.37883924  0.00359813  1
  Zn  Zn92  1  0.12604463  0.12424299  0.49725468  1
  Zn  Zn93  1  0.62712587  0.87274958  0.25229842  1
  Zn  Zn94  1  0.37156836  0.87373726  0.49719680  1
  Zn  Zn95  1  0.62896542  0.37070064  0.24527753  1
  Zn  Zn96  1  0.37449082  0.62508215  0.25049902  1
  Zn  Zn97  1  0.87295840  0.87710590  -0.00242274  1
  Zn  Zn98  1  0.24485434  0.11962396  0.87088803  1
  Zn  Zn99  1  0.87754442  0.62108371  0.24807937  1
  Zn  Zn100  1  0.06399586  0.65795288  0.54574738  1
  Zn  Zn101  1  0.25305761  0.49936827  0.74904068  1
  Zn  Zn102  1  -0.00030167  0.87395438  0.38081982  1
  Zn  Zn103  1  0.13015246  0.75415665  0.39452259  1
  Zn  Zn104  1  0.49916590  0.37464746  0.87234580  1
  Zn  Zn105  1  0.37265019  0.00264132  0.38023115  1
  Zn  Zn106  1  0.87626352  0.12550487  0.25258792  1
  Zn  Zn107  1  0.18564867  0.18695568  0.18775704  1
  Zn  Zn108  1  0.18970696  0.18999268  0.68925205  1
  Zn  Zn109  1  0.18451827  0.69032798  0.19041452  1
  Zn  Zn110  1  0.19104762  0.68790142  0.68504274  1
  Zn  Zn111  1  0.68911223  0.18303808  0.18672287  1
  Zn  Zn112  1  0.69339487  0.18617379  0.68642746  1
  Zn  Zn113  1  0.69110749  0.68053491  0.18711356  1
  Zn  Zn114  1  0.68577533  0.68376740  0.67696576  1
  Zn  Zn115  1  0.31117565  0.31431230  0.31142951  1
  Zn  Zn116  1  0.31035432  0.30945572  0.81210944  1
  Zn  Zn117  1  0.31611917  0.81602759  0.31285646  1
  Zn  Zn118  1  0.30971536  0.81204573  0.80871370  1
  Zn  Zn119  1  0.81280569  0.31412651  0.31321791  1
  Zn  Zn120  1  0.81166249  0.31221669  0.81103634  1
  Zn  Zn121  1  0.81314907  0.81051410  0.31369999  1
  Zn  Zn122  1  0.81401837  0.80819197  0.80394700  1
  Zn  Zn123  1  0.18984398  0.43387873  0.43701680  1
  Zn  Zn124  1  0.18570311  0.43810727  0.93812925  1
  Zn  Zn125  1  0.18368699  0.93961802  0.43922790  1
  Zn  Zn126  1  0.18328564  0.93815551  0.93968386  1
  Zn  Zn127  1  0.68435036  0.44267598  0.43680773  1
  Zn  Zn128  1  0.68616232  0.43657047  0.93055626  1
  Zn  Zn129  1  0.68495239  0.93474163  0.43844900  1
  Zn  Zn130  1  0.68806739  0.93706959  0.93383551  1
  Zn  Zn131  1  0.30995330  0.06155458  0.06479062  1
  Zn  Zn132  1  0.31275237  0.06398283  0.56434110  1
  Zn  Zn133  1  0.31031701  0.56345555  0.06193760  1
  Zn  Zn134  1  0.31534850  0.55730870  0.56390705  1
  Zn  Zn135  1  0.81022020  0.06778950  0.06445481  1
  Zn  Zn136  1  0.81112021  0.06483063  0.56767925  1
  Zn  Zn137  1  0.81360102  0.56680872  0.06355797  1
  Zn  Zn138  1  0.81186893  0.57034913  0.55928892  1
  Zn  Zn139  1  0.43701331  0.43346397  0.18886565  1
  Zn  Zn140  1  0.43920070  0.43514662  0.68917141  1
  Zn  Zn141  1  0.43642307  0.93910808  0.19027558  1
  Zn  Zn142  1  0.44012621  0.93548663  0.68560208  1
  Zn  Zn143  1  0.93617031  0.43686612  0.18967433  1
  Zn  Zn144  1  0.93937920  0.44197134  0.69018604  1
  Zn  Zn145  1  0.93443589  0.93685249  0.18580703  1
  Zn  Zn146  1  0.94222958  0.93837039  0.69022655  1
  Zn  Zn147  1  0.06031605  0.06079168  0.31229568  1
  Zn  Zn148  1  0.05817631  0.06105878  0.81303783  1
  Zn  Zn149  1  0.04546502  0.58116898  0.37053205  1
  Zn  Zn150  1  0.06759005  0.55755690  0.81322327  1
  Zn  Zn151  1  0.56121632  0.06359429  0.31660354  1
  Zn  Zn152  1  0.56061107  0.06332439  0.81279333  1
  Zn  Zn153  1  0.56264324  0.56161734  0.31073052  1
  Zn  Zn154  1  0.56349995  0.56004481  0.80897287  1
  Zn  Zn155  1  0.44127653  0.18866723  0.43778661  1
  Zn  Zn156  1  0.43979863  0.18549952  0.93345404  1
  Zn  Zn157  1  0.43927699  0.68498879  0.43683103  1
  Zn  Zn158  1  0.43718586  0.68922266  0.93721292  1
  Zn  Zn159  1  0.93718436  0.18780515  0.44396761  1
  Zn  Zn160  1  0.93688506  0.18970920  0.93958404  1
  Zn  Zn161  1  0.92798400  0.69315672  0.43579166  1
  Zn  Zn162  1  0.93743813  0.68870425  0.93362329  1
  Zn  Zn163  1  0.05810845  0.31016956  0.06185042  1
  Zn  Zn164  1  0.06280069  0.31036734  0.56485236  1
  Zn  Zn165  1  0.05923118  0.81458562  0.06388167  1
  Zn  Zn166  1  0.06232336  0.82254429  0.56626570  1
  Zn  Zn167  1  0.56017126  0.31106065  0.06210369  1
  Zn  Zn168  1  0.56247862  0.31554322  0.56105220  1
  Zn  Zn169  1  0.56469137  0.81623909  0.06418922  1
  Zn  Zn170  1  0.55875908  0.80880991  0.56243198  1
  O  O171  1  0.11378108  0.13175744  0.11516680  1
  O  O172  1  0.11818386  0.12262637  0.62814430  1
  O  O173  1  0.12897896  0.62170352  0.11270038  1
  O  O174  1  0.12861699  0.60879623  0.62995052  1
  O  O175  1  0.62724010  0.11232677  0.11637043  1
  O  O176  1  0.62735559  0.11755818  0.61822802  1
  O  O177  1  0.61891120  0.61546247  0.11672971  1
  O  O178  1  0.61004071  0.61730826  0.62996183  1
  O  O179  1  0.38223648  0.38120847  0.37320881  1
  O  O180  1  0.37410660  0.37183703  0.88913916  1
  O  O181  1  0.38604261  0.88087320  0.37729032  1
  O  O182  1  0.37828196  0.88054860  0.87927368  1
  O  O183  1  0.88577435  0.38134715  0.37363230  1
  O  O184  1  0.88214252  0.38087648  0.87703714  1
  O  O185  1  0.87673743  0.88902899  0.37226014  1
  O  O186  1  0.88855527  0.86561351  0.87336492  1
  O  O187  1  0.25276900  -0.00246793  0.36359945  1
  O  O188  1  0.26345504  -0.00124553  0.88003804  1
  O  O189  1  0.25408577  0.50655740  0.36750286  1
  O  O190  1  0.25008654  0.51028359  0.87699695  1
  O  O191  1  0.75421061  0.00672120  0.37294591  1
  O  O192  1  0.74534922  0.00398506  0.86048416  1
  O  O193  1  0.75857718  0.50486397  0.36941635  1
  O  O194  1  0.75616541  0.51248575  0.87447689  1
  O  O195  1  0.24366883  0.49354173  0.12990959  1
  O  O196  1  0.24452807  0.48838311  0.62671605  1
  O  O197  1  0.25554381  0.98829777  0.13589416  1
  O  O198  1  0.23861136  0.99803310  0.62483535  1
  O  O199  1  0.74222359  0.50684965  0.13246175  1
  O  O200  1  0.75480798  0.50306519  0.63380835  1
  O  O201  1  0.74458917  1.00004139  0.13469551  1
  O  O202  1  0.73767021  1.00230423  0.63571532  1
  O  O203  1  0.01030960  0.37178095  0.25353664  1
  O  O204  1  0.00721587  0.38072786  0.76517801  1
  O  O205  1  0.01194832  0.87674402  0.24944151  1
  O  O206  1  0.01515694  0.87979937  0.76005200  1
  O  O207  1  0.50047432  0.36062288  0.25618093  1
  O  O208  1  0.50800150  0.36272253  0.75280030  1
  O  O209  1  0.50077782  0.86768059  0.25616872  1
  O  O210  1  0.50736643  0.86663413  0.75607663  1
  O  O211  1  0.49119854  0.13636052  0.25386698  1
  O  O212  1  0.49114194  0.13754666  0.75467825  1
  O  O213  1  0.49640938  0.63252518  0.24276003  1
  O  O214  1  0.49684529  0.64002156  0.76197126  1
  O  O215  1  0.99831885  0.12721071  0.24099482  1
  O  O216  1  0.99292053  0.12146451  0.73904999  1
  O  O217  1  1.00327596  0.63365954  0.26256060  1
  O  O218  1  0.98856296  0.62028869  0.75591748  1
  O  O219  1  0.37143120  0.25259157  0.00550012  1
  O  O220  1  0.37021272  0.24982277  0.50661604  1
  O  O221  1  0.37017596  0.75773026  0.00927617  1
  O  O222  1  0.37994511  0.75298520  0.51472091  1
  O  O223  1  0.86405484  0.25061909  0.00627143  1
  O  O224  1  0.86664281  0.24657268  0.51516644  1
  O  O225  1  0.86876787  0.74964145  0.00614777  1
  O  O226  1  0.86532401  0.74968225  0.51225402  1
  O  O227  1  0.13269615  0.24977535  0.49294856  1
  O  O228  1  0.12762598  0.24050760  0.99382433  1
  O  O229  1  0.12219031  0.74854107  0.50801756  1
  O  O230  1  0.12815495  0.74421485  0.99527279  1
  O  O231  1  0.63149352  0.24308744  0.49732938  1
  O  O232  1  0.62849776  0.24404158  0.99526296  1
  O  O233  1  0.63928671  0.75030727  0.50901461  1
  O  O234  1  0.63175307  0.74536639  0.99479203  1
  O  O235  1  0.48986247  0.25315821  0.13244576  1
  O  O236  1  0.49150132  0.25320174  0.63173963  1
  O  O237  1  0.49251780  0.74728695  0.12779221  1
  O  O238  1  0.48394291  0.75777682  0.63502670  1
  O  O239  1  0.99092476  0.23885738  0.12401122  1
  O  O240  1  0.98765042  0.24338425  0.62160363  1
  O  O241  1  0.99415860  0.75321099  0.13728770  1
  O  O242  1  0.98855523  0.74375389  0.61540154  1
  O  O243  1  0.00278768  0.26110656  0.37539594  1
  O  O244  1  0.01167545  0.25883620  0.88226228  1
  O  O245  1  -0.00104788  0.75749725  0.36540296  1
  O  O246  1  0.01212686  0.75969755  0.88167192  1
  O  O247  1  0.50802489  0.25395031  0.36631037  1
  O  O248  1  0.50854846  0.25161981  0.86689616  1
  O  O249  1  0.49240199  0.75735052  0.36331727  1
  O  O250  1  0.50548551  0.75773620  0.87106422  1
  O  O251  1  0.24740029  0.13814853  0.50279782  1
  O  O252  1  0.24067737  0.12864224  0.99903963  1
  O  O253  1  0.25442581  0.62405637  0.48962217  1
  O  O254  1  0.24107219  0.63140962  0.99416506  1
  O  O255  1  0.74098041  0.13063943  0.49570368  1
  O  O256  1  0.73801485  0.13205395  0.99702304  1
  O  O257  1  0.75222656  0.63417391  0.48507728  1
  O  O258  1  0.74665366  0.63520867  0.99108832  1
  O  O259  1  0.25473917  0.36883212  0.00568877  1
  O  O260  1  0.25153926  0.36407024  0.51071088  1
  O  O261  1  0.25277474  0.87231448  0.00914599  1
  O  O262  1  0.25094435  0.88299800  0.51521838  1
  O  O263  1  0.74834073  0.36274170  -0.00371013  1
  O  O264  1  0.74589640  0.36182766  0.49279569  1
  O  O265  1  0.75119852  0.86163922  -0.00440883  1
  O  O266  1  0.74910332  0.85832990  0.49251500  1
  O  O267  1  0.13139742  0.49218896  0.24244503  1
  O  O268  1  0.13085789  0.48622524  0.74679894  1
  O  O269  1  0.13222555  0.99257033  0.25307253  1
  O  O270  1  0.12491269  0.99556708  0.74392859  1
  O  O271  1  0.63209724  0.49876642  0.23894663  1
  O  O272  1  0.63467070  0.48844464  0.75668505  1
  O  O273  1  0.63011452  1.00260444  0.24304967  1
  O  O274  1  0.62758899  0.99391414  0.74444040  1
  O  O275  1  0.36856172  0.01094337  0.25128650  1
  O  O276  1  0.38498945  0.00892558  0.75835504  1
  O  O277  1  0.36368446  0.49789845  0.25528160  1
  O  O278  1  0.37262951  0.50042165  0.75649642  1
  O  O279  1  0.86658849  0.00372436  0.25840128  1
  O  O280  1  0.86625699  0.00855907  0.74283383  1
  O  O281  1  0.86718596  0.50098484  0.25394908  1
  O  O282  1  0.86788103  0.51101515  0.75414068  1
  O  O283  1  0.11310215  0.37080977  0.36972417  1
  O  O284  1  0.11925373  0.36908683  0.87023534  1
  O  O285  1  0.12297164  0.87224136  0.36757457  1
  O  O286  1  0.12142352  0.86803895  0.87082060  1
  O  O287  1  0.61827311  0.36912396  0.36898530  1
  O  O288  1  0.62287314  0.36105694  0.86935724  1
  O  O289  1  0.60909423  0.88054354  0.37051778  1
  O  O290  1  0.61953690  0.86904631  0.86574151  1
  O  O291  1  0.37161293  0.13573957  0.13141808  1
  O  O292  1  0.37379934  0.13609938  0.63235619  1
  O  O293  1  0.38079000  0.63449355  0.12326950  1
  O  O294  1  0.36452698  0.63915377  0.62952013  1
  O  O295  1  0.88187313  0.13494198  0.12642758  1
  O  O296  1  0.88209531  0.13177652  0.63424792  1
  O  O297  1  0.87223426  0.64044652  0.12914092  1
  O  O298  1  0.87808261  0.62747961  0.63493850  1
  O  O299  1  0.25667679  0.25552622  0.11957246  1
  O  O300  1  0.25699786  0.25547402  0.61823404  1
  O  O301  1  0.25744218  0.75776836  0.12180219  1
  O  O302  1  0.26312286  0.76147374  0.63200508  1
  O  O303  1  0.75756635  0.24420540  0.11646854  1
  O  O304  1  0.76312063  0.24788044  0.61768583  1
  O  O305  1  0.75440078  0.75088028  0.11627505  1
  O  O306  1  0.75994922  0.74392313  0.61332487  1
  O  O307  1  0.23932054  0.25961861  0.38361777  1
  O  O308  1  0.23692484  0.24864196  0.88246246  1
  O  O309  1  0.25663272  0.73760126  0.37264465  1
  O  O310  1  0.24207675  0.74522962  0.88314382  1
  O  O311  1  0.74637628  0.24293344  0.38134766  1
  O  O312  1  0.74271369  0.24616473  0.88270890  1
  O  O313  1  0.75431244  0.73800450  0.38128380  1
  O  O314  1  0.74622734  0.74041299  0.87772235  1
  O  O315  1  0.00390738  0.11836579  0.00404014  1
  O  O316  1  0.00196718  0.11872831  0.51348590  1
  O  O317  1  0.00865903  0.61648852  -0.00727729  1
  O  O318  1  -0.00279431  0.61194318  0.47055139  1
  O  O319  1  0.51324511  0.11993383  -0.00400636  1
  O  O320  1  0.51480082  0.11850787  0.49423313  1
  O  O321  1  0.50443878  0.61793874  0.00397471  1
  O  O322  1  0.50224341  0.61842990  0.49978061  1
  O  O323  1  0.49806083  0.36619833  0.48142746  1
  O  O324  1  0.49131797  0.38126999  0.99890830  1
  O  O325  1  0.49852645  0.88263967  0.49431960  1
  O  O326  1  0.49414147  0.88083720  0.99376403  1
  O  O327  1  1.00112532  0.37412675  0.48900305  1
  O  O328  1  0.99999570  0.38372165  0.98963442  1
  O  O329  1  0.99948484  0.89403515  0.50121806  1
  O  O330  1  0.99931397  0.88507791  0.99302178  1
  O  O331  1  0.48881329  0.48956091  0.36104500  1
  O  O332  1  0.49912894  0.49780598  0.88851951  1
  O  O333  1  0.49892018  0.99545455  0.38785927  1
  O  O334  1  0.49188336  0.99472800  0.88245891  1
  O  O335  1  0.98438720  0.48402928  0.36807157  1
  O  O336  1  0.99535717  0.49417062  0.88461486  1
  O  O337  1  0.98977112  1.00407030  0.38564231  1
  O  O338  1  1.00302296  0.98918401  0.88449527  1
  O  O339  1  -0.00624148  0.01254348  0.11678830  1
  O  O340  1  0.00934704  0.00850439  0.62217586  1
  O  O341  1  0.00284642  0.49582403  0.11230353  1
  O  O342  1  0.01802291  0.49422408  0.62737647  1
  O  O343  1  0.50714833  -0.00484710  0.11572347  1
  O  O344  1  0.51158492  -0.00382433  0.61377141  1
  O  O345  1  0.50432273  0.50288851  0.11580666  1
  O  O346  1  0.49253789  0.49798630  0.61356684  1
  O  O347  1  0.23967259  0.38402460  0.24657638  1
  O  O348  1  0.24340844  0.37186970  0.73978075  1
  O  O349  1  0.24134907  0.88131544  0.24543137  1
  O  O350  1  0.23819704  0.87509030  0.74264709  1
  O  O351  1  0.74711401  0.38910439  0.25404768  1
  O  O352  1  0.74210715  0.38708577  0.75715347  1
  O  O353  1  0.74700848  0.88707926  0.25285215  1
  O  O354  1  0.74027153  0.88165253  0.75480111  1
  O  O355  1  0.25694575  0.11586189  0.24364399  1
  O  O356  1  0.26639473  0.13149821  0.75388517  1
  O  O357  1  0.25252704  0.61323954  0.24589500  1
  O  O358  1  0.25079419  0.62437242  0.76341080  1
  O  O359  1  0.74954675  0.11408983  0.26109603  1
  O  O360  1  0.75871373  0.11608202  0.75224962  1
  O  O361  1  0.75188974  0.61597684  0.26078914  1
  O  O362  1  0.75138112  0.61791416  0.75509176  1
  O  O363  1  0.37492941  0.12752242  0.36324188  1
  O  O364  1  0.37280702  0.11614748  0.86863170  1
  O  O365  1  0.36541575  0.61726850  0.37059814  1
  O  O366  1  0.36213932  0.62504921  0.87967037  1
  O  O367  1  0.86325588  0.12155022  0.37728010  1
  O  O368  1  0.87781075  0.13253148  0.85973975  1
  O  O369  1  0.86542440  0.61075586  0.37021545  1
  O  O370  1  0.86763793  0.62446454  0.86293357  1
  O  O371  1  0.12751103  0.37834651  0.13156341  1
  O  O372  1  0.13072571  0.37757196  0.63249541  1
  O  O373  1  0.13573708  0.86939319  0.13301742  1
  O  O374  1  0.13095596  0.88637045  0.63541850  1
  O  O375  1  0.62099227  0.38763478  0.12395416  1
  O  O376  1  0.62701315  0.36723145  0.63848545  1
  O  O377  1  0.63017117  0.88903424  0.12620983  1
  O  O378  1  0.62024747  0.88182625  0.63696730  1
  O  O379  1  0.12532823  0.26016829  0.25709478  1
  O  O380  1  0.12749903  0.26191251  0.75855326  1
  O  O381  1  0.11745190  0.75903111  0.25327036  1
  O  O382  1  0.12971862  0.75632674  0.76101176  1
  O  O383  1  0.61823410  0.24814481  0.25233100  1
  O  O384  1  0.62156124  0.25114696  0.75548660  1
  O  O385  1  0.61250924  0.75115836  0.23885047  1
  O  O386  1  0.61936541  0.75621655  0.75113991  1
  O  O387  1  0.37816016  0.24405330  0.24250391  1
  O  O388  1  0.38353480  0.24514560  0.74454649  1
  O  O389  1  0.38195394  0.75127105  0.23692739  1
  O  O390  1  0.38255340  0.74917942  0.74347631  1
  O  O391  1  0.87455013  0.24652742  0.24270348  1
  O  O392  1  0.86783347  0.24192708  0.73711433  1
  O  O393  1  0.88582776  0.74912698  0.24439515  1
  O  O394  1  0.87127269  0.73425430  0.73677201  1
  O  O395  1  0.36709975  0.49328452  0.48335783  1
  O  O396  1  0.38171970  0.49042646  1.00176549  1
  O  O397  1  0.38526281  1.00156936  0.50120494  1
  O  O398  1  0.38009220  0.99647090  0.99461178  1
  O  O399  1  0.86679834  0.49614179  0.48764694  1
  O  O400  1  0.88098585  0.50127935  0.99435759  1
  O  O401  1  0.88066830  1.00846689  0.49459385  1
  O  O402  1  0.88345225  1.00049101  1.00087056  1
  O  O403  1  0.11560099  0.01298427  -0.00294293  1
  O  O404  1  0.11727266  0.00633449  0.50972471  1
  O  O405  1  0.11739973  0.50784411  0.00525794  1
  O  O406  1  0.12875876  0.49445447  0.51363912  1
  O  O407  1  0.62138168  0.00631587  0.00428317  1
  O  O408  1  0.62310397  0.00677778  0.50888306  1
  O  O409  1  0.61946666  0.50377794  0.00353586  1
  O  O410  1  0.62144931  0.50128808  0.50702040  1
  O  O411  1  0.36947376  0.36560174  0.11569386  1
  O  O412  1  0.36771952  0.36280641  0.62484523  1
  O  O413  1  0.36752209  0.86943557  0.12087301  1
  O  O414  1  0.36596537  0.86981129  0.62585295  1
  O  O415  1  0.88166875  0.35998040  0.12139082  1
  O  O416  1  0.87991848  0.36191607  0.63406024  1
  O  O417  1  0.87076025  0.86323464  0.12095813  1
  O  O418  1  0.88091446  0.85712102  0.63589566  1
  O  O419  1  0.11724379  0.14167252  0.37471540  1
  O  O420  1  0.12399137  0.13238352  0.87981710  1
  O  O421  1  0.14685861  0.63154081  0.36968067  1
  O  O422  1  0.13113770  0.63188576  0.88246655  1
  O  O423  1  0.63585213  0.12981088  0.38289199  1
  O  O424  1  0.62572958  0.13550568  0.88059362  1
  O  O425  1  0.63965593  0.62101832  0.37079606  1
  O  O426  1  0.63208846  0.63072120  0.87915314  1
