# generated using pymatgen
data_V85Zn86O256
_symmetry_space_group_name_H-M   'P 1'
_cell_length_a   16.95173424
_cell_length_b   16.94603732
_cell_length_c   16.93340139
_cell_angle_alpha   90.13786868
_cell_angle_beta   89.88109065
_cell_angle_gamma   90.06341686
_symmetry_Int_Tables_number   1
_chemical_formula_structural   V85Zn86O256
_chemical_formula_sum   'V85 Zn86 O256'
_cell_volume   4864.34131681
_cell_formula_units_Z   1
loop_
 _symmetry_equiv_pos_site_id
 _symmetry_equiv_pos_as_xyz
  1  'x, y, z'
loop_
 _atom_site_type_symbol
 _atom_site_label
 _atom_site_symmetry_multiplicity
 _atom_site_fract_x
 _atom_site_fract_y
 _atom_site_fract_z
 _atom_site_occupancy
  V  V0  1  0.25077681  0.63115950  0.87693377  1
  V  V1  1  0.87643713  0.36768265  0.00042873  1
  V  V2  1  -0.00373967  0.50099251  0.50554153  1
  V  V3  1  0.86569575  0.24974294  0.62706547  1
  V  V4  1  0.24156891  -0.01359353  0.75592081  1
  V  V5  1  0.21203377  0.35050521  0.64336630  1
  V  V6  1  0.38626822  0.24661235  0.62874275  1
  V  V7  1  0.00011087  0.88013956  0.87029204  1
  V  V8  1  0.37613580  0.00153847  0.37756643  1
  V  V9  1  0.62864310  -0.00475579  0.63044128  1
  V  V10  1  0.62071659  0.87181567  0.24786676  1
  V  V11  1  0.63141754  0.24694412  0.38018894  1
  V  V12  1  0.49971514  0.87246162  0.87076830  1
  V  V13  1  0.14574725  0.13765811  -0.00748470  1
  V  V14  1  0.37434644  0.87803252  0.50184094  1
  V  V15  1  0.24916264  0.75054624  0.49767199  1
  V  V16  1  -0.00041245  0.01398899  0.00323699  1
  V  V17  1  0.62412190  0.37289326  0.25107873  1
  V  V18  1  0.36879294  -0.00022962  0.87270660  1
  V  V19  1  0.00191225  0.87832540  0.37066859  1
  V  V20  1  0.12870514  0.75676410  0.36540316  1
  V  V21  1  0.49808806  0.87430045  0.37229173  1
  V  V22  1  0.36317420  0.37377006  0.00488621  1
  V  V23  1  0.00203948  0.74330866  0.74159028  1
  V  V24  1  0.87543351  0.50242473  0.87261009  1
  V  V25  1  0.37371174  0.12119015  0.24733445  1
  V  V26  1  0.62016671  0.50352281  0.12840133  1
  V  V27  1  0.00017819  0.49882871  -0.00091102  1
  V  V28  1  0.12505596  0.25039089  0.37590424  1
  V  V29  1  0.50145393  0.61730091  0.61541074  1
  V  V30  1  0.88128775  0.13094519  0.75727080  1
  V  V31  1  0.62585494  0.49018992  0.61703706  1
  V  V32  1  0.25146126  0.62143955  0.36953273  1
  V  V33  1  0.12242349  0.51111621  0.62428285  1
  V  V34  1  0.12734759  0.00344682  0.12867573  1
  V  V35  1  0.87662006  0.49925334  0.37453076  1
  V  V36  1  0.01436530  0.36844245  0.85943295  1
  V  V37  1  0.87671499  0.75082376  0.12432337  1
  V  V38  1  0.76024716  -0.00775105  0.75153260  1
  V  V39  1  0.75009985  0.00107727  0.24979141  1
  V  V40  1  0.11679767  0.62900191  0.49636685  1
  V  V41  1  0.62801945  0.24555294  0.88814996  1
  V  V42  1  0.33440476  0.15391280  0.77211712  1
  V  V43  1  0.87667847  0.13251000  0.23551902  1
  V  V44  1  0.75056580  0.86923096  0.12230870  1
  V  V45  1  0.24568933  0.50142504  0.74412389  1
  V  V46  1  0.75175882  0.36847882  0.12275348  1
  V  V47  1  0.49896756  0.00605604  0.51254117  1
  V  V48  1  0.62398304  0.00299722  0.12126333  1
  V  V49  1  0.25505553  0.24914594  0.50475875  1
  V  V50  1  0.50234378  0.00092882  -0.00330331  1
  V  V51  1  0.75121677  0.62921395  0.37559060  1
  V  V52  1  0.37773555  0.62370190  0.74757605  1
  V  V53  1  0.62547127  0.62659796  0.00505232  1
  V  V54  1  0.87486214  0.62307478  0.24975310  1
  V  V55  1  0.37919438  0.49816779  0.38216666  1
  V  V56  1  0.86302419  0.36732904  0.50384613  1
  V  V57  1  0.87897218  0.87797589  -0.00522241  1
  V  V58  1  0.37822603  0.74325379  0.12770121  1
  V  V59  1  0.50002334  0.24933454  0.25015629  1
  V  V60  1  0.25160741  0.12426541  0.37701375  1
  V  V61  1  0.50034283  0.50119600  0.00223937  1
  V  V62  1  0.12203751  0.12457075  0.50742300  1
  V  V63  1  0.00370746  0.37204511  0.37724447  1
  V  V64  1  0.75389167  0.50034590  0.24865966  1
  V  V65  1  0.50402775  0.37354517  0.87143289  1
  V  V66  1  0.63106849  0.12477881  0.50719970  1
  V  V67  1  0.13661851  0.49690651  0.12661209  1
  V  V68  1  0.87566082  0.00291415  0.37482830  1
  V  V69  1  0.12836949  0.63300487  0.00063875  1
  V  V70  1  0.36051651  0.25331394  0.12330532  1
  V  V71  1  0.62240446  0.74963794  0.37395136  1
  V  V72  1  0.74938000  0.11982923  0.88071745  1
  V  V73  1  0.86718037  0.87541557  0.50736090  1
  V  V74  1  0.00197745  0.75422125  0.24848971  1
  V  V75  1  0.00075270  0.62304998  0.12557904  1
  V  V76  1  0.74859849  0.49479091  0.74584455  1
  V  V77  1  0.12612341  0.75886071  0.87217414  1
  V  V78  1  0.50970420  0.23107867  0.75054739  1
  V  V79  1  0.37578011  0.50132602  0.87485760  1
  V  V80  1  0.50299400  0.12778677  0.11757833  1
  V  V81  1  0.49924357  0.37356901  0.38911176  1
  V  V82  1  0.62710524  0.74792907  0.87289107  1
  V  V83  1  0.37744513  0.74986047  0.62377430  1
  V  V84  1  0.12244506  -0.00788196  0.62980112  1
  Zn  Zn85  1  0.50417363  0.74820573  0.74664795  1
  Zn  Zn86  1  0.86467479  0.74617801  0.62773870  1
  Zn  Zn87  1  0.87863390  0.61951539  0.73551309  1
  Zn  Zn88  1  0.75428376  0.13071819  0.37889937  1
  Zn  Zn89  1  0.00011903  0.12737665  0.63356395  1
  Zn  Zn90  1  0.63683972  0.86460828  0.74027088  1
  Zn  Zn91  1  0.75246124  0.62420371  0.87381983  1
  Zn  Zn92  1  0.74289185  0.75486217  0.51099808  1
  Zn  Zn93  1  0.13287337  0.36165833  0.23590876  1
  Zn  Zn94  1  0.62392549  0.62279793  0.49972281  1
  Zn  Zn95  1  0.00238641  0.24074649  0.23401597  1
  Zn  Zn96  1  -0.00151773  0.00075732  0.50327926  1
  Zn  Zn97  1  0.36459306  0.86330725  -0.00039497  1
  Zn  Zn98  1  0.37498806  0.38039655  0.51322552  1
  Zn  Zn99  1  0.24675347  0.86706995  0.12662969  1
  Zn  Zn100  1  0.39317787  0.62429974  0.24949069  1
  Zn  Zn101  1  0.24097838  -0.00864012  0.25400794  1
  Zn  Zn102  1  0.75276530  0.74813499  -0.00236130  1
  Zn  Zn103  1  0.63393573  0.36862870  0.74768452  1
  Zn  Zn104  1  0.75325368  0.24023363  0.00664358  1
  Zn  Zn105  1  0.24435825  0.87010486  0.62683617  1
  Zn  Zn106  1  0.25666634  0.49158178  0.24871092  1
  Zn  Zn107  1  0.18357673  0.17722081  0.18555112  1
  Zn  Zn108  1  0.18244190  0.18591387  0.70257889  1
  Zn  Zn109  1  0.19371873  0.68725403  0.18684381  1
  Zn  Zn110  1  0.18617381  0.68952676  0.68813034  1
  Zn  Zn111  1  0.68784077  0.18604574  0.18953112  1
  Zn  Zn112  1  0.69136347  0.18119366  0.69024799  1
  Zn  Zn113  1  0.55757298  0.68875455  0.18800485  1
  Zn  Zn114  1  0.69259308  0.68029335  0.68618804  1
  Zn  Zn115  1  0.31217407  0.31421856  0.31130634  1
  Zn  Zn116  1  0.31469854  0.32297850  0.81127058  1
  Zn  Zn117  1  0.31439673  0.81275743  0.29922269  1
  Zn  Zn118  1  0.31460839  0.81232194  0.81226551  1
  Zn  Zn119  1  0.81332249  0.31432319  0.31358049  1
  Zn  Zn120  1  0.81471239  0.31287836  0.81692567  1
  Zn  Zn121  1  0.81207369  0.81376806  0.31276948  1
  Zn  Zn122  1  0.81716169  0.80791902  0.81320679  1
  Zn  Zn123  1  0.19119259  0.43545163  0.44429239  1
  Zn  Zn124  1  0.18575707  0.44328457  0.93637055  1
  Zn  Zn125  1  0.18781618  0.93825169  0.43950224  1
  Zn  Zn126  1  0.18637239  0.93966756  0.94714802  1
  Zn  Zn127  1  0.68700177  0.43835878  0.43590830  1
  Zn  Zn128  1  0.68952443  0.43632731  0.93679593  1
  Zn  Zn129  1  0.68622750  0.94107779  0.43705271  1
  Zn  Zn130  1  0.68666771  0.93635578  0.93493367  1
  Zn  Zn131  1  0.31139126  0.05954337  0.05948961  1
  Zn  Zn132  1  0.31089649  0.06673042  0.57738649  1
  Zn  Zn133  1  0.31630664  0.57234288  0.06115094  1
  Zn  Zn134  1  0.30849918  0.56423864  0.55884780  1
  Zn  Zn135  1  0.81430157  0.05760404  0.06137624  1
  Zn  Zn136  1  0.81118746  0.06238569  0.56808018  1
  Zn  Zn137  1  0.81064185  0.55970533  0.06205205  1
  Zn  Zn138  1  0.81044184  0.56565419  0.56377237  1
  Zn  Zn139  1  0.43599416  0.43726337  0.19259849  1
  Zn  Zn140  1  0.44158715  0.43384073  0.68908696  1
  Zn  Zn141  1  0.43378116  0.93369863  0.18449321  1
  Zn  Zn142  1  0.43572451  0.93875017  0.69179356  1
  Zn  Zn143  1  0.95568403  0.40932401  0.17478085  1
  Zn  Zn144  1  0.93577802  0.43663905  0.68450196  1
  Zn  Zn145  1  0.94005013  0.94140789  0.18464691  1
  Zn  Zn146  1  0.94054653  0.93877438  0.68979703  1
  Zn  Zn147  1  0.05880924  0.06845764  0.31306368  1
  Zn  Zn148  1  0.06624572  0.06134536  0.81908496  1
  Zn  Zn149  1  0.06205610  0.56184005  0.31220855  1
  Zn  Zn150  1  0.06299690  0.56279244  0.81361622  1
  Zn  Zn151  1  0.56157310  0.06208779  0.31368411  1
  Zn  Zn152  1  0.57078703  0.05808187  0.81630093  1
  Zn  Zn153  1  0.56508933  0.55422630  0.32191638  1
  Zn  Zn154  1  0.56479112  0.56275715  0.80865614  1
  Zn  Zn155  1  0.44275292  0.18626506  0.43944167  1
  Zn  Zn156  1  0.43387419  0.18911255  0.93909955  1
  Zn  Zn157  1  0.43845043  0.68787859  0.43454915  1
  Zn  Zn158  1  0.44004607  0.68737783  0.94206127  1
  Zn  Zn159  1  0.93876124  0.18867398  0.44001867  1
  Zn  Zn160  1  0.94096781  0.19284305  0.92997463  1
  Zn  Zn161  1  0.93602307  0.69108379  0.43950644  1
  Zn  Zn162  1  0.94036400  0.68852599  0.93480205  1
  Zn  Zn163  1  0.06298715  0.30976606  0.05765922  1
  Zn  Zn164  1  0.05729693  0.30788626  0.57731729  1
  Zn  Zn165  1  0.06557657  0.81768020  0.06093181  1
  Zn  Zn166  1  0.05765810  0.81536396  0.55566707  1
  Zn  Zn167  1  0.55824142  0.31602408  0.06291622  1
  Zn  Zn168  1  0.56683038  0.30604191  0.56625074  1
  Zn  Zn169  1  0.55713023  0.81567549  0.05634623  1
  Zn  Zn170  1  0.56104346  0.81353849  0.56019898  1
  O  O171  1  0.12428112  0.11525216  0.10952511  1
  O  O172  1  0.12292067  0.11542993  0.62127515  1
  O  O173  1  0.11998396  0.62239968  0.11715104  1
  O  O174  1  0.12896103  0.62013568  0.61129045  1
  O  O175  1  0.61472718  0.11639120  0.13179955  1
  O  O176  1  0.62843092  0.11077064  0.61899133  1
  O  O177  1  0.62207401  0.61693385  0.11533341  1
  O  O178  1  0.61633291  0.61338396  0.62315855  1
  O  O179  1  0.38367546  0.37857678  0.38141663  1
  O  O180  1  0.38305881  0.38187919  0.88088163  1
  O  O181  1  0.38199889  0.88090924  0.37996545  1
  O  O182  1  0.38275617  0.88123591  0.87660294  1
  O  O183  1  0.88380509  0.37819258  0.38321709  1
  O  O184  1  0.88221094  0.38662769  0.88286092  1
  O  O185  1  0.88038237  0.88650991  0.37747352  1
  O  O186  1  0.88362535  0.86903437  0.88806734  1
  O  O187  1  0.25799876  0.00724174  0.37638868  1
  O  O188  1  0.25688472  -0.00700491  0.86849915  1
  O  O189  1  0.25594094  0.50699456  0.37856169  1
  O  O190  1  0.25347857  0.51143438  0.86507611  1
  O  O191  1  0.75651979  -0.00182553  0.36142098  1
  O  O192  1  0.74354751  0.00679214  0.86324088  1
  O  O193  1  0.75535142  0.50625283  0.36925004  1
  O  O194  1  0.75913914  0.50094201  0.86990239  1
  O  O195  1  0.23896222  0.51100266  0.12491330  1
  O  O196  1  0.24071612  0.50045719  0.63044598  1
  O  O197  1  0.23649464  1.00576082  0.12863842  1
  O  O198  1  0.24097325  0.99182154  0.63197523  1
  O  O199  1  0.73653852  0.49532699  0.12939424  1
  O  O200  1  0.73496749  0.50235550  0.63048794  1
  O  O201  1  0.74637351  0.99162306  0.13345961  1
  O  O202  1  0.74409337  1.00034524  0.64196399  1
  O  O203  1  0.01544133  0.38670728  0.27353174  1
  O  O204  1  -0.00003076  0.38310192  0.76081825  1
  O  O205  1  -0.00653964  0.86704163  0.25964994  1
  O  O206  1  -0.00621729  0.86783014  0.76498366  1
  O  O207  1  0.50616266  0.36709283  0.25900322  1
  O  O208  1  0.50443239  0.36871441  0.76415096  1
  O  O209  1  0.50992241  0.88808658  0.26075609  1
  O  O210  1  0.50299978  0.87352265  0.76184099  1
  O  O211  1  0.49370812  0.12891703  0.24187733  1
  O  O212  1  0.50489550  0.13190278  0.75716669  1
  O  O213  1  0.50628917  0.62058119  0.25761350  1
  O  O214  1  0.49176267  0.62497214  0.73964551  1
  O  O215  1  0.98192519  0.12587360  0.24982459  1
  O  O216  1  0.98403189  0.11745656  0.75596797  1
  O  O217  1  0.99426223  0.63411144  0.24672203  1
  O  O218  1  1.00009819  0.63981857  0.75398243  1
  O  O219  1  0.37922547  0.26123822  0.01022575  1
  O  O220  1  0.37103644  0.24368656  0.51117750  1
  O  O221  1  0.38125898  0.74709432  0.01543825  1
  O  O222  1  0.37110138  0.75389162  0.50848394  1
  O  O223  1  0.87465121  0.26467126  -0.00348619  1
  O  O224  1  0.87191885  0.26171238  0.50059727  1
  O  O225  1  0.87634033  0.75672275  0.00755751  1
  O  O226  1  0.87221117  0.76715804  0.49547276  1
  O  O227  1  0.13337124  0.24079270  0.49980967  1
  O  O228  1  0.12653412  0.23711526  1.00427253  1
  O  O229  1  0.12614253  0.74582910  0.48822765  1
  O  O230  1  0.11811637  0.73855122  0.99193220  1
  O  O231  1  0.62100874  0.23681874  0.49357989  1
  O  O232  1  0.62603158  0.25340984  0.99107020  1
  O  O233  1  0.62527496  0.75111805  0.48567931  1
  O  O234  1  0.62504707  0.74122461  0.99461525  1
  O  O235  1  0.49668180  0.24258549  0.13111769  1
  O  O236  1  0.49985885  0.24677211  0.63849737  1
  O  O237  1  0.49204047  0.75561064  0.12522747  1
  O  O238  1  0.49312692  0.74185553  0.62498262  1
  O  O239  1  0.99082014  0.30204226  0.14147229  1
  O  O240  1  0.97632044  0.24037559  0.61642272  1
  O  O241  1  0.99916088  0.74601853  0.13215320  1
  O  O242  1  1.00384133  0.75906462  0.64075507  1
  O  O243  1  0.00907679  0.25686937  0.37542166  1
  O  O244  1  0.00070427  0.26914371  0.87274638  1
  O  O245  1  0.00667007  0.75736040  0.36704979  1
  O  O246  1  0.00846241  0.75672072  0.86766505  1
  O  O247  1  0.50877276  0.25396365  0.36906732  1
  O  O248  1  0.50832615  0.25440792  0.87151777  1
  O  O249  1  0.50606692  0.76560789  0.37995815  1
  O  O250  1  0.50625107  0.75639061  0.87310087  1
  O  O251  1  0.24407832  0.13277344  0.50051272  1
  O  O252  1  0.24598630  0.12821461  0.99596735  1
  O  O253  1  0.23933764  0.63199332  0.48908268  1
  O  O254  1  0.24145973  0.62084918  0.98718570  1
  O  O255  1  0.73588078  0.11269396  0.49524517  1
  O  O256  1  0.75820530  0.12235928  0.98688986  1
  O  O257  1  0.74731722  0.62667986  0.48512757  1
  O  O258  1  0.73781795  0.62480091  0.99820328  1
  O  O259  1  0.26482317  0.38358523  -0.00697071  1
  O  O260  1  0.25029070  0.35904948  0.51592940  1
  O  O261  1  0.25329651  0.88036557  0.01105679  1
  O  O262  1  0.25852755  0.86727888  0.49973741  1
  O  O263  1  0.75828290  0.37426539  0.00647191  1
  O  O264  1  0.76523577  0.37858405  0.49409472  1
  O  O265  1  0.75951059  0.87788682  0.00626158  1
  O  O266  1  0.76419717  0.87675246  0.49207091  1
  O  O267  1  0.12489694  0.50663549  0.23168305  1
  O  O268  1  0.13299071  0.51102787  0.73704938  1
  O  O269  1  0.12066791  1.01342089  0.23367765  1
  O  O270  1  0.12835374  0.99678024  0.74364708  1
  O  O271  1  0.63139465  0.49161439  0.24435592  1
  O  O272  1  0.63246203  0.49568237  0.74173025  1
  O  O273  1  0.63282214  0.99245067  0.24592535  1
  O  O274  1  0.63615096  0.99500690  0.74449425  1
  O  O275  1  0.37850845  0.01217688  0.25513213  1
  O  O276  1  0.36639726  0.00055863  0.76242709  1
  O  O277  1  0.37475463  0.50185838  0.26570116  1
  O  O278  1  0.36921833  0.50467711  0.75488372  1
  O  O279  1  0.86868454  0.00769349  0.25404362  1
  O  O280  1  0.86476891  0.00862087  0.74764039  1
  O  O281  1  0.87350758  0.50348809  0.25753871  1
  O  O282  1  0.86982815  0.50058364  0.75580640  1
  O  O283  1  0.12209896  0.35888149  0.38831228  1
  O  O284  1  0.11364225  0.38340274  0.87422835  1
  O  O285  1  0.11546401  0.86746901  0.37990156  1
  O  O286  1  0.11807330  0.86343377  0.88319494  1
  O  O287  1  0.61796774  0.36801401  0.37289333  1
  O  O288  1  0.61900776  0.36624718  0.87471246  1
  O  O289  1  0.61890399  0.87148489  0.36822968  1
  O  O290  1  0.61872929  0.86130107  0.87537247  1
  O  O291  1  0.38176131  0.13015125  0.13126141  1
  O  O292  1  0.36631489  0.14127116  0.65136477  1
  O  O293  1  0.38052580  0.63403375  0.12931792  1
  O  O294  1  0.38023121  0.62953896  0.62677611  1
  O  O295  1  0.86816573  0.12675085  0.13696616  1
  O  O296  1  0.87418024  0.12835719  0.63924806  1
  O  O297  1  0.88071495  0.62984193  0.12873634  1
  O  O298  1  0.87812286  0.63132874  0.62110052  1
  O  O299  1  0.26238320  0.24604463  0.13393785  1
  O  O300  1  0.26367742  0.25064816  0.62066265  1
  O  O301  1  0.26767832  0.74711767  0.12790344  1
  O  O302  1  0.25731237  0.74926460  0.61691409  1
  O  O303  1  0.74355949  0.26322394  0.12404510  1
  O  O304  1  0.76363985  0.24273370  0.62520581  1
  O  O305  1  0.75557465  0.76519057  0.12194953  1
  O  O306  1  0.74905724  0.75321625  0.62441998  1
  O  O307  1  0.24619625  0.24369955  0.38613507  1
  O  O308  1  0.25890121  0.22576358  0.80143625  1
  O  O309  1  0.24367780  0.74475244  0.37723565  1
  O  O310  1  0.24242841  0.73901681  0.86578634  1
  O  O311  1  0.73503811  0.25078968  0.37074837  1
  O  O312  1  0.74309600  0.24209857  0.87916368  1
  O  O313  1  0.74091336  0.74403295  0.37335617  1
  O  O314  1  0.74215022  0.74633187  0.87806098  1
  O  O315  1  -0.01026100  0.11352562  -0.00278913  1
  O  O316  1  0.01343478  0.12186611  0.49840600  1
  O  O317  1  0.00694270  0.61631453  0.00318818  1
  O  O318  1  0.01011539  0.62006467  0.49170002  1
  O  O319  1  0.49623395  0.12020445  0.01098258  1
  O  O320  1  0.51239532  0.11284309  0.49532811  1
  O  O321  1  0.51011042  0.60820568  -0.00685174  1
  O  O322  1  0.50081786  0.62678880  0.51154918  1
  O  O323  1  0.49758808  0.36369885  0.49161267  1
  O  O324  1  0.49555735  0.38468975  0.98945864  1
  O  O325  1  0.49342835  0.88576705  0.49308909  1
  O  O326  1  0.49517514  0.88478796  0.98650484  1
  O  O327  1  0.99278773  0.38318311  0.49316218  1
  O  O328  1  0.99482946  0.38852584  0.99244394  1
  O  O329  1  0.98819854  0.87792928  0.48531607  1
  O  O330  1  0.99415334  0.87999237  0.99214708  1
  O  O331  1  0.49375688  0.48489089  0.37987118  1
  O  O332  1  0.49724459  0.49241810  0.87941651  1
  O  O333  1  0.49511518  0.99250165  0.38451656  1
  O  O334  1  0.49563621  0.99391365  0.87916920  1
  O  O335  1  0.99662971  0.49658200  0.38677432  1
  O  O336  1  0.99516501  0.49701256  0.88186616  1
  O  O337  1  0.99325354  0.99382224  0.37487178  1
  O  O338  1  1.00584921  0.98916577  0.88961441  1
  O  O339  1  0.00752909  -0.00148372  0.11068111  1
  O  O340  1  0.00768065  0.00473395  0.62365951  1
  O  O341  1  0.00846117  0.50503416  0.11624980  1
  O  O342  1  0.00424500  0.50097228  0.61214281  1
  O  O343  1  0.50147340  0.00673043  0.11551721  1
  O  O344  1  0.50379778  -0.00130739  0.61776373  1
  O  O345  1  0.51229677  0.48996490  0.11727485  1
  O  O346  1  0.51272056  0.50469652  0.63003747  1
  O  O347  1  0.24182252  0.37958569  0.25778994  1
  O  O348  1  0.25186505  0.39122196  0.74013372  1
  O  O349  1  0.24710290  0.87949313  0.24360904  1
  O  O350  1  0.25169121  0.88126488  0.74586592  1
  O  O351  1  0.74589330  0.38074987  0.24336927  1
  O  O352  1  0.75158908  0.38863666  0.75617502  1
  O  O353  1  0.74354973  0.88157880  0.24271925  1
  O  O354  1  0.75410504  0.88827953  0.75897804  1
  O  O355  1  0.25892698  0.12064016  0.25901121  1
  O  O356  1  0.24560523  0.09801041  0.74089889  1
  O  O357  1  0.25050152  0.61973658  0.26406431  1
  O  O358  1  0.25728907  0.61784364  0.75330086  1
  O  O359  1  0.75859311  0.11683849  0.25370377  1
  O  O360  1  0.75909392  0.11454886  0.76079552  1
  O  O361  1  0.75883668  0.61680821  0.26281338  1
  O  O362  1  0.75373216  0.60877645  0.75499101  1
  O  O363  1  0.37310855  0.12065375  0.36842813  1
  O  O364  1  0.37566657  0.12012840  0.86447398  1
  O  O365  1  0.36812492  0.61705035  0.37722165  1
  O  O366  1  0.36920647  0.62159248  0.86957665  1
  O  O367  1  0.87364039  0.11257418  0.37607990  1
  O  O368  1  0.86761701  0.13016408  0.86354627  1
  O  O369  1  0.86983837  0.62103567  0.37191986  1
  O  O370  1  0.87667931  0.61152803  0.87529334  1
  O  O371  1  0.12851418  0.39469868  0.11861511  1
  O  O372  1  0.12470520  0.40272082  0.59937298  1
  O  O373  1  0.12334633  0.89742183  0.11777700  1
  O  O374  1  0.12437288  0.88812676  0.61419888  1
  O  O375  1  0.63118655  0.38215899  0.12978165  1
  O  O376  1  0.62108814  0.38632137  0.62779083  1
  O  O377  1  0.63091493  0.88062645  0.13028219  1
  O  O378  1  0.61905734  0.88888400  0.62493982  1
  O  O379  1  0.12128111  0.24472897  0.26063755  1
  O  O380  1  0.13406845  0.28554511  0.67988663  1
  O  O381  1  0.11828380  0.74401010  0.25930654  1
  O  O382  1  0.11490640  0.74747176  0.75916272  1
  O  O383  1  0.61913317  0.25396085  0.25753323  1
  O  O384  1  0.62276281  0.24989696  0.75850277  1
  O  O385  1  0.62278560  0.76489639  0.25891741  1
  O  O386  1  0.62373665  0.74825625  0.75873040  1
  O  O387  1  0.38161966  0.23938701  0.24684055  1
  O  O388  1  0.39455593  0.25103201  0.74890807  1
  O  O389  1  0.38126837  0.74364515  0.23886477  1
  O  O390  1  0.37574297  0.74360381  0.73662561  1
  O  O391  1  0.87316932  0.23409396  0.25774719  1
  O  O392  1  0.87028842  0.23793461  0.74593133  1
  O  O393  1  0.88208958  0.74513845  0.24468774  1
  O  O394  1  0.88990675  0.74612097  0.75024285  1
  O  O395  1  0.36886926  0.49574040  0.48916011  1
  O  O396  1  0.38380707  0.49717326  0.99563268  1
  O  O397  1  0.38132833  1.00085500  0.50129251  1
  O  O398  1  0.38553294  1.00454964  0.98635573  1
  O  O399  1  0.88052854  0.49169897  0.49503953  1
  O  O400  1  0.88359708  0.49674682  0.99314843  1
  O  O401  1  0.87484305  0.99262355  0.49288880  1
  O  O402  1  0.88851728  0.98957719  1.00628334  1
  O  O403  1  0.11422607  0.01248384  0.00599532  1
  O  O404  1  0.12583974  0.00991286  0.50770116  1
  O  O405  1  0.11964091  0.51185871  0.00751867  1
  O  O406  1  0.11717946  0.51340616  0.49863732  1
  O  O407  1  0.61099891  -0.00476030  0.00424049  1
  O  O408  1  0.61774378  0.00365423  0.50729388  1
  O  O409  1  0.62005139  0.50426502  0.00722776  1
  O  O410  1  0.62717314  0.50023059  0.51281407  1
  O  O411  1  0.38154521  0.36590841  0.11726485  1
  O  O412  1  0.37933967  0.35821852  0.62822234  1
  O  O413  1  0.37498332  0.86262356  0.12229949  1
  O  O414  1  0.37677241  0.86540688  0.61904861  1
  O  O415  1  0.85870735  0.39323432  0.11209118  1
  O  O416  1  0.87626733  0.36856564  0.61129819  1
  O  O417  1  0.86987689  0.87108631  0.11842071  1
  O  O418  1  0.88168306  0.87581211  0.60880725  1
  O  O419  1  0.13007048  0.13352272  0.38385777  1
  O  O420  1  0.12192811  0.12483025  0.89358376  1
  O  O421  1  0.13081608  0.63313639  0.37882756  1
  O  O422  1  0.13242743  0.63256126  0.88119531  1
  O  O423  1  0.62694005  0.13181644  0.38102632  1
  O  O424  1  0.63623403  0.13337369  0.87442323  1
  O  O425  1  0.63290321  0.63395708  0.37676514  1
  O  O426  1  0.62353754  0.63428277  0.88249449  1
