# generated using pymatgen
data_V85Zn86O256
_symmetry_space_group_name_H-M   'P 1'
_cell_length_a   16.93759103
_cell_length_b   16.93246359
_cell_length_c   16.92794628
_cell_angle_alpha   89.99062287
_cell_angle_beta   89.98117043
_cell_angle_gamma   89.98128338
_symmetry_Int_Tables_number   1
_chemical_formula_structural   V85Zn86O256
_chemical_formula_sum   'V85 Zn86 O256'
_cell_volume   4854.85219312
_cell_formula_units_Z   1
loop_
 _symmetry_equiv_pos_site_id
 _symmetry_equiv_pos_as_xyz
  1  'x, y, z'
loop_
 _atom_site_type_symbol
 _atom_site_label
 _atom_site_symmetry_multiplicity
 _atom_site_fract_x
 _atom_site_fract_y
 _atom_site_fract_z
 _atom_site_occupancy
  V  V0  1  0.74454656  0.63213951  0.37686566  1
  V  V1  1  0.11367698  0.50507774  0.12462650  1
  V  V2  1  0.36988194  0.37921464  0.49997645  1
  V  V3  1  0.62281587  0.12679405  0.50364213  1
  V  V4  1  0.37611892  0.74800655  0.12280359  1
  V  V5  1  0.25355062  0.25628715  0.00006336  1
  V  V6  1  0.00369363  0.24890216  0.74957100  1
  V  V7  1  0.51390248  0.75446293  0.24897455  1
  V  V8  1  -0.00073389  0.38195255  0.87145135  1
  V  V9  1  0.37733778  0.49492899  0.89155221  1
  V  V10  1  0.87611808  0.88076745  -0.00527305  1
  V  V11  1  0.37629551  0.25570638  0.12424453  1
  V  V12  1  0.62101813  0.63194516  0.50552614  1
  V  V13  1  0.24808555  0.74773691  0.49930644  1
  V  V14  1  0.87465937  0.50000646  0.38947904  1
  V  V15  1  0.88951154  0.74678472  0.12700561  1
  V  V16  1  0.11475660  0.74439290  0.37193524  1
  V  V17  1  0.75095548  0.12816946  0.37357412  1
  V  V18  1  0.12307002  0.37804579  0.25197546  1
  V  V19  1  0.62509952  0.61004505  0.00202860  1
  V  V20  1  0.49854904  0.24953523  0.25331837  1
  V  V21  1  0.75212908  0.26424607  0.50205023  1
  V  V22  1  0.87453550  0.38363206  -0.00500379  1
  V  V23  1  0.37552335  0.87351306  0.49822602  1
  V  V24  1  0.25042725  0.61975759  0.37583724  1
  V  V25  1  0.49995463  0.88169153  0.87239005  1
  V  V26  1  0.50006933  0.37710874  0.89011401  1
  V  V27  1  0.76105781  0.61175912  0.86172095  1
  V  V28  1  0.11356135  0.62182503  0.51140600  1
  V  V29  1  0.24859542  0.12668479  0.37557780  1
  V  V30  1  0.12622933  0.75567129  0.86735641  1
  V  V31  1  0.87749050  0.11543838  0.75611715  1
  V  V32  1  0.24701310  -0.00185621  0.25014596  1
  V  V33  1  0.00072440  0.88228637  0.86774894  1
  V  V34  1  -0.00068714  0.12691681  0.12427734  1
  V  V35  1  0.24989120  0.87320398  0.63311465  1
  V  V36  1  0.25285752  0.62431817  0.87021361  1
  V  V37  1  0.62277858  0.25214675  0.37605769  1
  V  V38  1  0.25013907  0.37730910  0.12417095  1
  V  V39  1  0.62013788  0.49447205  0.62938772  1
  V  V40  1  0.11875745  0.62720218  -0.00066636  1
  V  V41  1  0.24859469  0.25215173  0.50570722  1
  V  V42  1  0.25902183  0.11905470  0.87485175  1
  V  V43  1  0.50215213  0.25379642  0.74977134  1
  V  V44  1  0.25285196  0.48042587  0.74751046  1
  V  V45  1  0.74680640  -0.00447874  0.24995880  1
  V  V46  1  -0.00539865  0.37811465  0.39086214  1
  V  V47  1  0.12304015  0.11602310  0.50000645  1
  V  V48  1  0.37385352  0.25017588  0.62684178  1
  V  V49  1  0.11431097  0.86891658  0.24803495  1
  V  V50  1  0.12103127  -0.00036597  0.12466281  1
  V  V51  1  0.49294123  0.50913180  0.50346780  1
  V  V52  1  0.37379241  -0.00377042  0.37610414  1
  V  V53  1  0.12702588  -0.00506633  0.63272056  1
  V  V54  1  0.63224437  -0.00262845  0.62686676  1
  V  V55  1  0.88004314  0.00239767  0.38014505  1
  V  V56  1  0.49425623  0.38635272  0.37473628  1
  V  V57  1  0.74597965  0.76096218  0.49689165  1
  V  V58  1  0.88726458  0.62741827  0.24849105  1
  V  V59  1  0.63445097  0.87283627  0.74734420  1
  V  V60  1  0.62384180  0.38072914  0.24948466  1
  V  V61  1  -0.00058833  0.25539652  0.25078685  1
  V  V62  1  -0.00065356  0.11637152  0.62123598  1
  V  V63  1  0.50158412  0.12267505  0.13036429  1
  V  V64  1  0.12705937  0.25513129  0.87107860  1
  V  V65  1  0.24866355  0.87302164  0.12438978  1
  V  V66  1  0.74449652  0.38118538  0.12356068  1
  V  V67  1  0.87106203  0.24992691  0.62105817  1
  V  V68  1  0.00298884  0.74772099  0.74210220  1
  V  V69  1  0.86246356  0.75618365  0.62983372  1
  V  V70  1  0.87242469  0.25361034  0.12461327  1
  V  V71  1  0.12781054  0.48484391  0.62705440  1
  V  V72  1  0.12440075  0.12670209  0.00014790  1
  V  V73  1  0.00066824  0.87760223  0.38409423  1
  V  V74  1  0.74690006  0.50463230  0.24846102  1
  V  V75  1  0.62456364  0.12502367  -0.00138388  1
  V  V76  1  0.75202715  0.74653846  -0.00023285  1
  V  V77  1  0.62345086  0.74662962  0.87645932  1
  V  V78  1  0.75439257  0.11772497  0.87738843  1
  V  V79  1  0.37618509  0.62206213  0.25204134  1
  V  V80  1  0.50443644  0.61223422  0.12037834  1
  V  V81  1  0.74561828  0.87220606  0.12753881  1
  V  V82  1  0.38246123  0.74066723  0.62533987  1
  V  V83  1  0.25027963  0.50113103  0.25110471  1
  V  V84  1  0.37559248  0.88277417  -0.00325337  1
  Zn  Zn85  1  -0.00481499  0.50662293  -0.00485128  1
  Zn  Zn86  1  0.50481699  0.74432840  0.74470743  1
  Zn  Zn87  1  -0.05371823  0.58932988  0.67547494  1
  Zn  Zn88  1  0.87310114  0.88228949  0.50396491  1
  Zn  Zn89  1  0.62878233  0.25064850  0.87221259  1
  Zn  Zn90  1  0.52381106  0.85984924  0.37693817  1
  Zn  Zn91  1  0.78771897  0.42676470  0.67024872  1
  Zn  Zn92  1  0.38129411  0.11559560  0.75298592  1
  Zn  Zn93  1  0.37567494  0.12310756  0.25088537  1
  Zn  Zn94  1  0.25114073  0.74926588  -0.00322956  1
  Zn  Zn95  1  0.62078783  -0.00906001  0.12317245  1
  Zn  Zn96  1  0.87574639  0.12554769  0.24897503  1
  Zn  Zn97  1  0.74943555  0.25041647  -0.00114733  1
  Zn  Zn98  1  0.50079755  0.12233927  0.62962980  1
  Zn  Zn99  1  -0.00465314  0.00474379  -0.00760791  1
  Zn  Zn100  1  0.75745754  -0.00632471  0.75097584  1
  Zn  Zn101  1  0.49715343  0.00290037  -0.00168830  1
  Zn  Zn102  1  0.38392851  0.61500964  0.74713104  1
  Zn  Zn103  1  0.63302878  0.37505360  0.75098792  1
  Zn  Zn104  1  0.25791145  -0.00785023  0.75665932  1
  Zn  Zn105  1  0.12243210  0.25287854  0.37793470  1
  Zn  Zn106  1  0.50172704  -0.00269164  0.50156820  1
  Zn  Zn107  1  0.18619690  0.18926290  0.18931855  1
  Zn  Zn108  1  0.18876519  0.18608025  0.68835692  1
  Zn  Zn109  1  0.18518228  0.68750720  0.18629553  1
  Zn  Zn110  1  0.19304500  0.68648902  0.69012791  1
  Zn  Zn111  1  0.68564954  0.18856639  0.18900630  1
  Zn  Zn112  1  0.68990397  0.18856668  0.69046096  1
  Zn  Zn113  1  0.69147253  0.68440437  0.18303133  1
  Zn  Zn114  1  0.68520195  0.68353052  0.68568006  1
  Zn  Zn115  1  0.31235123  0.31224685  0.31466752  1
  Zn  Zn116  1  0.32044552  0.30987116  0.81658955  1
  Zn  Zn117  1  0.30869379  0.80790764  0.31057243  1
  Zn  Zn118  1  0.31685344  0.81055184  0.81162961  1
  Zn  Zn119  1  0.81260436  0.31715061  0.31360377  1
  Zn  Zn120  1  0.81492394  0.30395309  0.81350482  1
  Zn  Zn121  1  0.81581431  0.81226062  0.31126687  1
  Zn  Zn122  1  0.81420692  0.80612963  0.81476595  1
  Zn  Zn123  1  0.18442192  0.43858620  0.43961409  1
  Zn  Zn124  1  0.18655010  0.43891981  0.93687905  1
  Zn  Zn125  1  0.18751713  0.93516775  0.44011001  1
  Zn  Zn126  1  0.18487446  0.93707579  0.94007640  1
  Zn  Zn127  1  0.68298024  0.44469351  0.43934040  1
  Zn  Zn128  1  0.68934591  0.43611085  0.93112400  1
  Zn  Zn129  1  0.68603594  0.94243025  0.43447361  1
  Zn  Zn130  1  0.68687172  0.93803905  0.93797303  1
  Zn  Zn131  1  0.31232246  0.06522295  0.06354835  1
  Zn  Zn132  1  0.31296215  0.06215331  0.56604584  1
  Zn  Zn133  1  0.30593455  0.56565572  0.06294544  1
  Zn  Zn134  1  0.30584493  0.55968109  0.56262210  1
  Zn  Zn135  1  0.81235446  0.06149508  0.06326773  1
  Zn  Zn136  1  0.80899950  0.06631375  0.56159512  1
  Zn  Zn137  1  0.81259525  0.56462998  0.06331580  1
  Zn  Zn138  1  0.81096174  0.56746628  0.57295167  1
  Zn  Zn139  1  0.43502125  0.43821160  0.18702932  1
  Zn  Zn140  1  0.43841897  0.43481141  0.68660563  1
  Zn  Zn141  1  0.43606770  0.93602341  0.18770650  1
  Zn  Zn142  1  0.44189821  0.93759513  0.68836804  1
  Zn  Zn143  1  0.93183950  0.44002428  0.19123799  1
  Zn  Zn144  1  0.95341614  0.42554406  0.67474473  1
  Zn  Zn145  1  0.93275303  0.93696200  0.18807090  1
  Zn  Zn146  1  0.93997150  0.93331003  0.68596324  1
  Zn  Zn147  1  0.06131200  0.06294441  0.31078094  1
  Zn  Zn148  1  0.06921212  0.06416817  0.81114879  1
  Zn  Zn149  1  0.06023099  0.55941547  0.31809833  1
  Zn  Zn150  1  0.07083994  0.56301167  0.80915572  1
  Zn  Zn151  1  0.57345611  0.03836005  0.32222240  1
  Zn  Zn152  1  0.56461888  0.06272366  0.81129226  1
  Zn  Zn153  1  0.56329536  0.56701005  0.31480863  1
  Zn  Zn154  1  0.56067482  0.56273106  0.81455950  1
  Zn  Zn155  1  0.43618499  0.18786203  0.43764145  1
  Zn  Zn156  1  0.44026737  0.19271540  0.94081098  1
  Zn  Zn157  1  0.43632675  0.68930234  0.43278317  1
  Zn  Zn158  1  0.44051601  0.68558127  0.93588852  1
  Zn  Zn159  1  0.93818712  0.18749679  0.43855495  1
  Zn  Zn160  1  0.93623065  0.19187293  0.93773209  1
  Zn  Zn161  1  0.93131867  0.68813919  0.44419489  1
  Zn  Zn162  1  0.93848164  0.69223306  0.93174766  1
  Zn  Zn163  1  0.06258873  0.31706840  0.06018862  1
  Zn  Zn164  1  0.06373019  0.30419410  0.56433142  1
  Zn  Zn165  1  0.06245754  0.81248010  0.05496247  1
  Zn  Zn166  1  0.06386653  0.81179887  0.56257400  1
  Zn  Zn167  1  0.56620909  0.30937124  0.06426340  1
  Zn  Zn168  1  0.55772115  0.31420629  0.56148383  1
  Zn  Zn169  1  0.56132552  0.80745608  0.06046399  1
  Zn  Zn170  1  0.56285286  0.81661480  0.56238354  1
  O  O171  1  0.11909921  0.12256046  0.11976038  1
  O  O172  1  0.12040305  0.11770561  0.61870606  1
  O  O173  1  0.13028732  0.61706726  0.11394861  1
  O  O174  1  0.13173180  0.62474834  0.61340840  1
  O  O175  1  0.61239970  0.13027445  0.11902709  1
  O  O176  1  0.62463046  0.12050111  0.61809581  1
  O  O177  1  0.61963250  0.62696179  0.11114012  1
  O  O178  1  0.62300981  0.61818730  0.61132545  1
  O  O179  1  0.38305690  0.37013162  0.38662810  1
  O  O180  1  0.38870593  0.38038858  0.87663546  1
  O  O181  1  0.36762017  0.88021591  0.38400155  1
  O  O182  1  0.38622327  0.86406066  0.88555491  1
  O  O183  1  0.87927918  0.39073124  0.37272389  1
  O  O184  1  0.88602647  0.36480482  0.88502809  1
  O  O185  1  0.88519487  0.88358008  0.37404263  1
  O  O186  1  0.88582985  0.86688747  0.88376937  1
  O  O187  1  0.25480901  0.00604540  0.37199901  1
  O  O188  1  0.24292356  0.01587109  0.87715190  1
  O  O189  1  0.24218956  0.51221772  0.36799445  1
  O  O190  1  0.25531575  0.50278396  0.86559239  1
  O  O191  1  0.75827205  0.01064345  0.36739081  1
  O  O192  1  0.74801570  0.01238142  0.87373570  1
  O  O193  1  0.75844296  0.50726896  0.37085191  1
  O  O194  1  0.75099712  0.51197964  0.87351275  1
  O  O195  1  0.24120288  0.49539325  0.13174457  1
  O  O196  1  0.24508406  0.49819827  0.63925765  1
  O  O197  1  0.24247799  0.99466087  0.12970322  1
  O  O198  1  0.24429778  0.98917251  0.62333124  1
  O  O199  1  0.75409035  0.49280574  0.13524597  1
  O  O200  1  0.72318150  0.49910055  0.60581568  1
  O  O201  1  0.75502369  0.98821942  0.13167252  1
  O  O202  1  0.73769985  1.00505635  0.62871192  1
  O  O203  1  0.00148371  0.36757801  0.25501095  1
  O  O204  1  -0.00370075  0.35773243  0.75646278  1
  O  O205  1  0.01097240  0.87815806  0.25697023  1
  O  O206  1  -0.00226883  0.86514986  0.75953123  1
  O  O207  1  0.50222488  0.37287748  0.25722842  1
  O  O208  1  0.50018177  0.36390890  0.75657821  1
  O  O209  1  0.49539742  0.85672662  0.24631141  1
  O  O210  1  0.51009592  0.86696051  0.75815765  1
  O  O211  1  0.49961965  0.13001767  0.24400361  1
  O  O212  1  0.49859466  0.13814847  0.75343257  1
  O  O213  1  0.49348228  0.63116722  0.24404771  1
  O  O214  1  0.49430860  0.63310744  0.75955937  1
  O  O215  1  1.00017252  0.14003003  0.24521676  1
  O  O216  1  0.99692167  0.12981606  0.74497373  1
  O  O217  1  0.98652733  0.62116231  0.25531871  1
  O  O218  1  0.99940333  0.63836427  0.76083495  1
  O  O219  1  0.36506672  0.24703202  0.01171108  1
  O  O220  1  0.36739590  0.25561884  0.50496379  1
  O  O221  1  0.37625969  0.75409059  0.01140204  1
  O  O222  1  0.36974713  0.75438185  0.50564578  1
  O  O223  1  0.87572759  0.26112105  0.01282025  1
  O  O224  1  0.86331530  0.23980250  0.50743284  1
  O  O225  1  0.86928755  0.75592357  0.00683530  1
  O  O226  1  0.86397524  0.76067347  0.50413757  1
  O  O227  1  0.13315093  0.23796646  0.49884679  1
  O  O228  1  0.13187605  0.24386879  0.99604749  1
  O  O229  1  0.12845956  0.73852245  0.49421759  1
  O  O230  1  0.12808043  0.74324710  0.98916485  1
  O  O231  1  0.63013659  0.24625778  0.49565497  1
  O  O232  1  0.62771838  0.23704162  0.99841290  1
  O  O233  1  0.63037028  0.74452633  0.50326938  1
  O  O234  1  0.63477998  0.74351574  0.99396919  1
  O  O235  1  0.49232410  0.24652931  0.13186651  1
  O  O236  1  0.49247253  0.24818620  0.63224658  1
  O  O237  1  0.49368242  0.74064342  0.13251660  1
  O  O238  1  0.48478596  0.75263091  0.62105763  1
  O  O239  1  0.99358475  0.25029898  0.13190918  1
  O  O240  1  0.99756896  0.23611792  0.63204572  1
  O  O241  1  0.98858151  0.75416351  0.12127729  1
  O  O242  1  0.99803207  0.75625111  0.63773456  1
  O  O243  1  -0.00157585  0.25805617  0.36686134  1
  O  O244  1  0.00895092  0.25393559  0.86815296  1
  O  O245  1  0.00930557  0.75650180  0.37939991  1
  O  O246  1  0.00870549  0.75928071  0.86642447  1
  O  O247  1  0.50351063  0.25921399  0.37135357  1
  O  O248  1  0.49994489  0.26110356  0.86949366  1
  O  O249  1  0.49799873  0.74894465  0.35564065  1
  O  O250  1  0.51463337  0.75756277  0.88025761  1
  O  O251  1  0.24435986  0.13085803  0.49370122  1
  O  O252  1  0.24521717  0.13401934  0.99324057  1
  O  O253  1  0.24320716  0.62877000  0.49114536  1
  O  O254  1  0.23990160  0.62602942  0.98753383  1
  O  O255  1  0.73961794  0.13140971  0.48844359  1
  O  O256  1  0.74411187  0.12538603  0.99651685  1
  O  O257  1  0.74138947  0.63704398  0.49399955  1
  O  O258  1  0.74087852  0.63047333  0.99776226  1
  O  O259  1  0.24324056  0.36293038  0.00610246  1
  O  O260  1  0.25700513  0.36462926  0.49182217  1
  O  O261  1  0.25713473  0.87170526  0.00538135  1
  O  O262  1  0.25639442  0.86596646  0.50543595  1
  O  O263  1  0.75555379  0.37404088  0.00624231  1
  O  O264  1  0.74488871  0.36338159  0.49377103  1
  O  O265  1  0.75778938  0.86638395  0.00272924  1
  O  O266  1  0.74632797  0.86468125  0.49028944  1
  O  O267  1  0.12864946  0.49801214  0.24358002  1
  O  O268  1  0.14338745  0.50201657  0.74068467  1
  O  O269  1  0.12871260  0.99170813  0.24461360  1
  O  O270  1  0.13579214  1.00530256  0.73621524  1
  O  O271  1  0.63808968  0.49687542  0.25746149  1
  O  O272  1  0.61812807  0.50099947  0.73269552  1
  O  O273  1  0.64590211  1.01848480  0.23437746  1
  O  O274  1  0.62774356  0.99103575  0.74426572  1
  O  O275  1  0.36525622  -0.00053987  0.25737462  1
  O  O276  1  0.37033221  0.00279913  0.74387984  1
  O  O277  1  0.36766884  0.51425519  0.24523969  1
  O  O278  1  0.36386345  0.49645824  0.75428778  1
  O  O279  1  0.86588483  0.00414618  0.25816500  1
  O  O280  1  0.87688000  0.01109466  0.74423407  1
  O  O281  1  0.86362646  0.50865318  0.25678952  1
  O  O282  1  0.86990150  0.50519230  0.67158749  1
  O  O283  1  0.11317470  0.37807589  0.36938284  1
  O  O284  1  0.11798088  0.36126284  0.88145925  1
  O  O285  1  0.11985032  0.86756163  0.36880030  1
  O  O286  1  0.11821211  0.86449640  0.87998750  1
  O  O287  1  0.61498893  0.37203958  0.37035839  1
  O  O288  1  0.61284177  0.37374903  0.87258279  1
  O  O289  1  0.60734922  0.92930611  0.35776669  1
  O  O290  1  0.62003278  0.86637530  0.87164560  1
  O  O291  1  0.38485262  0.13380335  0.12666005  1
  O  O292  1  0.37876686  0.13759782  0.62275079  1
  O  O293  1  0.38066258  0.63102082  0.12779490  1
  O  O294  1  0.36792711  0.63844993  0.62256898  1
  O  O295  1  0.88039560  0.13577704  0.12573600  1
  O  O296  1  0.88428914  0.12649256  0.62938026  1
  O  O297  1  0.87148740  0.63486035  0.13390185  1
  O  O298  1  0.88236333  0.65373334  0.60554207  1
  O  O299  1  0.25609044  0.25418823  0.11988340  1
  O  O300  1  0.25557761  0.24505694  0.61369862  1
  O  O301  1  0.25815610  0.75507361  0.12271292  1
  O  O302  1  0.25733056  0.75589305  0.61856216  1
  O  O303  1  0.75810132  0.25861094  0.12605962  1
  O  O304  1  0.75916976  0.24011222  0.61377431  1
  O  O305  1  0.75664247  0.75362516  0.11444135  1
  O  O306  1  0.75718783  0.75041384  0.61797406  1
  O  O307  1  0.24656096  0.24172441  0.38348311  1
  O  O308  1  0.24559619  0.24532754  0.88311730  1
  O  O309  1  0.23764099  0.74026353  0.37862014  1
  O  O310  1  0.24463023  0.74232156  0.87316231  1
  O  O311  1  0.74550732  0.24562366  0.37924262  1
  O  O312  1  0.74902780  0.23447506  0.88040522  1
  O  O313  1  0.75491158  0.74144371  0.38108017  1
  O  O314  1  0.74152795  0.74414266  0.88567647  1
  O  O315  1  0.00522392  0.12557244  0.00542153  1
  O  O316  1  0.01051561  0.12867954  0.50878427  1
  O  O317  1  0.01364903  0.62396619  -0.01055013  1
  O  O318  1  0.01523847  0.62512176  0.49675549  1
  O  O319  1  0.50623271  0.12367838  0.00752170  1
  O  O320  1  0.51404583  0.12773266  0.49928264  1
  O  O321  1  0.51574418  0.62846072  0.00581937  1
  O  O322  1  0.50465199  0.61705522  0.48985353  1
  O  O323  1  0.49095650  0.38445686  0.49221478  1
  O  O324  1  0.50330426  0.36971767  0.98918702  1
  O  O325  1  0.49039355  0.87546441  0.49127137  1
  O  O326  1  0.49304235  0.87648695  0.99493187  1
  O  O327  1  1.00254952  0.36688116  0.48971500  1
  O  O328  1  0.99252946  0.37745192  0.99054371  1
  O  O329  1  1.00219864  0.87600460  0.48700938  1
  O  O330  1  0.99245001  0.87722569  0.98960652  1
  O  O331  1  0.49985712  0.49130621  0.37988707  1
  O  O332  1  0.49187480  0.48606821  0.87407705  1
  O  O333  1  0.47576419  1.01425141  0.37991845  1
  O  O334  1  0.50592100  0.98554407  0.87746760  1
  O  O335  1  0.98434686  0.49278197  0.37455656  1
  O  O336  1  1.00837962  0.48493576  0.87020859  1
  O  O337  1  0.99165747  0.99288585  0.36911494  1
  O  O338  1  1.00971493  0.98743192  0.87350676  1
  O  O339  1  0.00415295  0.00817023  0.12641071  1
  O  O340  1  0.00937377  0.00860474  0.62846342  1
  O  O341  1  0.01119149  0.49423224  0.12432770  1
  O  O342  1  0.02621532  0.50727961  0.63690202  1
  O  O343  1  0.50101134  0.00882868  0.12535899  1
  O  O344  1  0.51346949  0.00281190  0.62136086  1
  O  O345  1  0.49778432  0.51289100  0.12843412  1
  O  O346  1  0.50422330  0.50076582  0.61315415  1
  O  O347  1  0.24415531  0.38124689  0.24770579  1
  O  O348  1  0.25115896  0.38211892  0.75609962  1
  O  O349  1  0.23899679  0.87821356  0.24442581  1
  O  O350  1  0.25270703  0.87177540  0.73696757  1
  O  O351  1  0.74579298  0.38451303  0.24393331  1
  O  O352  1  0.74693802  0.36446269  0.74997153  1
  O  O353  1  0.75508902  0.88304725  0.24099932  1
  O  O354  1  0.73876484  0.87539592  0.75989378  1
  O  O355  1  0.24843327  0.11890504  0.25890327  1
  O  O356  1  0.25261792  0.12903720  0.76818407  1
  O  O357  1  0.25559697  0.62154195  0.25545696  1
  O  O358  1  0.25738816  0.61872501  0.76138409  1
  O  O359  1  0.75371231  0.12608036  0.26164181  1
  O  O360  1  0.76090911  0.12282226  0.75890681  1
  O  O361  1  0.75371303  0.62060084  0.25829090  1
  O  O362  1  0.74864934  0.62838801  0.76270257  1
  O  O363  1  0.35990173  0.12076918  0.37613688  1
  O  O364  1  0.36106907  0.12974761  0.88038342  1
  O  O365  1  0.36250209  0.63152591  0.36435441  1
  O  O366  1  0.36812347  0.61578494  0.87829654  1
  O  O367  1  0.86891886  0.12055746  0.37264224  1
  O  O368  1  0.87061994  0.12734937  0.86786670  1
  O  O369  1  0.86759584  0.61763133  0.37093989  1
  O  O370  1  0.85902021  0.62958047  0.88066955  1
  O  O371  1  0.13064627  0.38257276  0.13150868  1
  O  O372  1  0.12451937  0.38569635  0.61983501  1
  O  O373  1  0.12726288  0.87685165  0.13043607  1
  O  O374  1  0.13628418  0.88375835  0.61612582  1
  O  O375  1  0.63722057  0.37092466  0.13159089  1
  O  O376  1  0.61500861  0.38984527  0.62567878  1
  O  O377  1  0.64075922  0.87247010  0.11674736  1
  O  O378  1  0.62229583  0.88239805  0.63586046  1
  O  O379  1  0.11674723  0.25881290  0.25319949  1
  O  O380  1  0.11718731  0.24304072  0.75899038  1
  O  O381  1  0.12746197  0.75653946  0.25909791  1
  O  O382  1  0.11982069  0.74579902  0.75877821  1
  O  O383  1  0.61860106  0.25900376  0.25709494  1
  O  O384  1  0.61560245  0.25138167  0.75126408  1
  O  O385  1  0.61265593  0.74515789  0.24355934  1
  O  O386  1  0.62658913  0.75514889  0.75808114  1
  O  O387  1  0.37960512  0.24648745  0.24381329  1
  O  O388  1  0.38045655  0.24682464  0.74121348  1
  O  O389  1  0.37606777  0.73981311  0.23858258  1
  O  O390  1  0.37549872  0.74997902  0.73180650  1
  O  O391  1  0.88141785  0.25318296  0.24026869  1
  O  O392  1  0.88473693  0.23426803  0.74192223  1
  O  O393  1  0.87067171  0.74068679  0.23873158  1
  O  O394  1  0.87966882  0.75206890  0.73562346  1
  O  O395  1  0.37876090  0.49124336  0.50519676  1
  O  O396  1  0.36481942  0.49822751  0.99050571  1
  O  O397  1  0.37252010  0.98945357  0.49533443  1
  O  O398  1  0.37506806  0.98658207  1.00532593  1
  O  O399  1  0.86846145  0.50699258  0.48722039  1
  O  O400  1  0.87807586  0.48812271  1.00616441  1
  O  O401  1  0.86726369  1.00016091  0.48544927  1
  O  O402  1  0.87694999  0.98491426  1.00493240  1
  O  O403  1  0.12172745  0.00903725  0.00793376  1
  O  O404  1  0.13156321  0.01098565  0.50839480  1
  O  O405  1  0.12269619  0.50760762  0.00743812  1
  O  O406  1  0.13517603  0.51062355  0.51613765  1
  O  O407  1  0.62384093  0.01177113  0.00536208  1
  O  O408  1  0.62540339  0.01065330  0.50912931  1
  O  O409  1  0.62951786  0.51173775  -0.00101333  1
  O  O410  1  0.60929200  0.50750387  0.50385419  1
  O  O411  1  0.36757839  0.36359894  0.13093208  1
  O  O412  1  0.37917469  0.36196085  0.61181768  1
  O  O413  1  0.36988253  0.86644143  0.11870398  1
  O  O414  1  0.36954903  0.86665641  0.61330963  1
  O  O415  1  0.86505816  0.37109113  0.12086730  1
  O  O416  1  0.88027486  0.35201627  0.62298455  1
  O  O417  1  0.86725159  0.86515821  0.11891402  1
  O  O418  1  0.87838605  0.86258634  0.61970482  1
  O  O419  1  0.13303618  0.12391065  0.38146264  1
  O  O420  1  0.13303743  0.13579971  0.88216537  1
  O  O421  1  0.12875005  0.62878481  0.38266427  1
  O  O422  1  0.13471282  0.63154373  0.87962612  1
  O  O423  1  0.63254471  0.13040671  0.38090361  1
  O  O424  1  0.63205726  0.12594756  0.88339073  1
  O  O425  1  0.63691904  0.61982367  0.38688093  1
  O  O426  1  0.63250872  0.62922992  0.88552758  1
