# generated using pymatgen
data_V85Zn86O256
_symmetry_space_group_name_H-M   'P 1'
_cell_length_a   16.92559558
_cell_length_b   16.92934644
_cell_length_c   16.92162962
_cell_angle_alpha   90.01535523
_cell_angle_beta   90.05395708
_cell_angle_gamma   89.97865236
_symmetry_Int_Tables_number   1
_chemical_formula_structural   V85Zn86O256
_chemical_formula_sum   'V85 Zn86 O256'
_cell_volume   4848.70875917
_cell_formula_units_Z   1
loop_
 _symmetry_equiv_pos_site_id
 _symmetry_equiv_pos_as_xyz
  1  'x, y, z'
loop_
 _atom_site_type_symbol
 _atom_site_label
 _atom_site_symmetry_multiplicity
 _atom_site_fract_x
 _atom_site_fract_y
 _atom_site_fract_z
 _atom_site_occupancy
  V  V0  1  0.74978414  0.87891987  0.13047603  1
  V  V1  1  0.63068825  0.74932135  0.37773575  1
  V  V2  1  0.24512774  0.88493468  0.63005473  1
  V  V3  1  0.50490508  0.62474755  0.63238093  1
  V  V4  1  0.50399405  0.24951452  0.25996116  1
  V  V5  1  0.62433899  0.62648521  0.00269187  1
  V  V6  1  0.61935914  0.87318830  0.74952832  1
  V  V7  1  0.87124953  0.61617003  0.74999589  1
  V  V8  1  0.37284264  0.12636884  0.25148317  1
  V  V9  1  0.75499586  0.86921473  0.62393282  1
  V  V10  1  0.24938961  0.37197299  0.12189210  1
  V  V11  1  0.37618282  0.63224577  0.75155848  1
  V  V12  1  -0.00524196  0.24987475  0.74346575  1
  V  V13  1  0.12499888  0.37782650  0.74885831  1
  V  V14  1  0.12793374  0.62829620  -0.00579838  1
  V  V15  1  0.74388972  0.25077950  -0.00377470  1
  V  V16  1  0.37793865  0.00341336  0.37901034  1
  V  V17  1  0.62700893  0.50294144  0.13403014  1
  V  V18  1  0.49270251  0.87607100  0.87458743  1
  V  V19  1  0.24144188  0.00436444  0.24374346  1
  V  V20  1  -0.01475657  0.50048654  0.49631640  1
  V  V21  1  0.87070736  0.61316949  0.25336487  1
  V  V22  1  0.62330409  0.00003433  0.61878937  1
  V  V23  1  0.62249875  0.13302300  0.49903814  1
  V  V24  1  0.62753511  0.62307977  0.50300346  1
  V  V25  1  0.25342746  0.74947538  0.50188882  1
  V  V26  1  0.49964917  0.12622285  0.12521324  1
  V  V27  1  0.49219418  -0.00069848  -0.00359656  1
  V  V28  1  0.49802479  0.12195291  0.62457434  1
  V  V29  1  0.76569353  0.25254601  0.49859074  1
  V  V30  1  0.00111111  0.11797728  0.11737170  1
  V  V31  1  0.48863414  0.62536277  0.13028613  1
  V  V32  1  0.87989366  0.00420182  0.87744201  1
  V  V33  1  0.87246737  0.11857330  0.24953803  1
  V  V34  1  -0.01260511  0.37879852  0.37663018  1
  V  V35  1  0.12793259  0.75478564  0.37463208  1
  V  V36  1  0.38106002  0.75063067  0.62792918  1
  V  V37  1  0.12836783  0.25131516  0.39336310  1
  V  V38  1  -0.00272819  0.75458531  0.24794731  1
  V  V39  1  0.49908603  0.49921534  0.00167500  1
  V  V40  1  0.49971529  0.49337873  0.50280638  1
  V  V41  1  0.12496701  0.37261876  0.25247385  1
  V  V42  1  0.62654648  0.00155593  0.12977202  1
  V  V43  1  0.36328743  0.86891542  0.00792434  1
  V  V44  1  0.87507768  0.24810859  0.12390214  1
  V  V45  1  0.51130088  0.25252746  0.75377069  1
  V  V46  1  0.87287893  0.37660336  -0.00306675  1
  V  V47  1  0.74911315  0.75210098  -0.00136645  1
  V  V48  1  0.87014016  -0.00163610  0.37807264  1
  V  V49  1  0.74553470  0.12708506  0.87255817  1
  V  V50  1  0.62382674  0.12640183  -0.00229843  1
  V  V51  1  0.62758984  0.37263229  0.25912890  1
  V  V52  1  0.74967583  0.37875264  0.13030987  1
  V  V53  1  0.87758518  0.88031785  -0.00040998  1
  V  V54  1  -0.00494901  0.49999575  -0.00515918  1
  V  V55  1  0.51538913  0.37371813  0.87303372  1
  V  V56  1  0.74454557  0.12635648  0.37227190  1
  V  V57  1  0.76924801  0.36836218  0.62777418  1
  V  V58  1  0.18423564  0.83249900  0.19448603  1
  V  V59  1  0.37645704  0.49752090  0.87300257  1
  V  V60  1  0.62657185  0.87737794  0.25142132  1
  V  V61  1  0.61988870  0.74942619  0.87158094  1
  V  V62  1  0.38322975  0.88127669  0.50474369  1
  V  V63  1  0.87329288  0.12636898  0.73694805  1
  V  V64  1  0.01782793  0.12456298  0.62144611  1
  V  V65  1  0.24550199  0.12958498  0.38957895  1
  V  V66  1  0.37618703  0.24869497  0.12512494  1
  V  V67  1  -0.00498181  0.62162047  0.12440263  1
  V  V68  1  0.49404267  0.74705044  0.25130766  1
  V  V69  1  0.62704386  0.48330460  0.63352889  1
  V  V70  1  0.25556950  0.50053242  0.25172267  1
  V  V71  1  0.24829979  0.50407570  0.74638414  1
  V  V72  1  0.36845965  0.25275661  0.62408960  1
  V  V73  1  0.00263821  0.87699268  0.37307345  1
  V  V74  1  0.13137372  0.24928814  0.87555942  1
  V  V75  1  0.37007641  0.12184862  0.76437269  1
  V  V76  1  0.50239584  0.87842897  0.37825981  1
  V  V77  1  0.00161240  0.24845495  0.25115749  1
  V  V78  1  0.37784452  0.50398196  0.37420927  1
  V  V79  1  -0.00909650  0.75607833  0.74325981  1
  V  V80  1  0.12978135  0.11669430  -0.00620150  1
  V  V81  1  0.01515364  0.00329976  0.50258980  1
  V  V82  1  0.12566929  0.62323523  0.50059449  1
  V  V83  1  -0.00622412  0.37776612  0.87248090  1
  V  V84  1  0.75259052  0.60768472  0.37306538  1
  Zn  Zn85  1  0.12312498  0.49455252  0.12286998  1
  Zn  Zn86  1  0.23949274  0.00816472  0.76141078  1
  Zn  Zn87  1  0.76314082  0.74314421  0.50470662  1
  Zn  Zn88  1  0.74835029  -0.00019989  0.75003604  1
  Zn  Zn89  1  0.88120382  0.87173794  0.50642442  1
  Zn  Zn90  1  0.25669015  0.62697928  0.37230386  1
  Zn  Zn91  1  0.12805417  0.75506229  0.86986198  1
  Zn  Zn92  1  0.12286006  -0.00463300  0.12169895  1
  Zn  Zn93  1  0.50246604  0.37101782  0.37953646  1
  Zn  Zn94  1  0.25447353  0.63117730  0.87973665  1
  Zn  Zn95  1  0.12258021  0.50373829  0.62155528  1
  Zn  Zn96  1  0.24157374  0.37172865  0.61687593  1
  Zn  Zn97  1  0.75117281  0.48595578  0.76367016  1
  Zn  Zn98  1  0.36023258  0.75059215  0.12845439  1
  Zn  Zn99  1  0.25245499  0.24782721  -0.00628155  1
  Zn  Zn100  1  0.87137652  0.74986643  0.12526932  1
  Zn  Zn101  1  0.75598400  0.61645167  0.87824358  1
  Zn  Zn102  1  -0.01066044  0.63240163  0.61846589  1
  Zn  Zn103  1  0.36340949  0.36965229  0.49467688  1
  Zn  Zn104  1  0.11820256  0.88187014  0.75187637  1
  Zn  Zn105  1  0.37398019  0.37310482  -0.00379583  1
  Zn  Zn106  1  -0.00196733  0.87652059  0.87544060  1
  Zn  Zn107  1  0.18692942  0.18589978  0.18681157  1
  Zn  Zn108  1  0.18835407  0.18824918  0.69164957  1
  Zn  Zn109  1  0.18136559  0.66867925  0.18570349  1
  Zn  Zn110  1  0.18568213  0.69427794  0.68898062  1
  Zn  Zn111  1  0.68794406  0.18941069  0.18738488  1
  Zn  Zn112  1  0.68951395  0.19089192  0.68301389  1
  Zn  Zn113  1  0.68701471  0.68907158  0.19038146  1
  Zn  Zn114  1  0.68929999  0.68696598  0.69168722  1
  Zn  Zn115  1  0.31308668  0.31507888  0.31716405  1
  Zn  Zn116  1  0.31521633  0.31408266  0.80575240  1
  Zn  Zn117  1  0.31872372  0.81291293  0.31880747  1
  Zn  Zn118  1  0.30814154  0.81332829  0.81788571  1
  Zn  Zn119  1  0.80997123  0.30611516  0.31223210  1
  Zn  Zn120  1  0.81138667  0.31032224  0.81270772  1
  Zn  Zn121  1  0.81526147  0.80874575  0.31436870  1
  Zn  Zn122  1  0.81178402  0.81123977  0.81120829  1
  Zn  Zn123  1  0.18592192  0.43721594  0.43768778  1
  Zn  Zn124  1  0.18583589  0.44090949  0.93502621  1
  Zn  Zn125  1  0.19433904  0.93594819  0.43642612  1
  Zn  Zn126  1  0.18494654  0.93429008  0.93227647  1
  Zn  Zn127  1  0.68862051  0.43354332  0.44451590  1
  Zn  Zn128  1  0.68741581  0.44100541  0.94385627  1
  Zn  Zn129  1  0.68838344  0.94110155  0.44138415  1
  Zn  Zn130  1  0.68700054  0.94048521  0.93802971  1
  Zn  Zn131  1  0.31104072  0.06103085  -0.05967339  1
  Zn  Zn132  1  0.31581158  0.06468412  0.56503688  1
  Zn  Zn133  1  0.31200271  0.55854089  0.06354379  1
  Zn  Zn134  1  0.31246670  0.56064108  0.56197424  1
  Zn  Zn135  1  0.81020585  0.06181260  0.06243643  1
  Zn  Zn136  1  0.81112107  0.05729529  0.55918173  1
  Zn  Zn137  1  0.81198696  0.56172797  0.06107104  1
  Zn  Zn138  1  0.80959831  0.56324803  0.56910265  1
  Zn  Zn139  1  0.43820350  0.43443162  0.19014396  1
  Zn  Zn140  1  0.43839321  0.43532778  0.69053883  1
  Zn  Zn141  1  0.43529903  0.93917577  0.18850624  1
  Zn  Zn142  1  0.43827531  0.94110468  0.69079029  1
  Zn  Zn143  1  0.93763767  0.43609687  0.18675848  1
  Zn  Zn144  1  0.94048921  0.44422745  0.68381231  1
  Zn  Zn145  1  0.93725211  0.93814105  0.18822843  1
  Zn  Zn146  1  0.93769019  0.94545257  0.68738721  1
  Zn  Zn147  1  0.06281492  0.06660531  0.31637529  1
  Zn  Zn148  1  0.06432448  0.05963909  0.81064144  1
  Zn  Zn149  1  0.06337388  0.56238542  0.31498757  1
  Zn  Zn150  1  0.05536788  0.56559984  0.80966658  1
  Zn  Zn151  1  0.56226712  0.06279606  0.31304305  1
  Zn  Zn152  1  0.56201745  0.06129587  0.81005425  1
  Zn  Zn153  1  0.56324928  0.56250991  0.31410737  1
  Zn  Zn154  1  0.56673291  0.56160589  0.81304962  1
  Zn  Zn155  1  0.43652064  0.18565899  0.44167914  1
  Zn  Zn156  1  0.44283985  0.19443929  0.93900695  1
  Zn  Zn157  1  0.44196683  0.68499296  0.44170018  1
  Zn  Zn158  1  0.43691024  0.69061325  0.94076036  1
  Zn  Zn159  1  0.94218401  0.18451653  0.43591899  1
  Zn  Zn160  1  0.93830348  0.18932599  0.93442857  1
  Zn  Zn161  1  0.93602587  0.68758314  0.43546590  1
  Zn  Zn162  1  0.93723919  0.69122557  0.93073444  1
  Zn  Zn163  1  0.06242835  0.30808683  0.06086884  1
  Zn  Zn164  1  0.05212890  0.31760306  0.56484840  1
  Zn  Zn165  1  0.05602808  0.80753115  0.05678215  1
  Zn  Zn166  1  0.06115948  0.81224880  0.56182780  1
  Zn  Zn167  1  0.56241564  0.31494974  0.06404692  1
  Zn  Zn168  1  0.56117413  0.30672785  0.56415552  1
  Zn  Zn169  1  0.55928824  0.81276524  0.06323200  1
  Zn  Zn170  1  0.56414190  0.80997102  0.56305579  1
  O  O171  1  0.11768040  0.12661044  0.11230213  1
  O  O172  1  0.11709227  0.12885308  0.62571400  1
  O  O173  1  0.11046869  0.61715401  0.11351927  1
  O  O174  1  0.12445374  0.62876893  0.60957905  1
  O  O175  1  0.62099140  0.11798116  0.12132576  1
  O  O176  1  0.61945300  0.11910930  0.62016820  1
  O  O177  1  0.61938054  0.61833470  0.12302357  1
  O  O178  1  0.62026936  0.61851282  0.62304083  1
  O  O179  1  0.38207639  0.38573347  0.37787059  1
  O  O180  1  0.38123053  0.38710591  0.87178867  1
  O  O181  1  0.38133392  0.88363090  0.38550985  1
  O  O182  1  0.38874196  0.86735749  0.88537258  1
  O  O183  1  0.88859015  0.36954063  0.36551498  1
  O  O184  1  0.88307535  0.36831257  0.88310641  1
  O  O185  1  0.88255145  0.88622296  0.36981612  1
  O  O186  1  0.86987968  0.88542587  0.88228307  1
  O  O187  1  0.25979308  0.00731602  0.36984331  1
  O  O188  1  0.25890403  -0.00822190  0.87200290  1
  O  O189  1  0.25943241  0.49983574  0.36794113  1
  O  O190  1  0.25874017  0.50418029  0.86443755  1
  O  O191  1  0.76127544  0.00959048  0.38071027  1
  O  O192  1  0.75582556  0.01003469  0.87247768  1
  O  O193  1  0.74333564  0.50853510  0.37701538  1
  O  O194  1  0.74611189  0.50263715  0.87554148  1
  O  O195  1  0.25007742  0.48726943  0.13229538  1
  O  O196  1  0.24746866  0.49950162  0.63689850  1
  O  O197  1  0.24589494  1.00088994  0.14512943  1
  O  O198  1  0.25905789  0.98632042  0.62663733  1
  O  O199  1  0.74048551  0.49011756  0.12040226  1
  O  O200  1  0.74236697  0.48202957  0.62282106  1
  O  O201  1  0.73882502  0.99190877  0.12177540  1
  O  O202  1  0.73993201  0.99124466  0.62740515  1
  O  O203  1  0.00740500  0.37016850  0.25392184  1
  O  O204  1  0.00248719  0.37055228  0.75410009  1
  O  O205  1  -0.00297172  0.86286686  0.25390664  1
  O  O206  1  -0.00647630  0.86682072  0.74864732  1
  O  O207  1  0.50988479  0.36592825  0.25136615  1
  O  O208  1  0.49938518  0.36171016  0.75692395  1
  O  O209  1  0.50645813  0.86947235  0.25772813  1
  O  O210  1  0.51002090  0.87995958  0.75881288  1
  O  O211  1  0.49564863  0.13187370  0.24498507  1
  O  O212  1  0.49252870  0.13450582  0.74783489  1
  O  O213  1  0.50638868  0.63419278  0.24219729  1
  O  O214  1  0.49343639  0.61803089  0.73877749  1
  O  O215  1  0.99316804  0.13117265  0.24444329  1
  O  O216  1  0.99377292  0.13176440  0.74079577  1
  O  O217  1  0.99740036  0.63178289  0.24270033  1
  O  O218  1  0.98883344  0.63248431  0.74472968  1
  O  O219  1  0.37219051  0.25248634  0.00950594  1
  O  O220  1  0.38355416  0.25179898  0.51940845  1
  O  O221  1  0.37650005  0.76300013  0.00730413  1
  O  O222  1  0.37344432  0.75640637  0.50735178  1
  O  O223  1  0.86750116  0.25533465  0.00580961  1
  O  O224  1  0.86424789  0.24501958  0.49771491  1
  O  O225  1  0.86419744  0.75721418  0.00041830  1
  O  O226  1  0.87444310  0.76004652  0.49168877  1
  O  O227  1  0.11881009  0.25649152  0.49187373  1
  O  O228  1  0.12750474  0.24380911  0.99070507  1
  O  O229  1  0.13070747  0.74543965  0.49159401  1
  O  O230  1  0.11706098  0.73058928  0.99840991  1
  O  O231  1  0.63382817  0.23696520  0.50489999  1
  O  O232  1  0.63292016  0.24076461  1.00837704  1
  O  O233  1  0.62479596  0.74068406  0.49215203  1
  O  O234  1  0.63088820  0.74695122  0.99614675  1
  O  O235  1  0.49347070  0.24660258  0.13246194  1
  O  O236  1  0.49429227  0.24211899  0.63684250  1
  O  O237  1  0.50302678  0.74083279  0.13542340  1
  O  O238  1  0.49019597  0.73988206  0.62140808  1
  O  O239  1  0.99344704  0.24220755  0.13097097  1
  O  O240  1  0.99999617  0.24095508  0.63311714  1
  O  O241  1  0.99679070  0.74008623  0.13209244  1
  O  O242  1  1.00003324  0.75036976  0.63646188  1
  O  O243  1  0.00826120  0.25538321  0.36991253  1
  O  O244  1  0.00847333  0.26101840  0.86833794  1
  O  O245  1  0.01011295  0.75324841  0.36458629  1
  O  O246  1  0.00229880  0.75298523  0.85933007  1
  O  O247  1  0.49677102  0.24890682  0.36412152  1
  O  O248  1  0.49821205  0.25900858  0.86305330  1
  O  O249  1  0.50998446  0.75356618  0.37090356  1
  O  O250  1  0.51262751  0.75947022  0.88311073  1
  O  O251  1  0.25414065  0.12341404  0.48886089  1
  O  O252  1  0.23444031  0.12932813  0.99904372  1
  O  O253  1  0.24451877  0.63165833  0.49735200  1
  O  O254  1  0.23131409  0.61435927  1.00238984  1
  O  O255  1  0.74604520  0.13431439  0.49538058  1
  O  O256  1  0.74511122  0.13245508  0.99359713  1
  O  O257  1  0.74430980  0.62462041  0.49331568  1
  O  O258  1  0.74373509  0.63512229  1.00108138  1
  O  O259  1  0.25048031  0.37465722  0.00907095  1
  O  O260  1  0.25074891  0.37801206  0.50494145  1
  O  O261  1  0.26587452  0.88067205  0.00257096  1
  O  O262  1  0.26377437  0.87055118  0.50906799  1
  O  O263  1  0.75062804  0.36732633  0.01111758  1
  O  O264  1  0.74855410  0.35961874  0.50819383  1
  O  O265  1  0.75347025  0.87026993  0.00938200  1
  O  O266  1  0.74710743  0.87458686  0.51560740  1
  O  O267  1  0.13058582  0.48739264  0.24961000  1
  O  O268  1  0.13091920  0.49599363  0.74946743  1
  O  O269  1  0.13689809  1.00343322  0.25237814  1
  O  O270  1  0.12657481  0.99657914  0.74573732  1
  O  O271  1  0.61971191  0.49154123  0.23977871  1
  O  O272  1  0.63015701  0.50285543  0.73601667  1
  O  O273  1  0.61980631  0.99436058  0.23801233  1
  O  O274  1  0.62627041  0.99350895  0.73851901  1
  O  O275  1  0.36634555  0.00654150  0.25710106  1
  O  O276  1  0.37901860  0.02094746  0.74871484  1
  O  O277  1  0.36770727  0.49346698  0.25919942  1
  O  O278  1  0.36969516  0.50899249  0.75397770  1
  O  O279  1  0.87892554  0.01257717  0.25777091  1
  O  O280  1  0.86970859  0.01071273  0.75788476  1
  O  O281  1  0.87997481  0.51384427  0.24650387  1
  O  O282  1  0.87328863  0.51111283  0.74890531  1
  O  O283  1  0.11738299  0.36828802  0.36709813  1
  O  O284  1  0.11782174  0.37110074  0.86482600  1
  O  O285  1  0.12151027  0.86282871  0.37889792  1
  O  O286  1  0.11378710  0.87213428  0.87353601  1
  O  O287  1  0.62560845  0.37900489  0.36257929  1
  O  O288  1  0.61435620  0.37647851  0.88074335  1
  O  O289  1  0.62216403  0.87098290  0.37374342  1
  O  O290  1  0.61922424  0.87067327  0.86819244  1
  O  O291  1  0.38050659  0.13958997  0.13388512  1
  O  O292  1  0.38233327  0.13443046  0.63224881  1
  O  O293  1  0.38466283  0.62881533  0.12155944  1
  O  O294  1  0.38262770  0.63074745  0.63108243  1
  O  O295  1  0.87982586  0.12682734  0.13029123  1
  O  O296  1  0.87635301  0.11853005  0.63526993  1
  O  O297  1  0.88271645  0.62655018  0.12930140  1
  O  O298  1  0.87196923  0.62662205  0.64050945  1
  O  O299  1  0.25732927  0.25899153  0.12696880  1
  O  O300  1  0.26522924  0.25145218  0.63273459  1
  O  O301  1  0.24321550  0.75749367  0.14593322  1
  O  O302  1  0.26473190  0.75654836  0.62090873  1
  O  O303  1  0.75562225  0.25480812  0.11556964  1
  O  O304  1  0.75154144  0.25975127  0.61434277  1
  O  O305  1  0.74784817  0.75835500  0.11495643  1
  O  O306  1  0.73974040  0.76565111  0.62307335  1
  O  O307  1  0.24086903  0.24224101  0.37070784  1
  O  O308  1  0.23559474  0.25880370  0.87154811  1
  O  O309  1  0.24587058  0.74899100  0.38100159  1
  O  O310  1  0.24259820  0.74248255  0.87128011  1
  O  O311  1  0.75074057  0.24143723  0.38829176  1
  O  O312  1  0.75191899  0.24454504  0.88842320  1
  O  O313  1  0.73771209  0.74724324  0.37595153  1
  O  O314  1  0.73863933  0.75269256  0.88622876  1
  O  O315  1  0.00951583  0.13360014  0.00856625  1
  O  O316  1  -0.00251811  0.11304354  0.50697145  1
  O  O317  1  0.00044394  0.61784052  0.00418911  1
  O  O318  1  0.00663640  0.61668721  0.49620901  1
  O  O319  1  0.50425927  0.11913024  0.00423800  1
  O  O320  1  0.50915646  0.12981122  0.51137941  1
  O  O321  1  0.50533114  0.62018186  0.00985656  1
  O  O322  1  0.50549955  0.61303398  0.51325386  1
  O  O323  1  0.50205111  0.38414116  0.50088021  1
  O  O324  1  0.49712905  0.38125174  0.99318298  1
  O  O325  1  0.49083056  0.87170682  0.49550327  1
  O  O326  1  0.49826937  0.88326610  0.99366971  1
  O  O327  1  1.00028536  0.39069872  0.49171566  1
  O  O328  1  0.99583842  0.37986922  0.99257097  1
  O  O329  1  1.00194987  0.88711345  0.49359771  1
  O  O330  1  0.98122239  0.87173874  0.99973364  1
  O  O331  1  0.49697626  0.49898852  0.38572896  1
  O  O332  1  0.49574847  0.49346623  0.87819644  1
  O  O333  1  0.48605790  0.99601682  0.36937799  1
  O  O334  1  0.50805906  0.99015123  0.88508100  1
  O  O335  1  1.00251129  0.49287352  0.38527524  1
  O  O336  1  1.00169778  0.48645857  0.87927646  1
  O  O337  1  0.99292824  0.99953093  0.38327979  1
  O  O338  1  0.98302793  1.00290724  0.87328085  1
  O  O339  1  0.00295530  0.01401713  0.13116851  1
  O  O340  1  -0.00146496  0.00678032  0.60989803  1
  O  O341  1  0.00058387  0.50558677  0.11667411  1
  O  O342  1  0.00290143  0.50599293  0.60932371  1
  O  O343  1  0.50530795  0.00762193  0.11956811  1
  O  O344  1  0.50611474  0.01412132  0.62978840  1
  O  O345  1  0.50391141  0.50697376  0.12368735  1
  O  O346  1  0.50944553  0.50194748  0.62275120  1
  O  O347  1  0.24323341  0.38045256  0.24442166  1
  O  O348  1  0.24056053  0.38413462  0.74694956  1
  O  O349  1  0.25029855  0.88711902  0.25806450  1
  O  O350  1  0.25567169  0.87533048  0.73489502  1
  O  O351  1  0.74347848  0.36554389  0.23807351  1
  O  O352  1  0.75404598  0.36945149  0.73351080  1
  O  O353  1  0.74473456  0.86765211  0.23751949  1
  O  O354  1  0.73747307  0.87539849  0.74148731  1
  O  O355  1  0.25404539  0.11714179  0.25705866  1
  O  O356  1  0.26634131  0.12676310  0.74986361  1
  O  O357  1  0.24601498  0.60571506  0.25289860  1
  O  O358  1  0.25886030  0.61934323  0.74822115  1
  O  O359  1  0.75754620  0.13215571  0.26090520  1
  O  O360  1  0.75619062  0.12950512  0.75624662  1
  O  O361  1  0.75840013  0.62892319  0.25865247  1
  O  O362  1  0.76064912  0.62370155  0.75341791  1
  O  O363  1  0.36927954  0.12065094  0.37142184  1
  O  O364  1  0.37660647  0.13031473  0.86873679  1
  O  O365  1  0.37716030  0.61032890  0.38114842  1
  O  O366  1  0.37977861  0.61591099  0.86831860  1
  O  O367  1  0.86826293  0.11914977  0.36807091  1
  O  O368  1  0.86456647  0.12175086  0.87027677  1
  O  O369  1  0.86367852  0.62762209  0.36523720  1
  O  O370  1  0.87289369  0.63095236  0.85782630  1
  O  O371  1  0.13222133  0.37309376  0.13168413  1
  O  O372  1  0.12070754  0.37767900  0.63891562  1
  O  O373  1  0.12122552  0.87640866  0.12318421  1
  O  O374  1  0.14428753  0.86975039  0.62106295  1
  O  O375  1  0.63124797  0.38255373  0.13310049  1
  O  O376  1  0.62800145  0.38175338  0.62368175  1
  O  O377  1  0.62983660  0.88255696  0.12907710  1
  O  O378  1  0.62582176  0.88208812  0.63075802  1
  O  O379  1  0.12105392  0.26032541  0.25195444  1
  O  O380  1  0.11559325  0.25687507  0.75579867  1
  O  O381  1  0.12321497  0.75491799  0.25218169  1
  O  O382  1  0.10912352  0.75453385  0.74834981  1
  O  O383  1  0.61551313  0.25916876  0.24403480  1
  O  O384  1  0.60996340  0.24382198  0.74741360  1
  O  O385  1  0.61677708  0.75710796  0.25855337  1
  O  O386  1  0.62592703  0.75824699  0.76016118  1
  O  O387  1  0.38242033  0.24737443  0.24565894  1
  O  O388  1  0.38369229  0.24094024  0.74353706  1
  O  O389  1  0.38950776  0.75510707  0.24953570  1
  O  O390  1  0.37564086  0.73849630  0.74478986  1
  O  O391  1  0.87978872  0.23808909  0.24404702  1
  O  O392  1  0.88755634  0.24077609  0.75731301  1
  O  O393  1  0.88439543  0.74108996  0.24723306  1
  O  O394  1  0.88453482  0.74423361  0.75057451  1
  O  O395  1  0.38519268  0.49674684  0.49700950  1
  O  O396  1  0.38048088  0.49890381  0.98998627  1
  O  O397  1  0.37408996  0.99276721  0.49269315  1
  O  O398  1  0.38795821  0.99251629  1.00152647  1
  O  O399  1  0.88674157  0.50791024  0.49946573  1
  O  O400  1  0.88684313  0.49311669  1.00422519  1
  O  O401  1  0.88260381  0.99461142  0.49084694  1
  O  O402  1  0.86600016  0.99223887  0.99132749  1
  O  O403  1  0.12545337  0.01381255  0.00105606  1
  O  O404  1  0.11375897  -0.00034774  0.49108170  1
  O  O405  1  0.11068230  0.50451527  0.00053575  1
  O  O406  1  0.11841315  0.51119048  0.49776427  1
  O  O407  1  0.61672572  0.00562818  0.01073381  1
  O  O408  1  0.62841929  0.01186821  0.51223640  1
  O  O409  1  0.61662291  0.50470309  0.01487875  1
  O  O410  1  0.61926331  0.50322235  0.51197835  1
  O  O411  1  0.36848882  0.36470070  0.12519931  1
  O  O412  1  0.37613093  0.36025272  0.62933481  1
  O  O413  1  0.38166486  0.87196318  0.11231549  1
  O  O414  1  0.37614075  0.86891343  0.62147298  1
  O  O415  1  0.86685676  0.37009013  0.12026654  1
  O  O416  1  0.86735048  0.37631318  0.62276342  1
  O  O417  1  0.86551930  0.87634899  0.11950235  1
  O  O418  1  0.85702028  0.88264979  0.62835899  1
  O  O419  1  0.13323285  0.13901839  0.37225582  1
  O  O420  1  0.11435636  0.13434042  0.88689769  1
  O  O421  1  0.12756674  0.63732047  0.38200072  1
  O  O422  1  0.12182899  0.61965766  0.88854684  1
  O  O423  1  0.63609706  0.11679573  0.38322548  1
  O  O424  1  0.63787725  0.11952491  0.87933937  1
  O  O425  1  0.63143850  0.63159673  0.38031883  1
  O  O426  1  0.62339310  0.63417792  0.88353408  1
