# generated using pymatgen
data_V85Zn86O256
_symmetry_space_group_name_H-M   'P 1'
_cell_length_a   16.93134763
_cell_length_b   16.92728341
_cell_length_c   16.94069400
_cell_angle_alpha   90.01987166
_cell_angle_beta   89.99031408
_cell_angle_gamma   90.10376640
_symmetry_Int_Tables_number   1
_chemical_formula_structural   V85Zn86O256
_chemical_formula_sum   'V85 Zn86 O256'
_cell_volume   4855.22371199
_cell_formula_units_Z   1
loop_
 _symmetry_equiv_pos_site_id
 _symmetry_equiv_pos_as_xyz
  1  'x, y, z'
loop_
 _atom_site_type_symbol
 _atom_site_label
 _atom_site_symmetry_multiplicity
 _atom_site_fract_x
 _atom_site_fract_y
 _atom_site_fract_z
 _atom_site_occupancy
  V  V0  1  0.37404494  0.25481469  0.12530791  1
  V  V1  1  0.63421502  0.76472856  0.38130177  1
  V  V2  1  0.23049629  0.49676726  0.25736131  1
  V  V3  1  0.62432898  -0.00254025  0.13012254  1
  V  V4  1  0.74790088  0.12405746  0.87089601  1
  V  V5  1  0.37421550  0.12456497  0.25037743  1
  V  V6  1  0.03530663  0.59868256  0.12087860  1
  V  V7  1  0.00779479  0.25481329  0.25108697  1
  V  V8  1  0.37665797  0.13712312  0.74314273  1
  V  V9  1  0.37380634  0.50292115  0.87731036  1
  V  V10  1  0.63247436  0.62916047  0.00167345  1
  V  V11  1  0.37404538  0.87547534  0.49124047  1
  V  V12  1  0.25189022  0.12435857  0.37643448  1
  V  V13  1  0.74672110  0.87205003  0.12247680  1
  V  V14  1  0.87801051  0.12227702  0.74993976  1
  V  V15  1  0.87490433  0.25059208  0.12351818  1
  V  V16  1  0.12248713  0.86261187  0.25378076  1
  V  V17  1  0.74662503  0.00038598  0.74135109  1
  V  V18  1  -0.00256104  -0.00285053  -0.00295925  1
  V  V19  1  0.86939138  0.86845041  -0.00028676  1
  V  V20  1  0.24481739  0.75416472  0.49861090  1
  V  V21  1  0.62248256  0.88017657  0.74621345  1
  V  V22  1  0.50262249  0.13922886  0.62605439  1
  V  V23  1  0.61998450  0.25046237  0.86379737  1
  V  V24  1  0.74895887  -0.00151852  0.25260665  1
  V  V25  1  0.62401894  0.12570011  -0.00179632  1
  V  V26  1  0.88417517  0.37742637  -0.00381468  1
  V  V27  1  0.00208744  0.86743086  0.37697079  1
  V  V28  1  0.12304327  -0.00232410  0.12493421  1
  V  V29  1  0.25188037  -0.00671097  0.74342609  1
  V  V30  1  0.23859058  0.62245138  0.87939393  1
  V  V31  1  0.37550057  0.37307579  0.51197851  1
  V  V32  1  0.74948056  0.61980186  0.86560008  1
  V  V33  1  0.37352006  0.87063474  -0.00142481  1
  V  V34  1  0.38772220  0.61220236  0.25524443  1
  V  V35  1  0.12213270  0.62632525  0.49438788  1
  V  V36  1  0.87580880  0.12781884  0.25222580  1
  V  V37  1  0.50065416  0.62598322  0.62076567  1
  V  V38  1  0.12730900  0.49132825  0.62678329  1
  V  V39  1  0.62375095  0.49644792  0.12321988  1
  V  V40  1  0.74935860  0.38089892  0.12205250  1
  V  V41  1  0.12296768  0.86591981  0.74692110  1
  V  V42  1  0.62980374  0.75268750  0.87969593  1
  V  V43  1  0.88252372  0.75237241  0.63321031  1
  V  V44  1  0.12405788  0.12307978  -0.00498379  1
  V  V45  1  0.62924780  0.12681713  0.50110325  1
  V  V46  1  0.25608238  0.24632012  0.50972702  1
  V  V47  1  0.50779746  -0.00482884  0.50237693  1
  V  V48  1  0.37426264  -0.00036691  0.87190673  1
  V  V49  1  0.12486367  0.26275029  0.87240663  1
  V  V50  1  0.49714211  0.37280713  0.86912926  1
  V  V51  1  0.87845183  0.49591471  0.86580882  1
  V  V52  1  0.87764358  0.37393821  0.50119850  1
  V  V53  1  0.49972101  0.12693630  0.12586507  1
  V  V54  1  0.12594771  -0.00681210  0.62161920  1
  V  V55  1  -0.00115138  0.12404753  0.12318890  1
  V  V56  1  0.36914665  0.75798157  0.62258382  1
  V  V57  1  0.74939723  0.25021333  -0.00286116  1
  V  V58  1  0.00977552  0.37788812  0.37506514  1
  V  V59  1  0.74359294  0.86889699  0.61621042  1
  V  V60  1  -0.00047404  0.11826407  0.62249566  1
  V  V61  1  -0.00205429  0.50116012  0.50303767  1
  V  V62  1  0.24694706  0.49185968  0.75072207  1
  V  V63  1  0.12054271  0.12034222  0.49816561  1
  V  V64  1  0.88015393  0.00052026  0.38127017  1
  V  V65  1  0.48528708  0.38239614  0.37111100  1
  V  V66  1  0.75055064  0.37971165  0.63605583  1
  V  V67  1  0.00531889  0.25936870  0.75134897  1
  V  V68  1  0.87502560  0.74172798  0.12944014  1
  V  V69  1  0.50285603  0.77209301  0.25896633  1
  V  V70  1  0.50583605  0.25209850  0.25296215  1
  V  V71  1  0.66675387  0.42060606  0.29652267  1
  V  V72  1  0.49880733  -0.00058323  -0.00108721  1
  V  V73  1  0.49860666  0.75261988  0.75006303  1
  V  V74  1  0.49708308  0.50367041  0.00018044  1
  V  V75  1  0.87503787  0.86978489  0.49792136  1
  V  V76  1  0.49985112  0.50286010  0.49811469  1
  V  V77  1  0.23818401  0.74579581  0.00110160  1
  V  V78  1  0.25018188  0.62578141  0.37500227  1
  V  V79  1  0.23691204  0.38001242  0.12938187  1
  V  V80  1  0.24863648  0.12337661  0.87385371  1
  V  V81  1  -0.00295315  0.86454975  0.87032787  1
  V  V82  1  0.24808568  0.87296870  0.12540382  1
  V  V83  1  0.24782277  -0.00207054  0.25121009  1
  V  V84  1  0.37240250  0.62734174  0.74998014  1
  Zn  Zn85  1  0.24812057  0.25151184  0.00196322  1
  Zn  Zn86  1  0.87344228  0.24812847  0.62541205  1
  Zn  Zn87  1  0.49977992  0.87485306  0.87422021  1
  Zn  Zn88  1  0.87266882  -0.00427717  0.87363884  1
  Zn  Zn89  1  0.75277014  0.13555094  0.37561396  1
  Zn  Zn90  1  0.11626846  0.74277119  0.87171738  1
  Zn  Zn91  1  0.37688064  0.74647938  0.12950766  1
  Zn  Zn92  1  -0.00920814  0.73803344  0.25465533  1
  Zn  Zn93  1  0.74967120  0.26062302  0.49366899  1
  Zn  Zn94  1  0.37245174  0.37842592  0.00429401  1
  Zn  Zn95  1  0.82769431  0.56106156  0.29685899  1
  Zn  Zn96  1  0.88422385  0.63269298  0.75591063  1
  Zn  Zn97  1  0.65373997  0.64884097  0.50121645  1
  Zn  Zn98  1  0.12838011  0.25004678  0.37359690  1
  Zn  Zn99  1  0.38143626  -0.00358199  0.37281833  1
  Zn  Zn100  1  0.01103991  0.49879982  -0.00622213  1
  Zn  Zn101  1  0.63164662  0.51081382  0.63359144  1
  Zn  Zn102  1  0.62328834  0.38249979  0.74973324  1
  Zn  Zn103  1  0.63128185  0.25115751  0.37214098  1
  Zn  Zn104  1  0.00887489  0.63137649  0.63373177  1
  Zn  Zn105  1  0.25162567  0.36582949  0.63236604  1
  Zn  Zn106  1  0.50245598  0.62893031  0.13021735  1
  Zn  Zn107  1  0.18785662  0.18627597  0.18487843  1
  Zn  Zn108  1  0.18544025  0.18175730  0.68877216  1
  Zn  Zn109  1  0.19126725  0.68539859  0.19114259  1
  Zn  Zn110  1  0.18888649  0.68109452  0.68347143  1
  Zn  Zn111  1  0.69005513  0.18750708  0.18613723  1
  Zn  Zn112  1  0.68762543  0.19292951  0.67982209  1
  Zn  Zn113  1  0.69179719  0.68988476  0.19107566  1
  Zn  Zn114  1  0.68765951  0.69234436  0.68844826  1
  Zn  Zn115  1  0.31103820  0.31276978  0.31277396  1
  Zn  Zn116  1  0.31216559  0.31279489  0.81844629  1
  Zn  Zn117  1  0.31387620  0.80525878  0.31281888  1
  Zn  Zn118  1  0.30790771  0.81103632  0.81404211  1
  Zn  Zn119  1  0.82491123  0.33942266  0.30747874  1
  Zn  Zn120  1  0.81686147  0.30962123  0.81239456  1
  Zn  Zn121  1  0.80847654  0.81486509  0.30964515  1
  Zn  Zn122  1  0.80643868  0.81263894  0.81251961  1
  Zn  Zn123  1  0.18866614  0.43763490  0.43985516  1
  Zn  Zn124  1  0.18394027  0.44077896  0.94639587  1
  Zn  Zn125  1  0.18786047  0.93690404  0.43673990  1
  Zn  Zn126  1  0.18532503  0.93366577  0.93323237  1
  Zn  Zn127  1  0.71345280  0.48127767  0.47287666  1
  Zn  Zn128  1  0.68846093  0.43874911  0.93477105  1
  Zn  Zn129  1  0.68613105  0.93760960  0.43383156  1
  Zn  Zn130  1  0.68677651  0.93948427  0.93576584  1
  Zn  Zn131  1  0.31126706  0.06195903  0.06187912  1
  Zn  Zn132  1  0.31611532  0.06090762  0.56413395  1
  Zn  Zn133  1  0.30484968  0.56343265  0.06969245  1
  Zn  Zn134  1  0.31529257  0.56182790  0.56125164  1
  Zn  Zn135  1  0.81205219  0.06011421  0.06087650  1
  Zn  Zn136  1  0.81225251  0.05781478  0.56175380  1
  Zn  Zn137  1  0.81212242  0.56033678  0.05568609  1
  Zn  Zn138  1  0.81822857  0.56525078  0.57009559  1
  Zn  Zn139  1  0.43604806  0.44012190  0.18840646  1
  Zn  Zn140  1  0.43694042  0.44025640  0.68887531  1
  Zn  Zn141  1  0.43291783  0.93955212  0.18371563  1
  Zn  Zn142  1  0.43864620  0.94152176  0.67968872  1
  Zn  Zn143  1  0.93723965  0.44088101  0.19295013  1
  Zn  Zn144  1  0.93773441  0.43962654  0.68569775  1
  Zn  Zn145  1  0.93560771  0.93477485  0.18933832  1
  Zn  Zn146  1  0.93771026  0.93614488  0.68639676  1
  Zn  Zn147  1  0.06110948  0.05894507  0.31299727  1
  Zn  Zn148  1  0.06221548  0.05666299  0.81104289  1
  Zn  Zn149  1  0.02220653  0.58083606  0.32586508  1
  Zn  Zn150  1  0.05835131  0.55903647  0.80770245  1
  Zn  Zn151  1  0.56357953  0.06182711  0.31808694  1
  Zn  Zn152  1  0.55930921  0.06312187  0.80806846  1
  Zn  Zn153  1  0.63459091  0.59326980  0.30854557  1
  Zn  Zn154  1  0.56220479  0.56358434  0.81065712  1
  Zn  Zn155  1  0.43944709  0.18768945  0.43885307  1
  Zn  Zn156  1  0.43476792  0.18784574  0.93717918  1
  Zn  Zn157  1  0.44296649  0.68705058  0.42978600  1
  Zn  Zn158  1  0.43849132  0.68755978  0.93722189  1
  Zn  Zn159  1  0.93769354  0.19173768  0.43805210  1
  Zn  Zn160  1  0.93836143  0.18860185  0.93276266  1
  Zn  Zn161  1  0.92172482  0.68339149  0.43856690  1
  Zn  Zn162  1  0.93504602  0.68290367  0.94807178  1
  Zn  Zn163  1  0.06377726  0.31125630  0.06109243  1
  Zn  Zn164  1  0.06610254  0.30782740  0.56372562  1
  Zn  Zn165  1  0.05714593  0.81105636  0.06364575  1
  Zn  Zn166  1  0.06065521  0.81494742  0.55599930  1
  Zn  Zn167  1  0.56067959  0.31447013  0.05638445  1
  Zn  Zn168  1  0.56774924  0.31553583  0.55877067  1
  Zn  Zn169  1  0.55884575  0.81165389  0.06700639  1
  Zn  Zn170  1  0.55951075  0.81384733  0.56147317  1
  O  O171  1  0.11865988  0.11866162  0.11608959  1
  O  O172  1  0.11843525  0.11371585  0.61938766  1
  O  O173  1  0.13291073  0.62012680  0.11784455  1
  O  O174  1  0.12795103  0.61377513  0.61280044  1
  O  O175  1  0.62094405  0.11706147  0.11804068  1
  O  O176  1  0.61235675  0.12768058  0.61957545  1
  O  O177  1  0.62540235  0.61460611  0.11734711  1
  O  O178  1  0.61674818  0.63246125  0.61763239  1
  O  O179  1  0.38227064  0.37027366  0.38527805  1
  O  O180  1  0.37997163  0.38218597  0.88259482  1
  O  O181  1  0.36861266  0.87625587  0.38722261  1
  O  O182  1  0.37491928  0.88047426  0.88243072  1
  O  O183  1  0.89448347  0.36899981  0.39526877  1
  O  O184  1  0.86735288  0.38702432  0.88175516  1
  O  O185  1  0.87764221  0.88052241  0.38072835  1
  O  O186  1  0.87812861  0.87385961  0.88156012  1
  O  O187  1  0.25242412  0.01070849  0.37023696  1
  O  O188  1  0.25432660  0.00502084  0.86784194  1
  O  O189  1  0.24643453  0.50836125  0.36593151  1
  O  O190  1  0.25612935  0.50512216  0.87043528  1
  O  O191  1  0.76026610  0.00411810  0.36629235  1
  O  O192  1  0.74977170  0.00702061  0.86207499  1
  O  O193  1  0.72621057  0.47449321  0.35730766  1
  O  O194  1  0.76190209  0.50926828  0.88051341  1
  O  O195  1  0.25218509  0.48686388  0.13979857  1
  O  O196  1  0.24630836  0.49991668  0.63493045  1
  O  O197  1  0.24342956  0.99286970  0.12986347  1
  O  O198  1  0.24063544  1.00380391  0.63320862  1
  O  O199  1  0.74313442  0.48734344  0.11843271  1
  O  O200  1  0.75146085  0.48548976  0.62632627  1
  O  O201  1  0.74238835  0.99637310  0.13069886  1
  O  O202  1  0.75296725  0.98949899  0.63653887  1
  O  O203  1  0.00100835  0.36522779  0.26146762  1
  O  O204  1  -0.00180307  0.35754142  0.74412986  1
  O  O205  1  0.00797482  0.87350891  0.25567734  1
  O  O206  1  0.00856977  0.87961145  0.75940726  1
  O  O207  1  0.48869115  0.36741055  0.26200999  1
  O  O208  1  0.49642758  0.37748394  0.76553186  1
  O  O209  1  0.49811716  0.87065077  0.24621287  1
  O  O210  1  0.50572588  0.87215758  0.74823614  1
  O  O211  1  0.49236606  0.13017810  0.24526437  1
  O  O212  1  0.49235589  0.12078658  0.73478918  1
  O  O213  1  0.48909462  0.62080054  0.25363070  1
  O  O214  1  0.49241386  0.63463205  0.74303845  1
  O  O215  1  0.98965345  0.12780643  0.24502755  1
  O  O216  1  0.99249656  0.12541597  0.74489717  1
  O  O217  1  1.01255678  0.62772221  0.22125339  1
  O  O218  1  0.99776761  0.62932908  0.74650813  1
  O  O219  1  0.37223304  0.24949850  0.01459130  1
  O  O220  1  0.36524102  0.25584965  0.49645903  1
  O  O221  1  0.37108885  0.76099363  0.00062307  1
  O  O222  1  0.37002293  0.75676964  0.50417217  1
  O  O223  1  0.86913132  0.25430481  0.00156026  1
  O  O224  1  0.87612661  0.25906463  0.50725079  1
  O  O225  1  0.87233364  0.76237605  0.01064169  1
  O  O226  1  0.87292620  0.76219411  0.50829667  1
  O  O227  1  0.13374010  0.23430938  0.49966351  1
  O  O228  1  0.12417201  0.24117672  0.98959636  1
  O  O229  1  0.13477828  0.74176228  0.50706141  1
  O  O230  1  0.13547339  0.75592313  0.99790307  1
  O  O231  1  0.62828734  0.24104111  0.49518827  1
  O  O232  1  0.63046663  0.24356668  0.99273240  1
  O  O233  1  0.62960456  0.76236638  0.49009912  1
  O  O234  1  0.61545577  0.74141435  0.99229268  1
  O  O235  1  0.49346988  0.24778907  0.12958327  1
  O  O236  1  0.50098160  0.23839041  0.61968771  1
  O  O237  1  0.49857357  0.74759756  0.13987329  1
  O  O238  1  0.49156123  0.74260212  0.62829569  1
  O  O239  1  0.99489268  0.24372374  0.13055925  1
  O  O240  1  1.00382451  0.23598745  0.63697539  1
  O  O241  1  0.98109458  0.75168810  0.12559618  1
  O  O242  1  0.98536170  0.75441229  0.62075185  1
  O  O243  1  0.00385186  0.25449281  0.36633505  1
  O  O244  1  0.00904309  0.24529519  0.86063742  1
  O  O245  1  -0.00689238  0.76410477  0.37169216  1
  O  O246  1  -0.00141931  0.76029282  0.88554225  1
  O  O247  1  0.49966455  0.25817770  0.36689972  1
  O  O248  1  0.50773441  0.26016439  0.88434755  1
  O  O249  1  0.49815304  0.76207361  0.36303671  1
  O  O250  1  0.50896427  0.75170787  0.86712419  1
  O  O251  1  0.24735202  0.12837055  0.49324921  1
  O  O252  1  0.24299939  0.12536420  0.99293005  1
  O  O253  1  0.24628814  0.62959748  0.49194584  1
  O  O254  1  0.26022753  0.63582450  0.99117223  1
  O  O255  1  0.73762880  0.12296551  0.50365372  1
  O  O256  1  0.74481023  0.12815173  0.99146449  1
  O  O257  1  0.74804413  0.59014851  0.48734603  1
  O  O258  1  0.73627144  0.62267236  0.99018590  1
  O  O259  1  0.25269637  0.37312018  0.01750810  1
  O  O260  1  0.25875184  0.36443006  0.50092667  1
  O  O261  1  0.25554719  0.86789989  0.00237349  1
  O  O262  1  0.25464154  0.86212235  0.49568888  1
  O  O263  1  0.75687878  0.36935641  0.00552939  1
  O  O264  1  0.76385041  0.38168434  0.50895733  1
  O  O265  1  0.75837072  0.88550822  0.00881423  1
  O  O266  1  0.75758336  0.88598432  0.51045155  1
  O  O267  1  0.13471406  0.50363979  0.25583343  1
  O  O268  1  0.13596941  0.50231985  0.74145992  1
  O  O269  1  0.13006600  0.99399612  0.24238472  1
  O  O270  1  0.13277117  0.99173136  0.74203644  1
  O  O271  1  0.61327959  0.49271318  0.24254466  1
  O  O272  1  0.62031286  0.49684752  0.74574905  1
  O  O273  1  0.63430474  1.01115017  0.24035686  1
  O  O274  1  0.63029515  0.98848076  0.75412451  1
  O  O275  1  0.36637247  0.00602017  0.25095853  1
  O  O276  1  0.36782638  0.00308830  0.75236792  1
  O  O277  1  0.37042038  0.51062753  0.25250763  1
  O  O278  1  0.36824236  0.50850748  0.75644764  1
  O  O279  1  0.86890868  0.00931453  0.25415269  1
  O  O280  1  0.86659109  0.00561054  0.75133761  1
  O  O281  1  0.85270708  0.45400191  0.26165776  1
  O  O282  1  0.87608494  0.50106473  0.76326767  1
  O  O283  1  0.11506955  0.36661271  0.38564472  1
  O  O284  1  0.13697437  0.36119000  0.87655990  1
  O  O285  1  0.11424627  0.88339784  0.36575365  1
  O  O286  1  0.11543398  0.87050982  0.86475661  1
  O  O287  1  0.60833558  0.36989125  0.36488129  1
  O  O288  1  0.61707425  0.36696731  0.87615267  1
  O  O289  1  0.62247641  0.86672666  0.37260357  1
  O  O290  1  0.62291510  0.86881206  0.86909709  1
  O  O291  1  0.37855132  0.13129285  0.13116988  1
  O  O292  1  0.38654735  0.12408277  0.63168002  1
  O  O293  1  0.37520323  0.62584422  0.14233434  1
  O  O294  1  0.37931383  0.63573347  0.63139297  1
  O  O295  1  0.87956203  0.12998840  0.13035786  1
  O  O296  1  0.88175524  0.12291030  0.63341251  1
  O  O297  1  0.85580017  0.64344906  0.12204482  1
  O  O298  1  0.87330012  0.64425031  0.62913004  1
  O  O299  1  0.25738615  0.26038568  0.12938387  1
  O  O300  1  0.24491867  0.24668193  0.61445089  1
  O  O301  1  0.25346753  0.75553317  0.11801303  1
  O  O302  1  0.25997208  0.74285480  0.61293068  1
  O  O303  1  0.75366211  0.25769507  0.11712756  1
  O  O304  1  0.75437736  0.26312556  0.61841808  1
  O  O305  1  0.75157305  0.76730011  0.12936241  1
  O  O306  1  0.75960053  0.76386366  0.62876136  1
  O  O307  1  0.24832976  0.23744195  0.37967451  1
  O  O308  1  0.24223424  0.24010579  0.87696094  1
  O  O309  1  0.24997020  0.73559750  0.38264194  1
  O  O310  1  0.24658512  0.74047110  0.88317476  1
  O  O311  1  0.75218370  0.25548168  0.37371960  1
  O  O312  1  0.74243055  0.24334189  0.87795632  1
  O  O313  1  0.73409550  0.75361867  0.36796481  1
  O  O314  1  0.73582892  0.74461239  0.87483779  1
  O  O315  1  0.00263733  0.11705756  0.00193272  1
  O  O316  1  0.00865320  0.12843899  0.50894409  1
  O  O317  1  -0.00621645  0.62228352  0.02652511  1
  O  O318  1  0.00580950  0.61843737  0.50626307  1
  O  O319  1  0.50270832  0.11941919  0.00699781  1
  O  O320  1  0.50779650  0.12124066  0.50854407  1
  O  O321  1  0.50795493  0.61606446  0.00113176  1
  O  O322  1  0.48758609  0.61659080  0.50867920  1
  O  O323  1  0.49186235  0.37599651  0.49175803  1
  O  O324  1  0.49777780  0.38897033  0.99145625  1
  O  O325  1  0.49161658  0.88851148  0.50486306  1
  O  O326  1  0.49004702  0.88120831  0.99988422  1
  O  O327  1  0.99813055  0.37971244  0.50114750  1
  O  O328  1  0.98673844  0.37066871  1.00142696  1
  O  O329  1  0.99009545  0.87702585  0.48927305  1
  O  O330  1  0.99110261  0.88035369  0.99430797  1
  O  O331  1  0.49949618  0.48294419  0.38283837  1
  O  O332  1  0.49226349  0.49718420  0.88241129  1
  O  O333  1  0.49540793  1.00999472  0.39492821  1
  O  O334  1  0.49212702  0.99905403  0.88084818  1
  O  O335  1  1.01129416  0.48794825  0.39097087  1
  O  O336  1  0.98326338  0.50265875  0.87751020  1
  O  O337  1  0.98504420  0.99043899  0.36645047  1
  O  O338  1  0.99760646  0.98790770  0.88192337  1
  O  O339  1  0.00264828  0.00439307  0.11807790  1
  O  O340  1  0.00818452  0.01085929  0.62988751  1
  O  O341  1  0.00787016  0.49830095  0.12559356  1
  O  O342  1  0.01131875  0.50092197  0.62090613  1
  O  O343  1  0.50661079  0.00654237  0.12079208  1
  O  O344  1  0.49604114  0.01181566  0.60776859  1
  O  O345  1  0.50664827  0.50135413  0.11694174  1
  O  O346  1  0.49539620  0.51624927  0.62252231  1
  O  O347  1  0.25166326  0.38708260  0.24609043  1
  O  O348  1  0.25813678  0.38769520  0.75009704  1
  O  O349  1  0.24266930  0.87734434  0.24762420  1
  O  O350  1  0.24202235  0.88680415  0.75503526  1
  O  O351  1  0.72699613  0.35910522  0.23710308  1
  O  O352  1  0.75199550  0.36899733  0.73855249  1
  O  O353  1  0.75423417  0.89235779  0.23932562  1
  O  O354  1  0.74132165  0.88265061  0.74377249  1
  O  O355  1  0.25362377  0.11991473  0.25647211  1
  O  O356  1  0.25655976  0.11386275  0.75396598  1
  O  O357  1  0.25490674  0.61428005  0.25717737  1
  O  O358  1  0.25545236  0.61759132  0.75903517  1
  O  O359  1  0.76307984  0.11924566  0.24772653  1
  O  O360  1  0.75563061  0.11961655  0.74889873  1
  O  O361  1  0.73414516  0.61265877  0.25838154  1
  O  O362  1  0.75500428  0.63279351  0.76275519  1
  O  O363  1  0.36725261  0.12463888  0.36777241  1
  O  O364  1  0.36952356  0.11817818  0.86824192  1
  O  O365  1  0.36534426  0.62791196  0.36276687  1
  O  O366  1  0.36893194  0.62134064  0.86818256  1
  O  O367  1  0.87593061  0.11891489  0.36827913  1
  O  O368  1  0.86904020  0.12258518  0.86289238  1
  O  O369  1  0.91109151  0.61793454  0.35001646  1
  O  O370  1  0.86642300  0.61695856  0.87883130  1
  O  O371  1  0.13892581  0.36525128  0.12922136  1
  O  O372  1  0.13225113  0.38661060  0.61883964  1
  O  O373  1  0.12800996  0.87867136  0.13209841  1
  O  O374  1  0.11715832  0.88651782  0.62954967  1
  O  O375  1  0.63036326  0.38787427  0.11501792  1
  O  O376  1  0.64003729  0.37355213  0.62762124  1
  O  O377  1  0.63093200  0.88991511  0.11699250  1
  O  O378  1  0.63205049  0.87037621  0.63411520  1
  O  O379  1  0.11066300  0.23829585  0.25124089  1
  O  O380  1  0.11395057  0.24258664  0.75717084  1
  O  O381  1  0.12267353  0.76048338  0.24721242  1
  O  O382  1  0.13467225  0.76333170  0.74647790  1
  O  O383  1  0.60840328  0.24076564  0.24722602  1
  O  O384  1  0.62637933  0.25251843  0.76180389  1
  O  O385  1  0.60804158  0.74706448  0.25915870  1
  O  O386  1  0.61960618  0.76153080  0.75749106  1
  O  O387  1  0.38129382  0.24470277  0.24101366  1
  O  O388  1  0.36907159  0.23564016  0.75489871  1
  O  O389  1  0.38798892  0.74292178  0.25042930  1
  O  O390  1  0.37661482  0.74878987  0.74199257  1
  O  O391  1  0.88411118  0.24483567  0.24328332  1
  O  O392  1  0.88780573  0.23999983  0.74944133  1
  O  O393  1  0.87380052  0.75853786  0.23361028  1
  O  O394  1  0.87423277  0.75855444  0.73634041  1
  O  O395  1  0.38575337  0.48782986  0.50485965  1
  O  O396  1  0.38148945  0.50357833  0.99760030  1
  O  O397  1  0.38016152  0.99045469  0.49914691  1
  O  O398  1  0.37738051  0.99039468  0.99468729  1
  O  O399  1  0.89255881  0.49180665  0.51175780  1
  O  O400  1  0.88035905  0.49098427  0.99288945  1
  O  O401  1  0.87310787  0.99014366  0.49046279  1
  O  O402  1  0.88162804  0.99128862  0.99741684  1
  O  O403  1  0.11715232  0.00100198  0.00432730  1
  O  O404  1  0.13183560  0.01037093  0.50799162  1
  O  O405  1  0.12136559  0.50744833  0.00304613  1
  O  O406  1  0.12043118  0.50625788  0.50824439  1
  O  O407  1  0.61847000  0.00727257  0.00511638  1
  O  O408  1  0.61419131  0.00672250  0.49789500  1
  O  O409  1  0.61769187  0.50737788  0.00476260  1
  O  O410  1  0.60400845  0.49342952  0.51314728  1
  O  O411  1  0.36818370  0.36761700  0.12628790  1
  O  O412  1  0.37466791  0.37350831  0.61620968  1
  O  O413  1  0.36549482  0.87450265  0.11479662  1
  O  O414  1  0.37756423  0.86360739  0.61534401  1
  O  O415  1  0.86646169  0.36826443  0.11505355  1
  O  O416  1  0.86871382  0.37261809  0.62083215  1
  O  O417  1  0.86577313  0.87261282  0.11708865  1
  O  O418  1  0.87003255  0.86935356  0.61756380  1
  O  O419  1  0.13132871  0.12179749  0.38277176  1
  O  O420  1  0.13071777  0.12509643  0.87865312  1
  O  O421  1  0.12789403  0.62167620  0.38902863  1
  O  O422  1  0.13589162  0.62525853  0.87043757  1
  O  O423  1  0.63025581  0.12876877  0.38539097  1
  O  O424  1  0.62637288  0.13163423  0.87763384  1
  O  O425  1  0.60200638  0.65372864  0.39346748  1
  O  O426  1  0.63011605  0.63211619  0.88057374  1
