# generated using pymatgen
data_V85Zn86O256
_symmetry_space_group_name_H-M   'P 1'
_cell_length_a   16.97011614
_cell_length_b   16.96999530
_cell_length_c   16.98059184
_cell_angle_alpha   89.89775480
_cell_angle_beta   89.96451358
_cell_angle_gamma   89.97285741
_symmetry_Int_Tables_number   1
_chemical_formula_structural   V85Zn86O256
_chemical_formula_sum   'V85 Zn86 O256'
_cell_volume   4890.10896418
_cell_formula_units_Z   1
loop_
 _symmetry_equiv_pos_site_id
 _symmetry_equiv_pos_as_xyz
  1  'x, y, z'
loop_
 _atom_site_type_symbol
 _atom_site_label
 _atom_site_symmetry_multiplicity
 _atom_site_fract_x
 _atom_site_fract_y
 _atom_site_fract_z
 _atom_site_occupancy
  V  V0  1  0.37375048  0.24645219  0.12538843  1
  V  V1  1  0.49415236  0.87648904  0.88161010  1
  V  V2  1  0.24505182  0.62420455  0.87584462  1
  V  V3  1  0.13874273  0.14107400  0.51767629  1
  V  V4  1  0.24541735  -0.00164358  0.75549686  1
  V  V5  1  0.62341120  0.62349112  0.00385700  1
  V  V6  1  0.87275310  -0.00370730  0.87541367  1
  V  V7  1  0.87136543  0.00344249  0.37730047  1
  V  V8  1  -0.00509822  0.64240835  0.14250640  1
  V  V9  1  0.74469900  0.12310954  0.87862486  1
  V  V10  1  0.75131709  0.62601258  0.36845228  1
  V  V11  1  0.63574887  0.49669808  0.62886166  1
  V  V12  1  -0.00703236  0.12818104  0.12776005  1
  V  V13  1  0.62986225  0.37356861  0.24632500  1
  V  V14  1  0.75228525  0.75092885  0.49819904  1
  V  V15  1  0.87797411  0.87526752  0.49915671  1
  V  V16  1  0.50219723  0.74429021  0.24623136  1
  V  V17  1  0.37333173  0.11655147  0.24642343  1
  V  V18  1  -0.00062802  0.76609255  0.26539358  1
  V  V19  1  0.75549099  0.74961218  0.01235532  1
  V  V20  1  0.50190713  0.86877658  0.37268505  1
  V  V21  1  0.37390301  0.63040046  0.75127910  1
  V  V22  1  0.12680309  0.24567490  0.87588608  1
  V  V23  1  0.87462497  0.50454713  0.37479002  1
  V  V24  1  0.38001992  -0.00579503  0.37195103  1
  V  V25  1  0.87238436  0.87099824  0.01480385  1
  V  V26  1  0.50197568  0.62898525  0.62650004  1
  V  V27  1  0.74886905  0.25411660  0.50821436  1
  V  V28  1  0.11978580  -0.01047485  0.63379339  1
  V  V29  1  0.00132903  0.37494346  0.87479307  1
  V  V30  1  0.75030495  0.62143626  0.87194081  1
  V  V31  1  0.36779940  0.00343067  0.88655120  1
  V  V32  1  0.00402799  0.75463057  0.75061510  1
  V  V33  1  -0.01151189  0.25321457  0.25019420  1
  V  V34  1  0.37539739  0.62022165  0.24723158  1
  V  V35  1  0.62131055  0.24511228  0.87278083  1
  V  V36  1  0.74806534  -0.00236217  0.23839475  1
  V  V37  1  0.62913326  0.87627929  0.23481740  1
  V  V38  1  0.62503368  0.87536811  0.75252572  1
  V  V39  1  0.49805279  0.36958608  0.86473779  1
  V  V40  1  0.00260494  0.50364580  0.50153105  1
  V  V41  1  0.24854033  0.62175220  0.37185887  1
  V  V42  1  0.49982477  0.75286567  0.75269738  1
  V  V43  1  0.00549385  0.00349163  0.50315443  1
  V  V44  1  0.19138943  -0.05999836  0.30588205  1
  V  V45  1  0.49069603  0.38172245  0.37186559  1
  V  V46  1  0.12498458  -0.00522279  0.12900194  1
  V  V47  1  0.62351568  -0.00196032  0.62344167  1
  V  V48  1  0.37490534  0.49986130  0.87561788  1
  V  V49  1  0.62599009  0.62493662  0.49948889  1
  V  V50  1  0.49366089  -0.00694455  0.49972694  1
  V  V51  1  0.25419369  0.87316464  0.63317771  1
  V  V52  1  0.87173964  0.37036198  0.01185316  1
  V  V53  1  0.87669970  0.62297450  0.75041930  1
  V  V54  1  0.12441460  0.63714283  0.49496860  1
  V  V55  1  0.37596938  0.37230196  0.00066090  1
  V  V56  1  0.24302291  0.38195357  0.12731998  1
  V  V57  1  0.74779702  0.25030297  0.00847727  1
  V  V58  1  0.63962326  0.37426222  0.74745281  1
  V  V59  1  0.50973940  0.12114845  0.12184482  1
  V  V60  1  0.87190565  0.49589691  0.87403582  1
  V  V61  1  0.75000046  0.87428474  0.62531915  1
  V  V62  1  0.24878950  0.12972517  0.36867929  1
  V  V63  1  -0.00121437  0.37675495  0.38145007  1
  V  V64  1  0.75633484  0.49980448  0.24287454  1
  V  V65  1  0.49627508  0.12771012  0.62638687  1
  V  V66  1  0.25135132  0.87723014  0.12377121  1
  V  V67  1  0.12603900  0.12284838  -0.00084087  1
  V  V68  1  0.25479691  0.76284493  0.49299102  1
  V  V69  1  0.62580160  0.74928293  0.87808095  1
  V  V70  1  0.50046444  0.50023584  0.00329588  1
  V  V71  1  0.12595976  0.25310987  0.37338648  1
  V  V72  1  0.12827075  0.37382923  0.74208636  1
  V  V73  1  0.37742095  0.74882897  0.12165595  1
  V  V74  1  -0.00782804  0.13428046  0.62813001  1
  V  V75  1  0.25148116  0.75216453  0.00206980  1
  V  V76  1  0.24985224  0.49717253  0.74254002  1
  V  V77  1  0.62966358  0.49303184  0.12079975  1
  V  V78  1  0.00835788  0.49938128  0.00936747  1
  V  V79  1  -0.00294162  -0.00318312  0.00295218  1
  V  V80  1  0.51498902  0.00062258  0.00455285  1
  V  V81  1  0.24755473  0.24568472  0.00156629  1
  V  V82  1  0.37456673  0.12476454  0.75106878  1
  V  V83  1  0.12592039  0.75894253  0.87357067  1
  V  V84  1  0.62608692  0.24885533  0.37355121  1
  Zn  Zn85  1  0.87183371  0.12508879  0.75161992  1
  Zn  Zn86  1  0.43282576  0.29062361  0.68279982  1
  Zn  Zn87  1  0.36169739  0.35074523  0.51082358  1
  Zn  Zn88  1  0.62674396  0.75111648  0.37137025  1
  Zn  Zn89  1  0.74944924  0.00053635  0.75079109  1
  Zn  Zn90  1  0.62409086  0.12215759  0.49756552  1
  Zn  Zn91  1  0.86602227  0.38214197  0.50921936  1
  Zn  Zn92  1  0.50157709  0.24850480  0.24679492  1
  Zn  Zn93  1  0.85702817  0.26705337  0.63935049  1
  Zn  Zn94  1  0.87073852  0.12827073  0.24967372  1
  Zn  Zn95  1  0.37687646  0.75648245  0.62163861  1
  Zn  Zn96  1  0.00377051  0.62618617  0.62661940  1
  Zn  Zn97  1  0.87755868  0.74773343  0.62584264  1
  Zn  Zn98  1  0.13104559  0.49754797  0.61659457  1
  Zn  Zn99  1  0.74863624  0.12467345  0.37613793  1
  Zn  Zn100  1  -0.00423664  0.25172718  0.75104565  1
  Zn  Zn101  1  0.24489857  0.50641536  0.24586218  1
  Zn  Zn102  1  -0.00057030  0.87482505  0.87535228  1
  Zn  Zn103  1  0.01860952  0.87870621  0.37964951  1
  Zn  Zn104  1  0.12524477  0.62042851  0.00866136  1
  Zn  Zn105  1  0.49369806  0.49155770  0.50225547  1
  Zn  Zn106  1  0.11760621  0.38650225  0.24684055  1
  Zn  Zn107  1  0.18191201  0.18741329  0.19010004  1
  Zn  Zn108  1  0.17974115  0.17472837  0.69850571  1
  Zn  Zn109  1  0.17722717  0.68750394  0.18764722  1
  Zn  Zn110  1  0.18423196  0.68703763  0.68491208  1
  Zn  Zn111  1  0.68958710  0.18327205  0.19029802  1
  Zn  Zn112  1  0.68127549  0.18398593  0.69301860  1
  Zn  Zn113  1  0.68463395  0.68223610  0.18602508  1
  Zn  Zn114  1  0.69083751  0.68795686  0.68907649  1
  Zn  Zn115  1  0.31268137  0.30913436  0.30903713  1
  Zn  Zn116  1  0.30729096  0.31020217  0.81656227  1
  Zn  Zn117  1  0.31986049  0.80294507  0.31470550  1
  Zn  Zn118  1  0.31302172  0.81630673  0.81494389  1
  Zn  Zn119  1  0.81002233  0.31712396  0.31907427  1
  Zn  Zn120  1  0.81321361  0.30817440  0.81817853  1
  Zn  Zn121  1  0.81770976  0.81452083  0.30839174  1
  Zn  Zn122  1  0.81274593  0.81017214  0.81670417  1
  Zn  Zn123  1  0.18883211  0.44286490  0.43084974  1
  Zn  Zn124  1  0.18857347  0.43374362  0.93530624  1
  Zn  Zn125  1  0.24300754  0.98362518  0.49269893  1
  Zn  Zn126  1  0.18799390  0.93625596  0.94279111  1
  Zn  Zn127  1  0.68272987  0.43746974  0.43605039  1
  Zn  Zn128  1  0.68887899  0.43177353  0.93337395  1
  Zn  Zn129  1  0.68572934  0.93613191  0.43419111  1
  Zn  Zn130  1  0.68964457  0.93257787  0.94183592  1
  Zn  Zn131  1  0.30941224  0.06048272  0.06460314  1
  Zn  Zn132  1  0.31600755  0.16711465  0.55801814  1
  Zn  Zn133  1  0.31478346  0.56540238  0.06178310  1
  Zn  Zn134  1  0.31265912  0.56289260  0.56041301  1
  Zn  Zn135  1  0.81147901  0.06563641  0.05901468  1
  Zn  Zn136  1  0.80891458  0.06531088  0.55966945  1
  Zn  Zn137  1  0.81742473  0.56164699  0.05960142  1
  Zn  Zn138  1  0.81440137  0.56418459  0.56253284  1
  Zn  Zn139  1  0.43914641  0.43697144  0.18567581  1
  Zn  Zn140  1  0.43780516  0.45289322  0.68361121  1
  Zn  Zn141  1  0.43759969  0.93229688  0.18507015  1
  Zn  Zn142  1  0.43368917  0.94117829  0.69155227  1
  Zn  Zn143  1  0.93648024  0.43767508  0.18881870  1
  Zn  Zn144  1  0.93894563  0.43786214  0.68628684  1
  Zn  Zn145  1  0.93713224  0.93619420  0.19302112  1
  Zn  Zn146  1  0.93396665  0.93596520  0.68940419  1
  Zn  Zn147  1  0.05687880  0.07031121  0.31876427  1
  Zn  Zn148  1  0.05846421  0.06149345  0.81458639  1
  Zn  Zn149  1  0.06500346  0.56712025  0.30916919  1
  Zn  Zn150  1  0.06258366  0.56178266  0.81382767  1
  Zn  Zn151  1  0.56384802  0.06175592  0.30695869  1
  Zn  Zn152  1  0.56033448  0.06186565  0.81242811  1
  Zn  Zn153  1  0.56497637  0.56311057  0.30822815  1
  Zn  Zn154  1  0.56421220  0.55940795  0.81225785  1
  Zn  Zn155  1  0.44527308  0.18458839  0.43072653  1
  Zn  Zn156  1  0.43837660  0.18306622  0.93805377  1
  Zn  Zn157  1  0.41910449  0.65283441  0.45199757  1
  Zn  Zn158  1  0.43594484  0.68652258  0.93959269  1
  Zn  Zn159  1  0.93662836  0.19016701  0.44400072  1
  Zn  Zn160  1  0.93485956  0.18609582  0.93881540  1
  Zn  Zn161  1  0.93753518  0.68930216  0.43070972  1
  Zn  Zn162  1  0.93838179  0.68571808  0.93983844  1
  Zn  Zn163  1  0.05887317  0.31124233  0.06372634  1
  Zn  Zn164  1  0.18887786  0.31432684  0.55849083  1
  Zn  Zn165  1  0.06332502  0.81064509  0.06366768  1
  Zn  Zn166  1  0.06286806  0.81258293  0.56483833  1
  Zn  Zn167  1  0.56285570  0.31063013  0.05844927  1
  Zn  Zn168  1  0.56322411  0.31522665  0.55616202  1
  Zn  Zn169  1  0.56057956  0.81261664  0.06076890  1
  Zn  Zn170  1  0.56327450  0.81199592  0.55890975  1
  O  O171  1  0.11699724  0.11385742  0.12259714  1
  O  O172  1  0.10743528  0.11002543  0.62692904  1
  O  O173  1  0.10139177  0.62595523  0.12238623  1
  O  O174  1  0.12500393  0.62156004  0.60934387  1
  O  O175  1  0.60824157  0.12885231  0.13013843  1
  O  O176  1  0.61697725  0.10921612  0.62767514  1
  O  O177  1  0.62675667  0.61151008  0.10999633  1
  O  O178  1  0.62292114  0.61927689  0.62184090  1
  O  O179  1  0.38979449  0.37084586  0.36731534  1
  O  O180  1  0.37948941  0.37797490  0.88145406  1
  O  O181  1  0.39118538  0.88123992  0.36248032  1
  O  O182  1  0.38691267  0.88804994  0.87158681  1
  O  O183  1  0.87921179  0.38873020  0.38145963  1
  O  O184  1  0.88363674  0.38044997  0.87935160  1
  O  O185  1  0.87474916  0.88696450  0.38899390  1
  O  O186  1  0.87204329  0.88663677  0.88265569  1
  O  O187  1  0.25727583  -0.00058967  0.36719755  1
  O  O188  1  0.26054347  -0.00685936  0.87230225  1
  O  O189  1  0.25320255  0.51918481  0.37128910  1
  O  O190  1  0.25518586  0.50717593  0.86986509  1
  O  O191  1  0.75779843  0.00295754  0.37218704  1
  O  O192  1  0.75386245  0.00642676  0.87818109  1
  O  O193  1  0.75470755  0.50614862  0.36955542  1
  O  O194  1  0.76149675  0.50632479  0.88021066  1
  O  O195  1  0.25512401  0.48396700  0.11983364  1
  O  O196  1  0.25095265  0.50791746  0.63903866  1
  O  O197  1  0.24177171  0.98875478  0.12419011  1
  O  O198  1  0.23678389  0.98780947  0.63142355  1
  O  O199  1  0.74380584  0.50515077  0.13149798  1
  O  O200  1  0.73400236  0.50559802  0.62184449  1
  O  O201  1  0.75513848  1.00484333  0.13991010  1
  O  O202  1  0.73990550  0.99390902  0.62486874  1
  O  O203  1  -0.00204248  0.37009655  0.26084663  1
  O  O204  1  0.01072019  0.37482772  0.75892384  1
  O  O205  1  0.00178001  0.87300624  0.26147636  1
  O  O206  1  -0.00961410  0.85886388  0.75563559  1
  O  O207  1  0.51046676  0.37325577  0.25431793  1
  O  O208  1  0.49625881  0.37255112  0.75943269  1
  O  O209  1  0.50933095  0.86751587  0.25275867  1
  O  O210  1  0.50460740  0.87211043  0.75934260  1
  O  O211  1  0.49062492  0.12512608  0.24016627  1
  O  O212  1  0.48819132  0.11503308  0.73981284  1
  O  O213  1  0.49434392  0.63647716  0.25287907  1
  O  O214  1  0.49769352  0.63232336  0.74595795  1
  O  O215  1  0.99552908  0.13360543  0.24519005  1
  O  O216  1  0.99638125  0.12413157  0.73861437  1
  O  O217  1  0.99442010  0.63511460  0.24652386  1
  O  O218  1  0.99399019  0.63340580  0.75165045  1
  O  O219  1  0.36739323  0.24988554  0.00602480  1
  O  O220  1  0.37419611  0.23864216  0.49616902  1
  O  O221  1  0.36157726  0.74463353  0.00598630  1
  O  O222  1  0.35729761  0.74506197  0.50365537  1
  O  O223  1  0.86085362  0.25759938  -0.00707720  1
  O  O224  1  0.85714887  0.25133021  0.50193389  1
  O  O225  1  0.86641370  0.75840850  -0.00767825  1
  O  O226  1  0.87079242  0.75841728  0.49999261  1
  O  O227  1  0.11774675  0.24237288  0.48520160  1
  O  O228  1  0.12607577  0.24175669  0.99593778  1
  O  O229  1  0.13493876  0.74276307  0.50455072  1
  O  O230  1  0.13527494  0.74538820  0.99335847  1
  O  O231  1  0.63158823  0.24788535  0.49076586  1
  O  O232  1  0.63779653  0.25938556  0.98671328  1
  O  O233  1  0.63726381  0.74513869  0.49695114  1
  O  O234  1  0.62921454  0.73994878  0.99661049  1
  O  O235  1  0.48817179  0.24187436  0.12047484  1
  O  O236  1  0.51174027  0.23146875  0.62145661  1
  O  O237  1  0.48872816  0.75548540  0.13078985  1
  O  O238  1  0.50170015  0.74510437  0.63240049  1
  O  O239  1  1.00586119  0.24122607  0.13767821  1
  O  O240  1  0.99964481  0.23339858  0.62676973  1
  O  O241  1  0.99199195  0.74372097  0.12463480  1
  O  O242  1  0.99828554  0.74708150  0.63505551  1
  O  O243  1  0.00255594  0.25914374  0.37232107  1
  O  O244  1  0.00741415  0.25981755  0.87773754  1
  O  O245  1  0.00415637  0.75966459  0.37135093  1
  O  O246  1  0.01078232  0.74875871  0.87116072  1
  O  O247  1  0.51032356  0.25887385  0.36781113  1
  O  O248  1  0.50790127  0.25825616  0.88416902  1
  O  O249  1  0.50258369  0.75786502  0.36346299  1
  O  O250  1  0.50383684  0.75899836  0.87534406  1
  O  O251  1  0.24359947  0.10456811  0.48306756  1
  O  O252  1  0.23333239  0.12847889  1.00825310  1
  O  O253  1  0.24032582  0.63678071  0.49276367  1
  O  O254  1  0.24600403  0.62939965  0.99290862  1
  O  O255  1  0.74313323  0.13576068  0.49604884  1
  O  O256  1  0.75245441  0.13627092  0.98909666  1
  O  O257  1  0.74239982  0.62952085  0.49204780  1
  O  O258  1  0.74518656  0.62742548  0.98976056  1
  O  O259  1  0.25569138  0.36784025  0.00915858  1
  O  O260  1  0.25282676  0.38443532  0.50145273  1
  O  O261  1  0.24768627  0.86492195  0.01171962  1
  O  O262  1  0.24673789  0.86755569  0.51247314  1
  O  O263  1  0.75842470  0.36140854  -0.00613222  1
  O  O264  1  0.74534838  0.35905310  0.49442049  1
  O  O265  1  0.75758526  0.86142824  -0.00087383  1
  O  O266  1  0.75672449  0.87010392  0.50406921  1
  O  O267  1  0.13148092  0.49829780  0.25387321  1
  O  O268  1  0.13348191  0.49202738  0.75038214  1
  O  O269  1  0.12737297  1.00123525  0.24930751  1
  O  O270  1  0.13197813  1.00383450  0.74654256  1
  O  O271  1  0.63260915  0.49512645  0.23850218  1
  O  O272  1  0.62092356  0.49198128  0.73733373  1
  O  O273  1  0.63942183  0.99248722  0.25244454  1
  O  O274  1  0.62476028  0.99137176  0.74281819  1
  O  O275  1  0.38095341  0.00874117  0.25556496  1
  O  O276  1  0.36757948  0.00614199  0.76243461  1
  O  O277  1  0.37368509  0.51697618  0.23782027  1
  O  O278  1  0.36852746  0.50935471  0.75777391  1
  O  O279  1  0.86503394  -0.00032744  0.26061951  1
  O  O280  1  0.87049170  0.00076612  0.76081769  1
  O  O281  1  0.86280674  0.49493527  0.25661760  1
  O  O282  1  0.88623754  0.51213590  0.76360241  1
  O  O283  1  0.11697800  0.36802676  0.37219543  1
  O  O284  1  0.11839718  0.36675256  0.86943922  1
  O  O285  1  0.13757245  0.89209976  0.37222715  1
  O  O286  1  0.12442572  0.86214821  0.87976942  1
  O  O287  1  0.61831923  0.36688024  0.36532611  1
  O  O288  1  0.61553742  0.37152013  0.86414632  1
  O  O289  1  0.61476757  0.87340521  0.36548623  1
  O  O290  1  0.61482774  0.87041561  0.87285876  1
  O  O291  1  0.37724671  0.12872020  0.13025171  1
  O  O292  1  0.38440458  0.11829713  0.63661569  1
  O  O293  1  0.36836183  0.64035112  0.13078984  1
  O  O294  1  0.38618921  0.63250708  0.63504161  1
  O  O295  1  0.88987579  0.11993868  0.12575597  1
  O  O296  1  0.88554652  0.12280561  0.62553275  1
  O  O297  1  0.90117526  0.61263534  0.11682251  1
  O  O298  1  0.87702863  0.62583652  0.63700307  1
  O  O299  1  0.25800862  0.25385373  0.12211724  1
  O  O300  1  0.21477559  0.20876493  0.59550392  1
  O  O301  1  0.25075296  0.75613978  0.11831222  1
  O  O302  1  0.24852549  0.75949270  0.61975415  1
  O  O303  1  0.74367701  0.24205101  0.10723818  1
  O  O304  1  0.74246017  0.24339228  0.61229650  1
  O  O305  1  0.74994869  0.73659179  0.11093728  1
  O  O306  1  0.75345861  0.75662699  0.61798741  1
  O  O307  1  0.23978163  0.24130369  0.36888413  1
  O  O308  1  0.23452642  0.25246545  0.88577909  1
  O  O309  1  0.24874215  0.75150437  0.39001774  1
  O  O310  1  0.24620672  0.74485905  0.88117641  1
  O  O311  1  0.74118181  0.24739577  0.38166067  1
  O  O312  1  0.74108750  0.24099103  0.88153872  1
  O  O313  1  0.75105624  0.74131294  0.37790639  1
  O  O314  1  0.74178180  0.74096875  0.88249904  1
  O  O315  1  0.00747467  0.12033793  0.00885032  1
  O  O316  1  0.00830975  0.12178281  0.51189290  1
  O  O317  1  0.00316491  0.60618833  -0.00647393  1
  O  O318  1  0.01037740  0.62400271  0.49770251  1
  O  O319  1  0.49595259  0.10947703  0.00706481  1
  O  O320  1  0.50195508  0.10818099  0.50573468  1
  O  O321  1  0.51119399  0.61290567  -0.01088998  1
  O  O322  1  0.51966271  0.64253271  0.51094741  1
  O  O323  1  0.49768893  0.37563701  0.48208550  1
  O  O324  1  0.49381209  0.38111723  0.99026866  1
  O  O325  1  0.50350450  0.88430089  0.48967619  1
  O  O326  1  0.50111389  0.88733803  0.99359160  1
  O  O327  1  0.99921244  0.38874163  0.48568569  1
  O  O328  1  0.99490387  0.38003750  0.99372639  1
  O  O329  1  0.99513771  0.88372648  0.49988632  1
  O  O330  1  0.99216398  0.87973093  0.99818240  1
  O  O331  1  0.50914185  0.48338582  0.37032818  1
  O  O332  1  0.49471304  0.49083013  0.88053599  1
  O  O333  1  0.49632824  0.99406186  0.37876941  1
  O  O334  1  0.49309494  0.99538283  0.88714011  1
  O  O335  1  0.99168509  0.49925313  0.38016130  1
  O  O336  1  0.99644549  0.48800131  0.88208417  1
  O  O337  1  0.99583466  1.00115734  0.39030618  1
  O  O338  1  0.99062841  0.99741890  0.88352559  1
  O  O339  1  0.00779524  0.00503770  0.12414608  1
  O  O340  1  0.00126718  0.00139341  0.61825087  1
  O  O341  1  0.00183627  0.49176661  0.10958456  1
  O  O342  1  0.00458804  0.50399826  0.61034897  1
  O  O343  1  0.49190914  0.00393876  0.11044478  1
  O  O344  1  0.50333537  -0.00012823  0.61629005  1
  O  O345  1  0.50802335  0.49464082  0.10928909  1
  O  O346  1  0.51117356  0.51941824  0.62330242  1
  O  O347  1  0.25291414  0.37583571  0.23466922  1
  O  O348  1  0.24237786  0.38593436  0.75867268  1
  O  O349  1  0.24626085  0.87289800  0.24892130  1
  O  O350  1  0.25114537  0.88683173  0.74745969  1
  O  O351  1  0.73778979  0.38473998  0.25447103  1
  O  O352  1  0.73835936  0.37354585  0.75673650  1
  O  O353  1  0.74344027  0.88731752  0.25523113  1
  O  O354  1  0.74311892  0.87390272  0.74431114  1
  O  O355  1  0.25522472  0.12525696  0.25983251  1
  O  O356  1  0.25813981  0.10751895  0.74853075  1
  O  O357  1  0.25475134  0.63125757  0.25429402  1
  O  O358  1  0.25316092  0.61983073  0.75740238  1
  O  O359  1  0.75276076  0.11291584  0.25497460  1
  O  O360  1  0.74984540  0.12180155  0.76422610  1
  O  O361  1  0.74208322  0.61513830  0.26140359  1
  O  O362  1  0.75802075  0.62952246  0.76446816  1
  O  O363  1  0.36963070  0.11653910  0.36344503  1
  O  O364  1  0.37946715  0.10974772  0.86930815  1
  O  O365  1  0.36029081  0.64386651  0.35575445  1
  O  O366  1  0.36424634  0.62190006  0.87126307  1
  O  O367  1  0.87732381  0.11269885  0.37769647  1
  O  O368  1  0.86736218  0.11205111  0.87753472  1
  O  O369  1  0.86517254  0.61366191  0.37888857  1
  O  O370  1  0.86854215  0.61624205  0.87255572  1
  O  O371  1  0.14051534  0.36595941  0.12648271  1
  O  O372  1  0.12716118  0.37512971  0.63893040  1
  O  O373  1  0.13100343  0.88759850  0.12221321  1
  O  O374  1  0.12880533  0.88460527  0.62650902  1
  O  O375  1  0.62129382  0.38464706  0.12959547  1
  O  O376  1  0.61557339  0.38885761  0.63194286  1
  O  O377  1  0.62301949  0.87302028  0.13555306  1
  O  O378  1  0.62750816  0.88281492  0.62976096  1
  O  O379  1  0.11196990  0.25061840  0.26182982  1
  O  O380  1  0.12340133  0.25484721  0.76021864  1
  O  O381  1  0.09863898  0.75102111  0.23943375  1
  O  O382  1  0.11664609  0.74405163  0.76042316  1
  O  O383  1  0.62651069  0.25854724  0.25363585  1
  O  O384  1  0.62507384  0.25921194  0.76201439  1
  O  O385  1  0.61881560  0.75443428  0.24817904  1
  O  O386  1  0.61914099  0.75458746  0.75839268  1
  O  O387  1  0.37709045  0.23733789  0.24025012  1
  O  O388  1  0.36814806  0.23276165  0.75724858  1
  O  O389  1  0.38457301  0.74442624  0.23944857  1
  O  O390  1  0.38244403  0.74646448  0.75172377  1
  O  O391  1  0.88438069  0.24977334  0.25906010  1
  O  O392  1  0.87804831  0.24405826  0.75092580  1
  O  O393  1  0.89574768  0.75649557  0.25309300  1
  O  O394  1  0.88179272  0.73725263  0.75477205  1
  O  O395  1  0.39535025  0.54452300  0.49098100  1
  O  O396  1  0.38338937  0.49624234  0.99473800  1
  O  O397  1  0.37844070  0.99720120  0.47868323  1
  O  O398  1  0.37535572  1.00260320  0.98807999  1
  O  O399  1  0.88330826  0.50356013  0.49255315  1
  O  O400  1  0.88406317  0.49046860  0.98951018  1
  O  O401  1  0.88321936  0.99543457  0.49747642  1
  O  O402  1  0.87834459  0.99293068  0.99521103  1
  O  O403  1  0.11837973  0.00558639  0.00842108  1
  O  O404  1  0.11947702  0.01132109  0.51464943  1
  O  O405  1  0.11179929  0.49674289  -0.00558923  1
  O  O406  1  0.11790604  0.51334086  0.49638753  1
  O  O407  1  0.61341589  -0.00092845  -0.00107139  1
  O  O408  1  0.61575934  -0.00168335  0.50763085  1
  O  O409  1  0.62133497  0.50137991  0.00234726  1
  O  O410  1  0.61928419  0.50754168  0.50971381  1
  O  O411  1  0.36989576  0.36468629  0.11979832  1
  O  O412  1  0.39489018  0.37403373  0.61928832  1
  O  O413  1  0.36079865  0.86371775  0.13180968  1
  O  O414  1  0.36008645  0.87548677  0.63138812  1
  O  O415  1  0.87751365  0.37649713  0.11074847  1
  O  O416  1  0.87544420  0.37650371  0.62139608  1
  O  O417  1  0.87662317  0.88096965  0.11341194  1
  O  O418  1  0.86930200  0.87443373  0.61346685  1
  O  O419  1  0.13311529  0.13223029  0.38237619  1
  O  O420  1  0.11635131  0.13314693  0.88666328  1
  O  O421  1  0.13164461  0.62973140  0.38699999  1
  O  O422  1  0.13691425  0.63068129  0.87585015  1
  O  O423  1  0.62137805  0.13777335  0.37290929  1
  O  O424  1  0.62922632  0.13370286  0.87130886  1
  O  O425  1  0.63240363  0.62496524  0.38370217  1
  O  O426  1  0.63238783  0.62556754  0.88265221  1
