# generated using pymatgen
data_V85Zn86O256
_symmetry_space_group_name_H-M   'P 1'
_cell_length_a   16.97196507
_cell_length_b   16.96690174
_cell_length_c   16.97434372
_cell_angle_alpha   89.89265702
_cell_angle_beta   89.94793505
_cell_angle_gamma   90.01031591
_symmetry_Int_Tables_number   1
_chemical_formula_structural   V85Zn86O256
_chemical_formula_sum   'V85 Zn86 O256'
_cell_volume   4887.94957924
_cell_formula_units_Z   1
loop_
 _symmetry_equiv_pos_site_id
 _symmetry_equiv_pos_as_xyz
  1  'x, y, z'
loop_
 _atom_site_type_symbol
 _atom_site_label
 _atom_site_symmetry_multiplicity
 _atom_site_fract_x
 _atom_site_fract_y
 _atom_site_fract_z
 _atom_site_occupancy
  V  V0  1  0.62772110  0.74837938  0.86896142  1
  V  V1  1  0.88498067  0.62199450  0.24142326  1
  V  V2  1  0.12903078  0.75518818  0.37171883  1
  V  V3  1  0.75093869  0.50162629  0.24875063  1
  V  V4  1  0.12464553  0.14298835  0.49035265  1
  V  V5  1  0.00674788  0.74235550  0.24733255  1
  V  V6  1  0.63132852  0.62175089  -0.00265173  1
  V  V7  1  0.87775093  0.49668077  0.37450039  1
  V  V8  1  0.11785047  0.01584467  0.62247284  1
  V  V9  1  0.48975684  0.87389714  0.87084454  1
  V  V10  1  0.00299573  0.49898462  0.49928699  1
  V  V11  1  0.25038992  0.62771225  0.87600790  1
  V  V12  1  0.24938807  0.12131132  0.87716474  1
  V  V13  1  0.25130852  0.37215104  0.61916686  1
  V  V14  1  0.90238706  0.77507977  0.64069293  1
  V  V15  1  0.49917047  0.49945477  0.49703205  1
  V  V16  1  0.49720191  0.24835831  0.24987236  1
  V  V17  1  0.87535409  0.37303967  0.50031648  1
  V  V18  1  0.87140232  0.37098441  0.00593387  1
  V  V19  1  0.87331960  0.49821996  0.87337731  1
  V  V20  1  0.88041845  0.23896486  0.62623743  1
  V  V21  1  0.37553680  0.24588509  0.12518545  1
  V  V22  1  0.24778441  0.24609159  0.00061799  1
  V  V23  1  0.37788193  0.12258113  0.74648134  1
  V  V24  1  0.49965421  0.38083727  0.37347976  1
  V  V25  1  0.23625224  0.87620752  0.62757367  1
  V  V26  1  0.74878227  0.87044185  0.61788517  1
  V  V27  1  0.74969002  0.37323663  0.62988224  1
  V  V28  1  0.12139722  0.63361217  -0.00102619  1
  V  V29  1  0.25682198  0.74926052  0.00598900  1
  V  V30  1  0.87721248  0.87861943  0.49094140  1
  V  V31  1  0.49706501  0.00431095  0.50724221  1
  V  V32  1  0.62576368  0.49943543  0.12092438  1
  V  V33  1  0.37736352  0.62008565  0.75422390  1
  V  V34  1  0.50053935  0.74812863  0.74519151  1
  V  V35  1  0.62818954  0.12347676  0.00325685  1
  V  V36  1  0.25673587  -0.01853532  0.26271477  1
  V  V37  1  0.24404490  -0.00577741  0.75308188  1
  V  V38  1  0.62529730  0.38015039  0.24820643  1
  V  V39  1  0.92965025  0.19074983  0.07281231  1
  V  V40  1  0.25573989  0.49654194  0.75678288  1
  V  V41  1  0.62436280  0.49469960  0.62525645  1
  V  V42  1  0.49867104  0.12154954  0.12898803  1
  V  V43  1  0.87685128  0.11557593  0.25181541  1
  V  V44  1  0.25133304  0.37414069  0.12224620  1
  V  V45  1  0.00615039  0.88429995  0.36946581  1
  V  V46  1  0.49853384  -0.00148310  0.00136410  1
  V  V47  1  0.49512373  0.63072660  0.11917040  1
  V  V48  1  0.37443896  0.37546277  -0.00944044  1
  V  V49  1  -0.00225917  0.50592849  0.00338342  1
  V  V50  1  0.73920695  -0.01129481  0.24389562  1
  V  V51  1  0.12687867  0.24680931  0.87839554  1
  V  V52  1  0.50393083  0.37323995  0.86850384  1
  V  V53  1  0.25351963  0.62417595  0.37590707  1
  V  V54  1  0.75263987  0.36236188  0.12381892  1
  V  V55  1  0.37423587  0.87967473  0.50401531  1
  V  V56  1  0.62275422  0.87477146  0.74670483  1
  V  V57  1  0.74522514  0.50150091  0.74803277  1
  V  V58  1  0.62210465  0.00613015  0.62936196  1
  V  V59  1  0.37377417  0.75061299  0.62747940  1
  V  V60  1  0.12393625  0.36525079  0.25334605  1
  V  V61  1  0.88346371  -0.01249072  0.88453056  1
  V  V62  1  0.75571737  0.63229152  0.37977966  1
  V  V63  1  0.12079638  0.50373330  0.12492409  1
  V  V64  1  0.75277344  0.11730165  0.37436114  1
  V  V65  1  0.87403990  0.62800111  0.74651965  1
  V  V66  1  -0.00430582  0.24236439  0.25654586  1
  V  V67  1  0.75042170  0.24992453  0.49916686  1
  V  V68  1  0.49984366  0.62466372  0.62119382  1
  V  V69  1  0.25553236  0.15130016  0.37582352  1
  V  V70  1  0.75059864  0.76606194  0.00894695  1
  V  V71  1  0.12585627  0.38009498  0.75152673  1
  V  V72  1  0.37545741  0.24932845  0.62430560  1
  V  V73  1  0.00083403  0.62304688  0.62595679  1
  V  V74  1  0.63299288  0.24957571  0.87691407  1
  V  V75  1  0.75105399  0.00167290  0.75530991  1
  V  V76  1  0.25192267  0.49740772  0.24865705  1
  V  V77  1  0.37350552  0.86897438  0.01086501  1
  V  V78  1  0.62689154  0.25316744  0.37494337  1
  V  V79  1  -0.00081443  0.37701725  0.87596060  1
  V  V80  1  0.61992338  0.13015835  0.50638698  1
  V  V81  1  0.50643027  0.24541309  0.74774641  1
  V  V82  1  0.49628191  0.49866572  -0.00789478  1
  V  V83  1  0.25239127  0.74919752  0.50021381  1
  V  V84  1  0.37659768  0.63074409  0.24029355  1
  Zn  Zn85  1  0.37039769  -0.00301760  0.87639412  1
  Zn  Zn86  1  0.00800352  0.24701506  0.74181321  1
  Zn  Zn87  1  0.50147206  0.77227842  0.24160160  1
  Zn  Zn88  1  0.87882944  0.12027077  0.75062931  1
  Zn  Zn89  1  0.51628505  0.87642676  0.36646321  1
  Zn  Zn90  1  -0.00244211  0.00773889  0.49599203  1
  Zn  Zn91  1  0.74998203  0.12320393  0.88208830  1
  Zn  Zn92  1  0.70015883  0.78332342  0.45132349  1
  Zn  Zn93  1  0.88403402  0.75924505  0.11506017  1
  Zn  Zn94  1  -0.01041551  -0.00767030  0.02655055  1
  Zn  Zn95  1  0.03113400  0.81628849  0.79611963  1
  Zn  Zn96  1  0.12776353  0.49821327  0.62380786  1
  Zn  Zn97  1  0.75011284  0.62687358  0.87142799  1
  Zn  Zn98  1  0.57454111  -0.05668231  0.18425717  1
  Zn  Zn99  1  0.37101083  0.37063980  0.49610411  1
  Zn  Zn100  1  0.62603357  0.62729631  0.49354891  1
  Zn  Zn101  1  0.12652886  0.62305271  0.49948583  1
  Zn  Zn102  1  0.00693567  0.36994543  0.37706153  1
  Zn  Zn103  1  0.11859983  0.00345266  0.12122147  1
  Zn  Zn104  1  0.37650658  0.49906517  0.37239866  1
  Zn  Zn105  1  0.37528553  0.01348314  0.38357617  1
  Zn  Zn106  1  0.24751561  0.86724418  0.13750368  1
  Zn  Zn107  1  0.18324591  0.18062194  0.19017160  1
  Zn  Zn108  1  0.19039098  0.18896226  0.69011278  1
  Zn  Zn109  1  0.18880007  0.68522251  0.18634570  1
  Zn  Zn110  1  0.18822921  0.68144345  0.68179641  1
  Zn  Zn111  1  0.68266165  0.18181082  0.18977413  1
  Zn  Zn112  1  0.68962574  0.18822104  0.69041181  1
  Zn  Zn113  1  0.68101940  0.79760823  0.19409393  1
  Zn  Zn114  1  0.68594964  0.69362483  0.66169513  1
  Zn  Zn115  1  0.31480880  0.31259430  0.31035415  1
  Zn  Zn116  1  0.31475764  0.30957369  0.81018834  1
  Zn  Zn117  1  0.34223460  0.80594081  0.32407401  1
  Zn  Zn118  1  0.19964654  0.81034461  0.81569059  1
  Zn  Zn119  1  0.81732049  0.30775550  0.30896436  1
  Zn  Zn120  1  0.81249152  0.31173653  0.81060191  1
  Zn  Zn121  1  0.83692270  0.83052517  0.28340844  1
  Zn  Zn122  1  0.80916778  0.81339407  0.81188331  1
  Zn  Zn123  1  0.18795613  0.43519412  0.43500152  1
  Zn  Zn124  1  0.18649492  0.44136600  0.93582678  1
  Zn  Zn125  1  0.18769248  0.94230637  0.44028761  1
  Zn  Zn126  1  0.09461628  0.91582717  0.93896823  1
  Zn  Zn127  1  0.68785834  0.44070217  0.43817356  1
  Zn  Zn128  1  0.68840433  0.43363528  0.93523109  1
  Zn  Zn129  1  0.68157107  0.94503823  0.43727704  1
  Zn  Zn130  1  0.67960135  0.93712536  0.93713005  1
  Zn  Zn131  1  0.28015001  0.07231147  0.08279835  1
  Zn  Zn132  1  0.30394561  0.06951189  0.56330430  1
  Zn  Zn133  1  0.31183960  0.55754242  0.05828439  1
  Zn  Zn134  1  0.31466403  0.55784984  0.56451132  1
  Zn  Zn135  1  0.80760582  0.04847144  0.06513859  1
  Zn  Zn136  1  0.81009876  0.05702368  0.55891788  1
  Zn  Zn137  1  0.81281525  0.56319258  0.06511703  1
  Zn  Zn138  1  0.81856626  0.56413568  0.56318444  1
  Zn  Zn139  1  0.43753195  0.43878840  0.18123104  1
  Zn  Zn140  1  0.43794765  0.43499741  0.68818158  1
  Zn  Zn141  1  0.40840252  0.94911252  0.18882547  1
  Zn  Zn142  1  0.43354948  0.93886361  0.68526809  1
  Zn  Zn143  1  0.93996795  0.43242660  0.18708400  1
  Zn  Zn144  1  0.93638204  0.43662561  0.68742405  1
  Zn  Zn145  1  0.94197592  0.93179569  0.18485543  1
  Zn  Zn146  1  0.93454692  0.94681219  0.68403062  1
  Zn  Zn147  1  0.07563453  0.06504438  0.30561680  1
  Zn  Zn148  1  0.06479800  0.05893767  0.81403278  1
  Zn  Zn149  1  0.06796407  0.56035607  0.31567055  1
  Zn  Zn150  1  0.06577817  0.65456553  0.81236475  1
  Zn  Zn151  1  0.55837127  0.06841218  0.32134310  1
  Zn  Zn152  1  0.56078394  0.06384283  0.81602545  1
  Zn  Zn153  1  0.59635415  0.62286541  0.27615774  1
  Zn  Zn154  1  0.56457566  0.55941315  0.81070673  1
  Zn  Zn155  1  0.44014755  0.19215796  0.44062472  1
  Zn  Zn156  1  0.43667039  0.18540590  0.93576076  1
  Zn  Zn157  1  0.43984699  0.68999133  0.43137089  1
  Zn  Zn158  1  0.43689118  0.68680628  0.93175431  1
  Zn  Zn159  1  0.93908869  0.18418014  0.43514657  1
  Zn  Zn160  1  0.95555673  0.16570564  0.89573595  1
  Zn  Zn161  1  0.93726116  0.69352739  0.44194808  1
  Zn  Zn162  1  0.93086323  0.69149376  0.93641529  1
  Zn  Zn163  1  0.06480339  0.31606086  0.06263375  1
  Zn  Zn164  1  0.06130799  0.31494837  0.56446146  1
  Zn  Zn165  1  0.06766263  0.81978990  0.07725510  1
  Zn  Zn166  1  0.06487288  0.81506624  0.55474140  1
  Zn  Zn167  1  0.56396167  0.31077318  0.05957562  1
  Zn  Zn168  1  0.56067337  0.31449212  0.56472996  1
  Zn  Zn169  1  0.56210427  0.80751754  0.05488130  1
  Zn  Zn170  1  0.56702360  0.81542316  0.54670670  1
  O  O171  1  0.17391263  0.10680234  0.11049357  1
  O  O172  1  0.13098313  0.12079775  0.61535630  1
  O  O173  1  0.13203483  0.60977149  0.11581256  1
  O  O174  1  0.11668159  0.61637795  0.61900558  1
  O  O175  1  0.60645035  0.13171049  0.11760479  1
  O  O176  1  0.63246731  0.11891701  0.61706130  1
  O  O177  1  0.61214576  0.61302112  0.10872191  1
  O  O178  1  0.61622581  0.60686505  0.62760707  1
  O  O179  1  0.38518944  0.37780973  0.37671140  1
  O  O180  1  0.38423028  0.36659293  0.88476936  1
  O  O181  1  0.36697298  0.89080148  0.40134815  1
  O  O182  1  0.38838177  0.87219961  0.87697735  1
  O  O183  1  0.87539647  0.38360075  0.38020254  1
  O  O184  1  0.88023415  0.37597492  0.88234765  1
  O  O185  1  0.89533909  0.86965891  0.37858122  1
  O  O186  1  0.87210811  0.88926519  0.86653367  1
  O  O187  1  0.25003338  0.00712298  0.37071441  1
  O  O188  1  0.25147975  0.00907147  0.86373348  1
  O  O189  1  0.25204719  0.50544292  0.36585810  1
  O  O190  1  0.25265179  0.50267680  0.86265377  1
  O  O191  1  0.74275358  0.01397780  0.37069678  1
  O  O192  1  0.75073325  -0.00313037  0.86732868  1
  O  O193  1  0.76099344  0.49820047  0.36737372  1
  O  O194  1  0.75425104  0.49798940  0.86342733  1
  O  O195  1  0.24336639  0.49173802  0.12938026  1
  O  O196  1  0.25071417  0.49208098  0.63764284  1
  O  O197  1  0.28646069  0.98092369  0.15044945  1
  O  O198  1  0.23966764  0.99418702  0.63064294  1
  O  O199  1  0.74534796  0.49398079  0.13265030  1
  O  O200  1  0.74482586  0.49370718  0.62734951  1
  O  O201  1  0.74433443  0.99656108  0.14504652  1
  O  O202  1  0.73942217  0.99286791  0.63020719  1
  O  O203  1  0.00824612  0.36462811  0.24948958  1
  O  O204  1  0.00769376  0.37426984  0.75869673  1
  O  O205  1  0.00597226  0.85922519  0.26668579  1
  O  O206  1  -0.03371181  0.84073139  0.70522157  1
  O  O207  1  0.50688150  0.37390234  0.25507438  1
  O  O208  1  0.49586967  0.36845130  0.76350175  1
  O  O209  1  0.49294139  0.89010345  0.25007842  1
  O  O210  1  0.50283856  0.87018946  0.75253216  1
  O  O211  1  0.50276957  0.13651868  0.24351710  1
  O  O212  1  0.49112110  0.13295119  0.75381460  1
  O  O213  1  0.48929203  0.60889151  0.23113780  1
  O  O214  1  0.49435911  0.62496640  0.74381428  1
  O  O215  1  0.99017857  0.12976673  0.25981515  1
  O  O216  1  0.99113670  0.14071232  0.78025236  1
  O  O217  1  0.99653699  0.62642963  0.25623509  1
  O  O218  1  0.98945556  0.61237887  0.73315657  1
  O  O219  1  0.37096741  0.25698491  0.00521028  1
  O  O220  1  0.38773567  0.25441981  0.52063587  1
  O  O221  1  0.37120091  0.75870790  -0.00761863  1
  O  O222  1  0.37038014  0.75900961  0.50886837  1
  O  O223  1  0.87888878  0.25702069  0.01191278  1
  O  O224  1  0.87018335  0.25229466  0.50881790  1
  O  O225  1  0.85559964  0.74234561  0.00255262  1
  O  O226  1  0.88612773  0.77041930  0.51616018  1
  O  O227  1  0.12249277  0.24130888  0.50363285  1
  O  O228  1  0.13664580  0.26001583  0.99078882  1
  O  O229  1  0.13575199  0.74533761  0.48955726  1
  O  O230  1  0.13161970  0.73533744  1.00670007  1
  O  O231  1  0.62958814  0.24640125  0.49808411  1
  O  O232  1  0.61531882  0.23661297  0.98917912  1
  O  O233  1  0.64459018  0.73248254  0.53868349  1
  O  O234  1  0.63423772  0.73901049  0.99007757  1
  O  O235  1  0.49436410  0.24667343  0.13152986  1
  O  O236  1  0.49567189  0.25899451  0.64179528  1
  O  O237  1  0.49693223  0.73228545  0.11687166  1
  O  O238  1  0.49392721  0.74411278  0.62752212  1
  O  O239  1  0.99868958  0.24526664  0.12852560  1
  O  O240  1  0.98411189  0.25417839  0.62601147  1
  O  O241  1  1.00298762  0.74713201  0.14364333  1
  O  O242  1  1.00169815  0.73355738  0.61186161  1
  O  O243  1  -0.00460480  0.25454960  0.36156306  1
  O  O244  1  0.01166361  0.26630589  0.88205876  1
  O  O245  1  0.01522447  0.75215896  0.37438851  1
  O  O246  1  -0.00043162  0.73149497  0.86272375  1
  O  O247  1  0.50490406  0.26041328  0.36855348  1
  O  O248  1  0.50630526  0.25452608  0.86676304  1
  O  O249  1  0.45992792  0.77151056  0.35725801  1
  O  O250  1  0.50746287  0.75399436  0.86464671  1
  O  O251  1  0.23392102  0.12432304  0.49191663  1
  O  O252  1  0.26756874  0.13176336  0.98152246  1
  O  O253  1  0.25449135  0.62741252  0.49147109  1
  O  O254  1  0.24711077  0.62709506  0.99292455  1
  O  O255  1  0.74190170  0.12962423  0.49313303  1
  O  O256  1  0.73072303  0.11412146  1.00583726  1
  O  O257  1  0.75568979  0.61567245  0.48365210  1
  O  O258  1  0.73795935  0.61999209  0.99675260  1
  O  O259  1  0.25839103  0.37135698  0.00198792  1
  O  O260  1  0.25209134  0.38359771  0.51494484  1
  O  O261  1  0.26794913  0.86433855  -0.00068998  1
  O  O262  1  0.25329769  0.87132934  0.51145132  1
  O  O263  1  0.76324160  0.37985780  0.00754666  1
  O  O264  1  0.75488797  0.37095579  0.50912470  1
  O  O265  1  0.74526003  0.86413833  -0.00276019  1
  O  O266  1  0.75844171  0.87702173  0.50221336  1
  O  O267  1  0.13535818  0.49467308  0.24280706  1
  O  O268  1  0.13650997  0.48529790  0.74870163  1
  O  O269  1  0.15636964  1.00972750  0.24695622  1
  O  O270  1  0.13603771  1.01560417  0.73507520  1
  O  O271  1  0.63671657  0.50353638  0.24127214  1
  O  O272  1  0.63729770  0.49866228  0.74263912  1
  O  O273  1  0.63448325  1.01143647  0.25522857  1
  O  O274  1  0.62767738  0.99621170  0.74511249  1
  O  O275  1  0.36088012  0.01377575  0.26973943  1
  O  O276  1  0.36509988  0.00781097  0.74872211  1
  O  O277  1  0.36163257  0.49911898  0.24671359  1
  O  O278  1  0.37103622  0.51097927  0.74466735  1
  O  O279  1  0.85542422  0.01254201  0.25314917  1
  O  O280  1  0.86450280  0.00170866  0.75314855  1
  O  O281  1  0.87460265  0.50157540  0.25702381  1
  O  O282  1  0.86416775  0.50556655  0.75035910  1
  O  O283  1  0.12629060  0.37865857  0.35719816  1
  O  O284  1  0.11913083  0.37132248  0.87000525  1
  O  O285  1  0.11854247  0.86507153  0.38344010  1
  O  O286  1  0.11446028  0.88028052  0.83972372  1
  O  O287  1  0.62041835  0.37244871  0.36789984  1
  O  O288  1  0.61531704  0.36275422  0.88210605  1
  O  O289  1  0.61368905  0.85625177  0.42493402  1
  O  O290  1  0.61410617  0.86723381  0.86578186  1
  O  O291  1  0.38245115  0.14004016  0.11928369  1
  O  O292  1  0.36682767  0.13381477  0.63787195  1
  O  O293  1  0.38354904  0.61102748  0.12840990  1
  O  O294  1  0.38181468  0.62882559  0.62976095  1
  O  O295  1  0.86819761  0.12757756  0.12984229  1
  O  O296  1  0.86803400  0.13657713  0.62441643  1
  O  O297  1  0.87268915  0.62862977  0.13970779  1
  O  O298  1  0.88346955  0.63329174  0.62923394  1
  O  O299  1  0.25923811  0.25688680  0.12048825  1
  O  O300  1  0.26178251  0.26141566  0.63427318  1
  O  O301  1  0.24953926  0.74733516  0.11117204  1
  O  O302  1  0.25357069  0.75673772  0.61972424  1
  O  O303  1  0.74089817  0.26414866  0.13213523  1
  O  O304  1  0.75610836  0.25723113  0.61995971  1
  O  O305  1  0.74731525  0.74830008  0.10956173  1
  O  O306  1  0.76950742  0.77061642  0.63576901  1
  O  O307  1  0.25592411  0.25134788  0.38580613  1
  O  O308  1  0.24445614  0.24574704  0.87892854  1
  O  O309  1  0.25132464  0.74206784  0.38046403  1
  O  O310  1  0.24805335  0.73633354  0.88907977  1
  O  O311  1  0.74443325  0.24680416  0.38086101  1
  O  O312  1  0.73687608  0.24850717  0.87034540  1
  O  O313  1  0.76459796  0.73346508  0.37188938  1
  O  O314  1  0.74200025  0.74746298  0.88075235  1
  O  O315  1  -0.01869151  0.13588519  0.00635856  1
  O  O316  1  0.01683162  0.12251928  0.49056271  1
  O  O317  1  0.00639085  0.61241721  -0.00444320  1
  O  O318  1  -0.00157175  0.61351695  0.50555681  1
  O  O319  1  0.50022232  0.11493266  0.00666084  1
  O  O320  1  0.51278677  0.12270180  0.50057178  1
  O  O321  1  0.50453754  0.61520274  -0.00218606  1
  O  O322  1  0.50192001  0.61843193  0.50016936  1
  O  O323  1  0.50138640  0.38183848  0.49052969  1
  O  O324  1  0.49373254  0.37880930  0.99073668  1
  O  O325  1  0.48565499  0.88948040  0.51597277  1
  O  O326  1  0.49363478  0.87651318  0.99011369  1
  O  O327  1  0.99414248  0.38173029  0.49805659  1
  O  O328  1  0.98946477  0.38271836  0.99772847  1
  O  O329  1  0.99746804  0.88225756  0.48745722  1
  O  O330  1  1.00596696  0.87622080  1.00373936  1
  O  O331  1  0.50111093  0.48809905  0.38133068  1
  O  O332  1  0.50699193  0.48931166  0.88369338  1
  O  O333  1  0.50036401  0.99932259  0.39543193  1
  O  O334  1  0.49606135  0.99069535  0.88100955  1
  O  O335  1  0.99493575  0.49518818  0.38165298  1
  O  O336  1  0.99213502  0.48538370  0.88531989  1
  O  O337  1  1.01401248  0.98617454  0.36895682  1
  O  O338  1  0.98496968  0.99800415  0.87068618  1
  O  O339  1  0.00050761  0.01022800  0.14013605  1
  O  O340  1  0.01591212  0.00426786  0.62713662  1
  O  O341  1  0.00937049  0.49386359  0.11611009  1
  O  O342  1  -0.00031887  0.50323883  0.61500980  1
  O  O343  1  0.49232191  0.00850274  0.12036415  1
  O  O344  1  0.51340690  0.00108763  0.62193347  1
  O  O345  1  0.50662184  0.49835189  0.10744891  1
  O  O346  1  0.50685784  0.50024793  0.61787235  1
  O  O347  1  0.24464330  0.37869126  0.24236088  1
  O  O348  1  0.24743867  0.38031572  0.74565387  1
  O  O349  1  0.26557858  0.87818768  0.26337199  1
  O  O350  1  0.25423660  0.88696296  0.74111526  1
  O  O351  1  0.74669226  0.38417137  0.24496797  1
  O  O352  1  0.75591331  0.38272517  0.73574537  1
  O  O353  1  0.73447695  0.88638239  0.26725292  1
  O  O354  1  0.74168083  0.88528668  0.74193992  1
  O  O355  1  0.25263238  0.14231658  0.27476102  1
  O  O356  1  0.25744045  0.12111396  0.75930664  1
  O  O357  1  0.25655484  0.61481355  0.25368681  1
  O  O358  1  0.25796916  0.61612089  0.75589132  1
  O  O359  1  0.75324453  0.12281215  0.25852717  1
  O  O360  1  0.74815015  0.10999507  0.75067885  1
  O  O361  1  0.76655762  0.60869118  0.26410486  1
  O  O362  1  0.75576035  0.61579209  0.74232351  1
  O  O363  1  0.35915112  0.12995849  0.39407009  1
  O  O364  1  0.36954198  0.12384989  0.86205917  1
  O  O365  1  0.36641946  0.61953576  0.36334575  1
  O  O366  1  0.36506583  0.62436487  0.86544867  1
  O  O367  1  0.86215858  0.13077515  0.36669453  1
  O  O368  1  0.86230735  0.10565540  0.87263898  1
  O  O369  1  0.87293791  0.61028794  0.37548215  1
  O  O370  1  0.86933707  0.61336529  0.86394726  1
  O  O371  1  0.13086184  0.38425785  0.13265170  1
  O  O372  1  0.13310117  0.37457340  0.63386941  1
  O  O373  1  0.13790545  0.88760680  0.13009105  1
  O  O374  1  0.13282378  0.88498481  0.62077668  1
  O  O375  1  0.63001126  0.38133681  0.12825728  1
  O  O376  1  0.63388908  0.38589750  0.62108400  1
  O  O377  1  0.62471722  0.86714278  0.12280828  1
  O  O378  1  0.63135304  0.88503942  0.62786544  1
  O  O379  1  0.11279230  0.25613365  0.23993615  1
  O  O380  1  0.12720885  0.26234684  0.75900915  1
  O  O381  1  0.12287504  0.73895729  0.26403512  1
  O  O382  1  0.12862944  0.73732093  0.75715729  1
  O  O383  1  0.61387114  0.25828472  0.25424778  1
  O  O384  1  0.61610927  0.24312836  0.76007482  1
  O  O385  1  0.60862360  0.73247334  0.24979880  1
  O  O386  1  0.62037269  0.75406762  0.74714820  1
  O  O387  1  0.38963475  0.26024805  0.23961226  1
  O  O388  1  0.38437252  0.24291304  0.74425179  1
  O  O389  1  0.37215959  0.73151625  0.23633874  1
  O  O390  1  0.38291209  0.73356823  0.74065072  1
  O  O391  1  0.88405414  0.23793456  0.24620636  1
  O  O392  1  0.87213991  0.24846262  0.73471816  1
  O  O393  1  0.89445160  0.72923342  0.26790213  1
  O  O394  1  0.86676745  0.73345464  0.74608193  1
  O  O395  1  0.38946098  0.49643672  0.49926361  1
  O  O396  1  0.38416299  0.48780785  0.99967486  1
  O  O397  1  0.38348733  1.00006314  0.51278336  1
  O  O398  1  0.38495554  0.98196134  0.99619029  1
  O  O399  1  0.88396831  0.49273728  0.49398825  1
  O  O400  1  0.88108427  0.49494293  0.99627879  1
  O  O401  1  0.88014607  0.98783101  0.50057678  1
  O  O402  1  0.87528922  0.99648857  0.99014124  1
  O  O403  1  0.10427028  0.00620792  0.00150092  1
  O  O404  1  0.12374748  0.00877928  0.51335643  1
  O  O405  1  0.11715123  0.50288137  0.00762517  1
  O  O406  1  0.11385878  0.49847980  0.49926389  1
  O  O407  1  0.60654402  0.00596846  -0.00444632  1
  O  O408  1  0.61858490  0.01225021  0.51132210  1
  O  O409  1  0.61942922  0.50403138  -0.00012801  1
  O  O410  1  0.61464275  0.50169482  0.50658612  1
  O  O411  1  0.37326258  0.36569522  0.11267632  1
  O  O412  1  0.36715934  0.36837726  0.62657760  1
  O  O413  1  0.38174953  0.86349223  0.11046031  1
  O  O414  1  0.36226338  0.87022294  0.62220760  1
  O  O415  1  0.86518827  0.37974813  0.11762386  1
  O  O416  1  0.86779167  0.36736755  0.61849875  1
  O  O417  1  0.86605942  0.85431611  0.17292848  1
  O  O418  1  0.86481205  0.88209266  0.61247188  1
  O  O419  1  0.13709481  0.13070942  0.38476345  1
  O  O420  1  0.13440676  0.13933308  0.87200043  1
  O  O421  1  0.14146021  0.62831910  0.37744201  1
  O  O422  1  0.14028380  0.61012662  0.88852981  1
  O  O423  1  0.63093578  0.13598931  0.38564034  1
  O  O424  1  0.62621860  0.13103417  0.88501987  1
  O  O425  1  0.65042988  0.61714824  0.37738621  1
  O  O426  1  0.62568538  0.63012609  0.88009084  1
