# generated using pymatgen
data_V85Zn86O256
_symmetry_space_group_name_H-M   'P 1'
_cell_length_a   16.96388648
_cell_length_b   16.95714688
_cell_length_c   16.94244582
_cell_angle_alpha   90.00893561
_cell_angle_beta   90.01517283
_cell_angle_gamma   90.06656671
_symmetry_Int_Tables_number   1
_chemical_formula_structural   V85Zn86O256
_chemical_formula_sum   'V85 Zn86 O256'
_cell_volume   4873.64544848
_cell_formula_units_Z   1
loop_
 _symmetry_equiv_pos_site_id
 _symmetry_equiv_pos_as_xyz
  1  'x, y, z'
loop_
 _atom_site_type_symbol
 _atom_site_label
 _atom_site_symmetry_multiplicity
 _atom_site_fract_x
 _atom_site_fract_y
 _atom_site_fract_z
 _atom_site_occupancy
  V  V0  1  0.24942887  0.50066838  0.75276344  1
  V  V1  1  -0.00548458  -0.00513670  0.00309084  1
  V  V2  1  0.12733767  0.25560016  0.37281416  1
  V  V3  1  0.62060748  -0.00572415  0.62533036  1
  V  V4  1  -0.00030513  0.85681793  0.38201467  1
  V  V5  1  0.81051605  0.67236707  0.32493328  1
  V  V6  1  0.12057015  0.74723182  0.87290454  1
  V  V7  1  0.37191727  0.87198439  0.00337318  1
  V  V8  1  0.37345464  0.62568154  0.25258403  1
  V  V9  1  0.62227941  0.12150006  0.49669599  1
  V  V10  1  0.74901003  0.12442231  0.37419389  1
  V  V11  1  0.24847825  -0.00292593  0.74564905  1
  V  V12  1  0.00504075  0.25695230  0.24876755  1
  V  V13  1  0.00015345  0.12411972  0.12472332  1
  V  V14  1  0.37367777  0.75007630  0.61635476  1
  V  V15  1  0.75568286  0.25462320  -0.00296967  1
  V  V16  1  0.75322388  0.62762077  0.87320846  1
  V  V17  1  0.25923507  0.12487831  0.36925903  1
  V  V18  1  0.38190748  0.37185417  0.49996666  1
  V  V19  1  0.50430661  0.37385184  0.35865664  1
  V  V20  1  0.24890926  0.87466386  0.60828035  1
  V  V21  1  0.86693407  0.49226268  0.86908801  1
  V  V22  1  0.62476062  0.24831268  0.87118718  1
  V  V23  1  0.75245797  0.87372509  0.62828111  1
  V  V24  1  0.12397617  0.87299728  0.74622599  1
  V  V25  1  0.62794111  0.75317629  0.85962000  1
  V  V26  1  0.87659720  0.25696595  0.12043521  1
  V  V27  1  0.62295883  0.12231583  0.00072702  1
  V  V28  1  0.37638866  -0.00565406  0.87499761  1
  V  V29  1  0.49899526  0.37701569  0.87092732  1
  V  V30  1  0.23534424  0.37188114  0.12251278  1
  V  V31  1  0.75264847  0.37961337  0.62578439  1
  V  V32  1  0.49848347  0.12093509  0.61453394  1
  V  V33  1  0.12090134  0.62267122  0.00633428  1
  V  V34  1  0.37749023  0.12424612  0.75126573  1
  V  V35  1  0.62806762  0.63741932  0.00021299  1
  V  V36  1  0.12404541  0.24839558  0.87574269  1
  V  V37  1  0.00071391  0.24367557  0.74476299  1
  V  V38  1  0.37575557  0.50128105  0.87694447  1
  V  V39  1  0.24927866  0.63035357  0.38070179  1
  V  V40  1  0.62432110  0.50010540  0.13364004  1
  V  V41  1  0.36460203  0.75267536  0.12742167  1
  V  V42  1  0.24753761  0.62579260  0.87741824  1
  V  V43  1  0.87340806  0.85514234  0.00256312  1
  V  V44  1  0.24765785  0.12082544  0.87315234  1
  V  V45  1  0.25141458  0.37578809  0.62783751  1
  V  V46  1  0.87600310  0.12120668  0.74691118  1
  V  V47  1  0.62543223  0.74635631  0.37442709  1
  V  V48  1  0.50112391  0.86660393  0.86176465  1
  V  V49  1  0.62380839  0.25416179  0.36132851  1
  V  V50  1  0.12378684  0.12151516  0.00153154  1
  V  V51  1  0.37693833  0.24997193  0.62682200  1
  V  V52  1  0.50235440  0.24956104  0.74943947  1
  V  V53  1  0.75533191  0.86402962  0.12185744  1
  V  V54  1  0.12464855  0.37426465  0.75205947  1
  V  V55  1  0.87830292  0.25064034  0.62010360  1
  V  V56  1  0.11300857  0.00426481  0.61943410  1
  V  V57  1  -0.00948180  0.49330238  0.00018809  1
  V  V58  1  -0.02428243  0.62961896  0.13399765  1
  V  V59  1  0.62533532  0.00001306  0.12497594  1
  V  V60  1  0.62959134  0.38494384  0.74900795  1
  V  V61  1  0.37425152  0.49826271  0.37675633  1
  V  V62  1  0.74387083  -0.00446162  0.75214046  1
  V  V63  1  0.87847621  0.62959750  0.73973296  1
  V  V64  1  0.75061954  0.25369975  0.50016044  1
  V  V65  1  0.49829471  0.50686628  0.00076252  1
  V  V66  1  0.23749225  0.49677689  0.25112055  1
  V  V67  1  0.12833690  0.62913122  0.51036830  1
  V  V68  1  -0.00154707  0.37686498  0.37699346  1
  V  V69  1  0.11509945  0.12173424  0.50193363  1
  V  V70  1  0.37809000  0.63368265  0.75125446  1
  V  V71  1  -0.00365712  0.87042632  0.87126045  1
  V  V72  1  0.88895240  0.00894389  0.38736970  1
  V  V73  1  0.62937825  0.62359892  0.49930239  1
  V  V74  1  0.38412660  0.88677916  0.49983443  1
  V  V75  1  0.41673445  0.32880884  0.04545609  1
  V  V76  1  0.75393462  0.75023530  0.50611279  1
  V  V77  1  0.50638099  0.88442115  0.37979520  1
  V  V78  1  0.50377766  0.62974179  0.62893497  1
  V  V79  1  0.25149460  0.25060902  0.50068048  1
  V  V80  1  0.74865047  0.37546128  0.13357455  1
  V  V81  1  0.87687292  0.12344728  0.24801768  1
  V  V82  1  -0.00189520  0.49634533  0.51003498  1
  V  V83  1  0.50068112  0.75301947  0.24891325  1
  V  V84  1  0.87120252  0.49560922  0.37308138  1
  Zn  Zn85  1  0.50335132  -0.00465996  0.00092510  1
  Zn  Zn86  1  0.38578071  0.00967085  0.36918703  1
  Zn  Zn87  1  0.25666208  -0.01347739  0.23801705  1
  Zn  Zn88  1  0.87137917  -0.00366084  0.87470127  1
  Zn  Zn89  1  0.50302140  0.50057696  0.50112951  1
  Zn  Zn90  1  0.87643153  0.88088604  0.50724913  1
  Zn  Zn91  1  0.11551428  0.50072818  0.13139146  1
  Zn  Zn92  1  0.12047690  0.50221239  0.63103609  1
  Zn  Zn93  1  0.75250632  0.00094401  0.24767839  1
  Zn  Zn94  1  0.62776484  0.50179392  0.62562699  1
  Zn  Zn95  1  0.42618940  0.17761346  0.17161021  1
  Zn  Zn96  1  0.24241024  0.75393494  0.00695604  1
  Zn  Zn97  1  0.12225456  0.74353174  0.37436011  1
  Zn  Zn98  1  0.49942178  0.62839396  0.12518155  1
  Zn  Zn99  1  0.25096902  0.24918098  0.00490391  1
  Zn  Zn100  1  0.13001595  -0.01260440  0.12707894  1
  Zn  Zn101  1  -0.00615327  0.37042534  0.87836691  1
  Zn  Zn102  1  0.12472607  0.86493836  0.24374118  1
  Zn  Zn103  1  0.75163575  0.12201920  0.87502745  1
  Zn  Zn104  1  -0.00158178  0.74277410  0.71484436  1
  Zn  Zn105  1  0.74952897  0.50044135  0.25633134  1
  Zn  Zn106  1  0.62924020  0.87557637  0.24811526  1
  Zn  Zn107  1  0.18930578  0.18658779  0.18797825  1
  Zn  Zn108  1  0.18782329  0.18573568  0.68602225  1
  Zn  Zn109  1  0.18103962  0.68761688  0.19396557  1
  Zn  Zn110  1  0.19064352  0.69136595  0.68689406  1
  Zn  Zn111  1  0.68798440  0.18395750  0.18420107  1
  Zn  Zn112  1  0.68922805  0.18479511  0.68616217  1
  Zn  Zn113  1  0.68711646  0.68715936  0.18507404  1
  Zn  Zn114  1  0.69420164  0.68343690  0.68867655  1
  Zn  Zn115  1  0.31159363  0.31409734  0.30341436  1
  Zn  Zn116  1  0.31318369  0.31203378  0.81918129  1
  Zn  Zn117  1  0.31586333  0.81478393  0.31576248  1
  Zn  Zn118  1  0.30852043  0.81117343  0.80936968  1
  Zn  Zn119  1  0.81598041  0.31225993  0.31324232  1
  Zn  Zn120  1  0.81134792  0.31102943  0.80818069  1
  Zn  Zn121  1  0.81757073  0.83355791  0.31215270  1
  Zn  Zn122  1  0.81212667  0.80957263  0.81016519  1
  Zn  Zn123  1  0.18541452  0.43902712  0.44018057  1
  Zn  Zn124  1  0.18354102  0.43830310  0.94059543  1
  Zn  Zn125  1  0.20009113  0.92469973  0.40689405  1
  Zn  Zn126  1  0.18575304  0.93501483  0.94095274  1
  Zn  Zn127  1  0.68604450  0.43508347  0.44002995  1
  Zn  Zn128  1  0.68761108  0.43860512  0.94240058  1
  Zn  Zn129  1  0.69130298  0.93970863  0.43757566  1
  Zn  Zn130  1  0.68926497  0.93163852  0.93833377  1
  Zn  Zn131  1  0.31058501  0.05969234  0.06866697  1
  Zn  Zn132  1  0.30993754  0.06290987  0.55787890  1
  Zn  Zn133  1  0.31017372  0.56300354  0.06594173  1
  Zn  Zn134  1  0.31237006  0.56027670  0.56487519  1
  Zn  Zn135  1  0.80967275  0.06164175  0.06139461  1
  Zn  Zn136  1  0.80797435  0.06731065  0.56683636  1
  Zn  Zn137  1  0.80800498  0.56026740  0.05718577  1
  Zn  Zn138  1  0.81364897  0.55899025  0.55632929  1
  Zn  Zn139  1  0.43423490  0.44269607  0.18971009  1
  Zn  Zn140  1  0.43915928  0.44354792  0.68850248  1
  Zn  Zn141  1  0.43759878  0.94093777  0.18913273  1
  Zn  Zn142  1  0.43803807  0.93692298  0.68691229  1
  Zn  Zn143  1  0.93656192  0.43889716  0.18930889  1
  Zn  Zn144  1  0.93453786  0.43220977  0.69317458  1
  Zn  Zn145  1  0.94380142  0.93210149  0.19162686  1
  Zn  Zn146  1  0.93618504  0.93504739  0.68833673  1
  Zn  Zn147  1  0.07161057  0.06383343  0.30878359  1
  Zn  Zn148  1  0.05902125  0.05843648  0.81111874  1
  Zn  Zn149  1  0.05718064  0.56905613  0.31725509  1
  Zn  Zn150  1  0.05567833  0.56210647  0.81342316  1
  Zn  Zn151  1  0.56267368  0.06444594  0.30061977  1
  Zn  Zn152  1  0.56195656  0.06147862  0.81262191  1
  Zn  Zn153  1  0.56040759  0.56468895  0.31496792  1
  Zn  Zn154  1  0.56286327  0.56670113  0.81243798  1
  Zn  Zn155  1  0.43984167  0.19266017  0.33046432  1
  Zn  Zn156  1  0.41855006  0.16362346  0.96932428  1
  Zn  Zn157  1  0.44087728  0.68991925  0.43987354  1
  Zn  Zn158  1  0.43909451  0.69074892  0.93875041  1
  Zn  Zn159  1  0.93796084  0.19040629  0.43732203  1
  Zn  Zn160  1  0.93675955  0.18419944  0.93438923  1
  Zn  Zn161  1  0.95671416  0.70368040  0.50876297  1
  Zn  Zn162  1  0.93934427  0.68045248  0.93724461  1
  Zn  Zn163  1  0.06316991  0.31311463  0.06053610  1
  Zn  Zn164  1  0.06338318  0.31432813  0.56303687  1
  Zn  Zn165  1  0.05676405  0.80457513  0.06698773  1
  Zn  Zn166  1  0.06473960  0.82557685  0.55099609  1
  Zn  Zn167  1  0.58171603  0.31598596  0.05938253  1
  Zn  Zn168  1  0.56480725  0.30915644  0.56001666  1
  Zn  Zn169  1  0.55908747  0.81689478  0.06144407  1
  Zn  Zn170  1  0.56397317  0.80973751  0.56489742  1
  O  O171  1  0.11906862  0.12816056  0.11145980  1
  O  O172  1  0.13092019  0.11889120  0.61235479  1
  O  O173  1  0.12633809  0.62141603  0.11256986  1
  O  O174  1  0.13395149  0.62027761  0.61508083  1
  O  O175  1  0.63057355  0.11568406  0.11304582  1
  O  O176  1  0.61884346  0.11780469  0.61860707  1
  O  O177  1  0.62458702  0.61918481  0.11524983  1
  O  O178  1  0.61886919  0.62430201  0.62187097  1
  O  O179  1  0.38185684  0.38016863  0.38269359  1
  O  O180  1  0.38575821  0.38963587  0.86375030  1
  O  O181  1  0.39047317  0.87324570  0.38684703  1
  O  O182  1  0.38371831  0.87540301  0.87490879  1
  O  O183  1  0.89001761  0.37786327  0.37572150  1
  O  O184  1  0.87359605  0.38779066  0.86873971  1
  O  O185  1  0.88223627  0.89582840  0.38055572  1
  O  O186  1  0.88160674  0.87316592  0.88149696  1
  O  O187  1  0.25360202  0.02416043  0.38930130  1
  O  O188  1  0.25594213  0.00132790  0.86775159  1
  O  O189  1  0.25737556  0.50032671  0.36939453  1
  O  O190  1  0.25486353  0.50546301  0.87225347  1
  O  O191  1  0.75984699  0.00928683  0.37108124  1
  O  O192  1  0.74995899  -0.00103949  0.86584049  1
  O  O193  1  0.76462306  0.48770125  0.37739020  1
  O  O194  1  0.76183487  0.50476218  0.88036505  1
  O  O195  1  0.24464249  0.49331482  0.13353286  1
  O  O196  1  0.25072653  0.49220197  0.63703305  1
  O  O197  1  0.24424743  0.99708829  0.12395776  1
  O  O198  1  0.24571922  0.99264372  0.62854058  1
  O  O199  1  0.74262205  0.49140420  0.12507601  1
  O  O200  1  0.75010502  0.48302471  0.61747465  1
  O  O201  1  0.74155099  0.99324846  0.12468448  1
  O  O202  1  0.74048905  0.99577984  0.63174804  1
  O  O203  1  -0.00199874  0.36330971  0.25607753  1
  O  O204  1  0.00682447  0.36185550  0.75470552  1
  O  O205  1  -0.00170164  0.87939248  0.27734620  1
  O  O206  1  0.00417780  0.86842414  0.75622216  1
  O  O207  1  0.49872026  0.38012617  0.25957301  1
  O  O208  1  0.50872671  0.36932988  0.75081378  1
  O  O209  1  0.50482023  0.86395698  0.25924584  1
  O  O210  1  0.49650530  0.87259592  0.76254061  1
  O  O211  1  0.49791357  0.13589842  0.24935993  1
  O  O212  1  0.49432374  0.13123983  0.74416963  1
  O  O213  1  0.49212500  0.63742402  0.25254853  1
  O  O214  1  0.48956665  0.62193908  0.74298900  1
  O  O215  1  0.99594845  0.13662955  0.24495394  1
  O  O216  1  0.99379505  0.13536792  0.75249947  1
  O  O217  1  1.00048393  0.61493013  0.23121289  1
  O  O218  1  0.98489503  0.62810765  0.75194698  1
  O  O219  1  0.36715560  0.27118354  -0.02453694  1
  O  O220  1  0.36636787  0.26024515  0.51031427  1
  O  O221  1  0.37288639  0.75367053  0.01015976  1
  O  O222  1  0.37860559  0.75799787  0.51195323  1
  O  O223  1  0.86832708  0.24434012  0.00730734  1
  O  O224  1  0.86617651  0.24328080  0.51003446  1
  O  O225  1  0.87514754  0.75662551  -0.00567613  1
  O  O226  1  0.85564658  0.75238945  0.49373575  1
  O  O227  1  0.13358047  0.24577545  0.49672363  1
  O  O228  1  0.12380761  0.24127286  0.99065952  1
  O  O229  1  0.12691994  0.73101681  0.49803223  1
  O  O230  1  0.12409940  0.74027143  0.99129640  1
  O  O231  1  0.63249358  0.23849376  0.49617917  1
  O  O232  1  0.63311381  0.24232907  0.99034013  1
  O  O233  1  0.63384038  0.74539279  0.49248052  1
  O  O234  1  0.61908113  0.73929952  0.99405723  1
  O  O235  1  0.48145449  0.26975012  0.09737644  1
  O  O236  1  0.49526457  0.24242218  0.63040562  1
  O  O237  1  0.49432534  0.74981957  0.13518440  1
  O  O238  1  0.49236011  0.73874326  0.62464374  1
  O  O239  1  0.99486118  0.24713268  0.12964653  1
  O  O240  1  0.99112529  0.25492303  0.63255516  1
  O  O241  1  0.99007009  0.72745561  0.11599947  1
  O  O242  1  0.99565536  0.75422433  0.60330129  1
  O  O243  1  0.00647046  0.25655121  0.36888082  1
  O  O244  1  0.00972827  0.24968738  0.86882031  1
  O  O245  1  -0.00946007  0.75694566  0.39349216  1
  O  O246  1  0.00928041  0.75754216  0.87902686  1
  O  O247  1  0.51343766  0.26339545  0.38265207  1
  O  O248  1  0.51431609  0.25822131  0.87005299  1
  O  O249  1  0.50907247  0.75662928  0.36971544  1
  O  O250  1  0.51007601  0.75820418  0.87461742  1
  O  O251  1  0.24505634  0.14093885  0.49767411  1
  O  O252  1  0.23725313  0.12703048  0.98944705  1
  O  O253  1  0.23745287  0.61078617  0.49393041  1
  O  O254  1  0.23987334  0.62529120  0.99335770  1
  O  O255  1  0.74193337  0.13509530  0.49575493  1
  O  O256  1  0.74381506  0.13641797  0.99626452  1
  O  O257  1  0.73715913  0.63245797  0.50911675  1
  O  O258  1  0.73953080  0.61992540  0.98583166  1
  O  O259  1  0.24497248  0.37594710  0.01615573  1
  O  O260  1  0.25803816  0.36748464  0.50427437  1
  O  O261  1  0.26651842  0.86900541  -0.01211200  1
  O  O262  1  0.25967872  0.88015709  0.50493929  1
  O  O263  1  0.74381941  0.36104862  0.00992795  1
  O  O264  1  0.74362708  0.35980772  0.50891609  1
  O  O265  1  0.76194445  0.87839270  0.01102889  1
  O  O266  1  0.75106588  0.86907529  0.50857842  1
  O  O267  1  0.13506526  0.50397018  0.25345636  1
  O  O268  1  0.12849784  0.49295896  0.75251736  1
  O  O269  1  0.13259113  0.99696131  0.24642834  1
  O  O270  1  0.12941451  0.99395324  0.74197383  1
  O  O271  1  0.62575875  0.50903416  0.23750352  1
  O  O272  1  0.62195044  0.48847822  0.74905758  1
  O  O273  1  0.63141713  0.99663445  0.23955528  1
  O  O274  1  0.63373857  1.00610023  0.73982340  1
  O  O275  1  0.37055135  -0.00441206  0.25701931  1
  O  O276  1  0.37020473  0.00280653  0.75857338  1
  O  O277  1  0.36842244  0.50497612  0.26229333  1
  O  O278  1  0.36927192  0.51277709  0.75557766  1
  O  O279  1  0.87842802  0.01446905  0.25626912  1
  O  O280  1  0.86827970  0.00707270  0.75050954  1
  O  O281  1  0.87427979  0.49493432  0.26743742  1
  O  O282  1  0.88048434  0.50787850  0.76479313  1
  O  O283  1  0.11753699  0.36269305  0.38049458  1
  O  O284  1  0.12462475  0.36425042  0.86929392  1
  O  O285  1  0.10561429  0.86308699  0.39465083  1
  O  O286  1  0.11801308  0.86629743  0.86942842  1
  O  O287  1  0.61548709  0.36685745  0.37994280  1
  O  O288  1  0.62184177  0.37060067  0.86815404  1
  O  O289  1  0.62373985  0.86391595  0.37522864  1
  O  O290  1  0.61574204  0.86099772  0.87920447  1
  O  O291  1  0.38173457  0.14178084  0.07672778  1
  O  O292  1  0.38174394  0.12774231  0.62945216  1
  O  O293  1  0.37737201  0.63245674  0.13462069  1
  O  O294  1  0.37912938  0.63266812  0.62941413  1
  O  O295  1  0.87952373  0.13376383  0.13090971  1
  O  O296  1  0.87016705  0.13569840  0.63747595  1
  O  O297  1  0.87614752  0.61703345  0.12711038  1
  O  O298  1  0.86671854  0.61683581  0.64123834  1
  O  O299  1  0.24441969  0.26594259  0.12382753  1
  O  O300  1  0.25634492  0.25574164  0.62062090  1
  O  O301  1  0.26151207  0.74469586  0.12720063  1
  O  O302  1  0.25989437  0.76333368  0.62733718  1
  O  O303  1  0.75699251  0.25538307  0.11791418  1
  O  O304  1  0.75599704  0.25456694  0.61838644  1
  O  O305  1  0.74741182  0.76502927  0.12622273  1
  O  O306  1  0.73971461  0.76226326  0.61886991  1
  O  O307  1  0.24436498  0.24795426  0.38250091  1
  O  O308  1  0.23655369  0.24116676  0.87232602  1
  O  O309  1  0.25734099  0.73085970  0.37881982  1
  O  O310  1  0.23529282  0.74338056  0.87283196  1
  O  O311  1  0.74621503  0.24624817  0.38277242  1
  O  O312  1  0.74152037  0.25178612  0.88044186  1
  O  O313  1  0.74613473  0.74555117  0.37767255  1
  O  O314  1  0.73604598  0.74492128  0.87329013  1
  O  O315  1  0.00478739  0.11632807  0.00243279  1
  O  O316  1  0.01696138  0.13475626  0.49982422  1
  O  O317  1  0.00280443  0.61163157  0.00708824  1
  O  O318  1  0.01724273  0.60728272  0.49890454  1
  O  O319  1  0.52050156  0.11613809  -0.01422927  1
  O  O320  1  0.50837603  0.12810294  0.51350701  1
  O  O321  1  0.50883166  0.62059631  0.00078796  1
  O  O322  1  0.51296100  0.62712338  0.50783752  1
  O  O323  1  0.48912324  0.37654508  0.50074146  1
  O  O324  1  0.49488166  0.38369350  0.99511441  1
  O  O325  1  0.49633656  0.87060425  0.49276907  1
  O  O326  1  0.48789730  0.87393675  0.98698934  1
  O  O327  1  1.00560232  0.38655249  0.49183251  1
  O  O328  1  1.00268049  0.38876878  0.99759499  1
  O  O329  1  0.98956342  0.88681276  0.48690806  1
  O  O330  1  0.99078202  0.87918249  0.99356611  1
  O  O331  1  0.49203994  0.49319980  0.37875751  1
  O  O332  1  0.49832576  0.49706896  0.88260039  1
  O  O333  1  0.50788128  0.98723123  0.37218878  1
  O  O334  1  0.49373765  0.98613019  0.87293362  1
  O  O335  1  0.99557885  0.49205220  0.38237697  1
  O  O336  1  0.98788895  0.49712373  0.88457952  1
  O  O337  1  0.98786644  1.01694637  0.37667175  1
  O  O338  1  0.99878150  0.98423203  0.87977252  1
  O  O339  1  -0.00144252  0.00735763  0.11738130  1
  O  O340  1  0.01414364  -0.00363196  0.62943576  1
  O  O341  1  -0.00376247  0.50355906  0.11365746  1
  O  O342  1  -0.00143607  0.48890003  0.61341904  1
  O  O343  1  0.51927981  -0.01310601  0.11929488  1
  O  O344  1  0.50844601  0.00869523  0.63207257  1
  O  O345  1  0.50575143  0.50293708  0.11827811  1
  O  O346  1  0.50019193  0.51542225  0.62146370  1
  O  O347  1  0.25338471  0.38578929  0.23519568  1
  O  O348  1  0.24454534  0.38024661  0.74970659  1
  O  O349  1  0.23335134  0.88611644  0.29771554  1
  O  O350  1  0.24226942  0.87953367  0.73993669  1
  O  O351  1  0.75488210  0.37515519  0.23741690  1
  O  O352  1  0.73964925  0.36819225  0.73931610  1
  O  O353  1  0.75032527  0.88079310  0.23580179  1
  O  O354  1  0.75220865  0.88588192  0.74445233  1
  O  O355  1  0.24713531  0.12817758  0.26793887  1
  O  O356  1  0.25696046  0.11799918  0.75390331  1
  O  O357  1  0.25639834  0.61503667  0.25968059  1
  O  O358  1  0.25533201  0.61919755  0.75660177  1
  O  O359  1  0.76152866  0.12657072  0.25527668  1
  O  O360  1  0.75733080  0.11422372  0.75003249  1
  O  O361  1  0.74978492  0.62155445  0.25789985  1
  O  O362  1  0.76005891  0.62477327  0.76342165  1
  O  O363  1  0.36238307  0.12852365  0.38756505  1
  O  O364  1  0.37018092  0.11275457  0.87306187  1
  O  O365  1  0.37135525  0.61567202  0.37583502  1
  O  O366  1  0.37091553  0.62355769  0.86796494  1
  O  O367  1  0.87040300  0.12339778  0.36847218  1
  O  O368  1  0.87218929  0.12250636  0.86101728  1
  O  O369  1  0.87084717  0.61218261  0.37991596  1
  O  O370  1  0.86802692  0.61580257  0.87087378  1
  O  O371  1  0.13168914  0.38045396  0.12656079  1
  O  O372  1  0.13358305  0.37433987  0.63619933  1
  O  O373  1  0.11196670  0.87442071  0.12904084  1
  O  O374  1  0.13429438  0.88462562  0.62302718  1
  O  O375  1  0.63506174  0.38664660  0.12505094  1
  O  O376  1  0.63130871  0.37471533  0.63270945  1
  O  O377  1  0.63855740  0.87960971  0.12092494  1
  O  O378  1  0.63060920  0.88889445  0.61893479  1
  O  O379  1  0.11675412  0.24466486  0.26052135  1
  O  O380  1  0.11870364  0.25128393  0.75474738  1
  O  O381  1  0.12334738  0.74960470  0.26236475  1
  O  O382  1  0.11823714  0.75416155  0.75413277  1
  O  O383  1  0.63358061  0.24802565  0.26235717  1
  O  O384  1  0.62241596  0.25528044  0.75520760  1
  O  O385  1  0.61818209  0.74979569  0.25740012  1
  O  O386  1  0.62503921  0.74654121  0.76148993  1
  O  O387  1  0.38054331  0.24826596  0.25068918  1
  O  O388  1  0.38045586  0.24394716  0.74703570  1
  O  O389  1  0.38115329  0.74877799  0.24581617  1
  O  O390  1  0.36915789  0.73863832  0.74062794  1
  O  O391  1  0.88277548  0.24117940  0.24329422  1
  O  O392  1  0.88278145  0.24273389  0.74475673  1
  O  O393  1  0.86440105  0.73610941  0.27180513  1
  O  O394  1  0.87795895  0.73423502  0.75235828  1
  O  O395  1  0.37421394  0.49155897  0.49079160  1
  O  O396  1  0.38923218  0.51116375  0.99450920  1
  O  O397  1  0.37823050  0.98979593  0.49846739  1
  O  O398  1  0.37766208  0.99067074  0.98542067  1
  O  O399  1  0.89104935  0.50324419  0.49148621  1
  O  O400  1  0.88409667  0.50183276  0.98745109  1
  O  O401  1  0.87056088  1.01066403  0.48896638  1
  O  O402  1  0.88603625  0.99893070  0.99608801  1
  O  O403  1  0.11129725  0.00569753  -0.00256428  1
  O  O404  1  0.13025019  0.01783099  0.50485147  1
  O  O405  1  0.10951816  0.50730781  -0.00193884  1
  O  O406  1  0.11527151  0.50279704  0.50613095  1
  O  O407  1  0.62951034  0.00658752  0.00371507  1
  O  O408  1  0.63195905  0.01449363  0.50727482  1
  O  O409  1  0.61389532  0.50744961  0.00590679  1
  O  O410  1  0.62338763  0.50987744  0.50216316  1
  O  O411  1  0.36479116  0.38437416  0.11442144  1
  O  O412  1  0.37145786  0.37268139  0.62011900  1
  O  O413  1  0.38213936  0.86498891  0.11464261  1
  O  O414  1  0.37131123  0.86977031  0.61883008  1
  O  O415  1  0.87067849  0.36230406  0.12718883  1
  O  O416  1  0.86551974  0.36115205  0.63324862  1
  O  O417  1  0.86543769  0.87898155  0.11809574  1
  O  O418  1  0.85760454  0.88347043  0.62378609  1
  O  O419  1  0.13361207  0.13672243  0.38669294  1
  O  O420  1  0.12474114  0.12822096  0.88197903  1
  O  O421  1  0.13395120  0.62031596  0.38770069  1
  O  O422  1  0.12419274  0.63038582  0.88286295  1
  O  O423  1  0.62988638  0.13088399  0.38137949  1
  O  O424  1  0.63043704  0.13442289  0.87578835  1
  O  O425  1  0.62038319  0.63718714  0.38400152  1
  O  O426  1  0.63020558  0.63539117  0.87797515  1
