# generated using pymatgen
data_V85Zn86O256
_symmetry_space_group_name_H-M   'P 1'
_cell_length_a   16.95251258
_cell_length_b   16.95691214
_cell_length_c   16.97398944
_cell_angle_alpha   90.04630567
_cell_angle_beta   90.00726453
_cell_angle_gamma   89.99393350
_symmetry_Int_Tables_number   1
_chemical_formula_structural   V85Zn86O256
_chemical_formula_sum   'V85 Zn86 O256'
_cell_volume   4879.37981107
_cell_formula_units_Z   1
loop_
 _symmetry_equiv_pos_site_id
 _symmetry_equiv_pos_as_xyz
  1  'x, y, z'
loop_
 _atom_site_type_symbol
 _atom_site_label
 _atom_site_symmetry_multiplicity
 _atom_site_fract_x
 _atom_site_fract_y
 _atom_site_fract_z
 _atom_site_occupancy
  V  V0  1  0.62542556  0.74847799  0.87407903  1
  V  V1  1  0.25645753  0.62271813  0.37455827  1
  V  V2  1  0.74043307  0.49532205  0.75185866  1
  V  V3  1  0.12072899  0.50726385  0.62598478  1
  V  V4  1  0.24780948  0.24486188  0.49591444  1
  V  V5  1  0.25837045  0.49889411  0.25423619  1
  V  V6  1  0.62284385  0.62805692  0.50146646  1
  V  V7  1  0.12765439  0.88487112  0.75121098  1
  V  V8  1  0.63477943  -0.01066708  0.62044838  1
  V  V9  1  0.87159282  0.49614775  0.87630096  1
  V  V10  1  0.37785548  0.63264394  0.25087427  1
  V  V11  1  0.37593145  0.25241701  0.13345198  1
  V  V12  1  0.12126439  0.75051172  0.36778898  1
  V  V13  1  -0.00886304  0.88581079  0.87827634  1
  V  V14  1  -0.00008846  0.50283345  0.00410720  1
  V  V15  1  0.50123844  0.26227991  0.75043567  1
  V  V16  1  0.87150796  -0.00236380  0.38212242  1
  V  V17  1  0.62280182  0.26344381  0.86598167  1
  V  V18  1  0.00044852  0.49002456  0.49506758  1
  V  V19  1  0.74957003  0.12248721  0.87740789  1
  V  V20  1  0.37797855  0.87335192  0.50109213  1
  V  V21  1  0.37645828  0.25198236  0.62361184  1
  V  V22  1  0.12661619  0.11541515  0.00783067  1
  V  V23  1  0.37821636  0.49462071  0.87434584  1
  V  V24  1  0.87632795  0.12372483  0.75488217  1
  V  V25  1  0.61451960  0.12919570  -0.00791261  1
  V  V26  1  0.37314286  0.74966711  0.62619278  1
  V  V27  1  0.24644965  0.75171580  0.49844202  1
  V  V28  1  0.50134330  0.13443255  0.12883901  1
  V  V29  1  0.62367369  0.12565501  0.49993059  1
  V  V30  1  0.86667775  0.25343895  0.12660623  1
  V  V31  1  0.37220654  0.00087926  0.37405732  1
  V  V32  1  0.75033349  0.62405121  0.38139422  1
  V  V33  1  0.75834469  0.75498724  0.00308148  1
  V  V34  1  0.01264326  0.00756854  0.49408642  1
  V  V35  1  0.00664702  0.12810111  0.62175153  1
  V  V36  1  0.12861951  0.62538385  0.49746984  1
  V  V37  1  0.12994850  0.75219147  0.88317429  1
  V  V38  1  0.87677335  0.11829174  0.24990956  1
  V  V39  1  0.74548715  0.49923124  0.23785539  1
  V  V40  1  0.74761650  0.25008862  0.49807448  1
  V  V41  1  0.87513771  0.62225294  0.75061526  1
  V  V42  1  -0.00196930  0.25473413  0.25771635  1
  V  V43  1  0.62402874  0.37732948  0.23768978  1
  V  V44  1  0.25183209  0.62915938  0.88566937  1
  V  V45  1  0.74996348  0.12470174  0.37272420  1
  V  V46  1  0.74540574  0.37174586  0.63010987  1
  V  V47  1  0.49796742  0.86486327  0.36413632  1
  V  V48  1  0.24995387  0.37799622  0.62371972  1
  V  V49  1  -0.02192303  0.64198994  0.60299341  1
  V  V50  1  -0.00200706  0.87355348  0.37505720  1
  V  V51  1  0.62218237  0.74969353  0.36577610  1
  V  V52  1  0.25493593  -0.00124590  0.23630175  1
  V  V53  1  0.62717508  0.62084358  0.00751195  1
  V  V54  1  0.00268442  0.74674476  0.75356398  1
  V  V55  1  0.55261717  -0.04575394  0.04865382  1
  V  V56  1  0.24526548  0.88118844  0.62736216  1
  V  V57  1  0.36448058  0.87189809  -0.00266161  1
  V  V58  1  0.24739942  0.25089557  -0.00061905  1
  V  V59  1  0.87386918  0.48862764  0.37451606  1
  V  V60  1  0.24910664  0.37524120  0.12636503  1
  V  V61  1  0.37675160  0.37441107  -0.00311554  1
  V  V62  1  0.49886462  -0.00269832  0.50027688  1
  V  V63  1  0.12135825  0.88066384  0.24089635  1
  V  V64  1  0.37961831  0.38845517  0.49743216  1
  V  V65  1  -0.00022466  0.37516847  0.87828976  1
  V  V66  1  0.12359642  0.37774581  0.75190616  1
  V  V67  1  0.87551108  0.24805709  0.62695635  1
  V  V68  1  0.50229656  0.12376252  0.62551575  1
  V  V69  1  0.36824075  0.75114297  0.11761703  1
  V  V70  1  0.61283532  0.25346941  0.36692703  1
  V  V71  1  0.75571103  -0.00595574  0.74558254  1
  V  V72  1  0.61768410  0.49405683  0.62041839  1
  V  V73  1  0.49758949  0.62509510  0.62087898  1
  V  V74  1  0.12131892  0.37514720  0.26326714  1
  V  V75  1  0.12357750  0.49993633  0.12809413  1
  V  V76  1  0.50423576  0.49498217  -0.00112309  1
  V  V77  1  0.87655663  0.63044939  0.24991355  1
  V  V78  1  0.50371375  0.88119167  0.86689431  1
  V  V79  1  0.37410174  0.12088374  0.74856295  1
  V  V80  1  0.24888020  0.12218339  0.87009231  1
  V  V81  1  0.37355982  0.62562164  0.75183118  1
  V  V82  1  0.49955320  0.62115188  0.12654138  1
  V  V83  1  0.37746679  0.00115187  0.87503851  1
  V  V84  1  0.49914988  0.39598536  0.37534870  1
  Zn  Zn85  1  0.37664547  0.12990285  0.25442369  1
  Zn  Zn86  1  0.11286966  0.24400734  0.38557870  1
  Zn  Zn87  1  0.24289612  0.12080818  0.37400048  1
  Zn  Zn88  1  0.12365438  0.25101170  0.87688409  1
  Zn  Zn89  1  0.69073910  -0.04714473  0.20887323  1
  Zn  Zn90  1  0.63330986  0.86703842  0.74075862  1
  Zn  Zn91  1  0.86711252  0.89088792  0.00704991  1
  Zn  Zn92  1  0.24549773  0.87091822  0.11746493  1
  Zn  Zn93  1  0.74692700  0.62291811  0.87613037  1
  Zn  Zn94  1  0.00558499  0.12538928  0.13050968  1
  Zn  Zn95  1  -0.00859945  0.00389482  0.00876049  1
  Zn  Zn96  1  0.85166707  0.77098565  0.62165070  1
  Zn  Zn97  1  0.87817338  0.37036802  0.49784853  1
  Zn  Zn98  1  0.24817650  0.50220761  0.75214082  1
  Zn  Zn99  1  0.12808971  0.63099395  0.00765343  1
  Zn  Zn100  1  0.86697472  0.37953058  0.01236644  1
  Zn  Zn101  1  0.13041047  0.01025241  0.62511776  1
  Zn  Zn102  1  0.00240953  0.63188040  0.13505756  1
  Zn  Zn103  1  0.74500786  0.25298011  0.00502062  1
  Zn  Zn104  1  0.50087868  0.75069056  0.74914254  1
  Zn  Zn105  1  -0.00071497  0.25171967  0.75188251  1
  Zn  Zn106  1  0.88066686  0.77132856  0.14297453  1
  Zn  Zn107  1  0.18946349  0.18849375  0.19420540  1
  Zn  Zn108  1  0.18920914  0.19432985  0.68921674  1
  Zn  Zn109  1  0.18849293  0.68944018  0.18891813  1
  Zn  Zn110  1  0.18612810  0.69197426  0.69116601  1
  Zn  Zn111  1  0.70651096  0.14153229  0.16712329  1
  Zn  Zn112  1  0.68796831  0.18231387  0.68831061  1
  Zn  Zn113  1  0.69577730  0.76408854  0.19683902  1
  Zn  Zn114  1  0.68692716  0.68087322  0.69071814  1
  Zn  Zn115  1  0.31568804  0.31761475  0.31635803  1
  Zn  Zn116  1  0.31177042  0.31163380  0.81083611  1
  Zn  Zn117  1  0.31122950  0.81324444  0.30913693  1
  Zn  Zn118  1  0.31105515  0.81269005  0.81172448  1
  Zn  Zn119  1  0.80619531  0.31172732  0.30792028  1
  Zn  Zn120  1  0.81016861  0.31152014  0.81490813  1
  Zn  Zn121  1  0.80421918  0.81836354  0.32351401  1
  Zn  Zn122  1  0.81370353  0.80716289  0.81175142  1
  Zn  Zn123  1  0.19173329  0.43701439  0.43919117  1
  Zn  Zn124  1  0.18905552  0.44192474  0.93880332  1
  Zn  Zn125  1  0.18730720  0.93651527  0.43480756  1
  Zn  Zn126  1  0.18857631  0.94096405  0.93051101  1
  Zn  Zn127  1  0.68698611  0.43754755  0.43963780  1
  Zn  Zn128  1  0.68867243  0.43333899  0.94357529  1
  Zn  Zn129  1  0.68430246  0.93775393  0.42608920  1
  Zn  Zn130  1  0.69518485  0.93606028  0.92675876  1
  Zn  Zn131  1  0.31967796  0.06285574  0.05828161  1
  Zn  Zn132  1  0.31262102  0.06230655  0.56333324  1
  Zn  Zn133  1  0.31393692  0.55991655  0.06417985  1
  Zn  Zn134  1  0.31010825  0.56173287  0.56426052  1
  Zn  Zn135  1  0.81558001  0.04540393  0.07192610  1
  Zn  Zn136  1  0.82409708  -0.06354738  0.55822941  1
  Zn  Zn137  1  0.81154707  0.56755711  0.06372706  1
  Zn  Zn138  1  0.80821973  0.55733531  0.56041334  1
  Zn  Zn139  1  0.44100117  0.43856523  0.18759258  1
  Zn  Zn140  1  0.43567599  0.43982651  0.68683119  1
  Zn  Zn141  1  0.47787342  0.95812973  0.21268462  1
  Zn  Zn142  1  0.43919612  0.93778530  0.68714177  1
  Zn  Zn143  1  0.93669609  0.43760201  0.19133612  1
  Zn  Zn144  1  0.93625779  0.43951951  0.68571083  1
  Zn  Zn145  1  0.94084761  0.94419186  0.18245669  1
  Zn  Zn146  1  0.94492759  0.94488244  0.69345990  1
  Zn  Zn147  1  0.06622848  0.06458196  0.31124402  1
  Zn  Zn148  1  0.06365306  0.06595641  0.81312632  1
  Zn  Zn149  1  0.06144453  0.55975611  0.31517246  1
  Zn  Zn150  1  0.06202264  0.56459281  0.81556097  1
  Zn  Zn151  1  0.56270935  0.06686200  0.31299458  1
  Zn  Zn152  1  0.56516397  0.06257937  0.80611017  1
  Zn  Zn153  1  0.56662949  0.56657728  0.30764128  1
  Zn  Zn154  1  0.56012134  0.56216212  0.81381910  1
  Zn  Zn155  1  0.43344002  0.18896278  0.43894389  1
  Zn  Zn156  1  0.43841979  0.19162968  0.93581118  1
  Zn  Zn157  1  0.43880649  0.68406081  0.44106365  1
  Zn  Zn158  1  0.44029001  0.68763399  0.93691588  1
  Zn  Zn159  1  0.93624230  0.18684568  0.43889100  1
  Zn  Zn160  1  0.93671068  0.18709353  0.94044082  1
  Zn  Zn161  1  0.93879032  0.68608554  0.43297916  1
  Zn  Zn162  1  0.94127716  0.68560991  0.93745082  1
  Zn  Zn163  1  0.05859380  0.31180668  0.06897586  1
  Zn  Zn164  1  0.06493394  0.31354979  0.56624505  1
  Zn  Zn165  1  0.05368890  0.81081082  0.06357462  1
  Zn  Zn166  1  0.02190841  0.83591030  0.58012851  1
  Zn  Zn167  1  0.56179391  0.31067728  0.05716497  1
  Zn  Zn168  1  0.56040105  0.31385342  0.55903765  1
  Zn  Zn169  1  0.55525840  0.79037045  0.05851251  1
  Zn  Zn170  1  0.68485211  0.81028121  0.55239833  1
  O  O171  1  0.13093067  0.13272993  0.10918373  1
  O  O172  1  0.11182066  0.12922476  0.63571626  1
  O  O173  1  0.12452610  0.61339090  0.12830629  1
  O  O174  1  0.12406709  0.61689402  0.62036854  1
  O  O175  1  0.60987123  0.14197577  0.10699659  1
  O  O176  1  0.62173821  0.11572376  0.61780420  1
  O  O177  1  0.61315348  0.63256754  0.10927353  1
  O  O178  1  0.61591814  0.61834583  0.62007711  1
  O  O179  1  0.39134691  0.37540419  0.38072260  1
  O  O180  1  0.36763794  0.38461570  0.88144052  1
  O  O181  1  0.37537126  0.87764906  0.38440775  1
  O  O182  1  0.38228473  0.88126569  0.87609230  1
  O  O183  1  0.86789616  0.38513753  0.37741414  1
  O  O184  1  0.88211559  0.38480925  0.87428639  1
  O  O185  1  0.88583797  0.88467446  0.36630240  1
  O  O186  1  0.89064630  0.86982246  0.87365752  1
  O  O187  1  0.26211971  -0.00288708  0.36862847  1
  O  O188  1  0.25884553  0.01473648  0.87286067  1
  O  O189  1  0.24495631  0.51056279  0.36662749  1
  O  O190  1  0.26005048  0.50922972  0.87369071  1
  O  O191  1  0.75720721  0.01237911  0.37505947  1
  O  O192  1  0.74521731  0.01575868  0.86292946  1
  O  O193  1  0.75724096  0.50477045  0.37489194  1
  O  O194  1  0.75605675  0.49877478  0.86803725  1
  O  O195  1  0.24274911  0.49478206  0.13269873  1
  O  O196  1  0.23845048  0.49585835  0.62775885  1
  O  O197  1  0.26146414  0.99511329  0.13369095  1
  O  O198  1  0.24727730  0.98622668  0.61908645  1
  O  O199  1  0.75216407  0.50224921  0.13962109  1
  O  O200  1  0.74147452  0.49036353  0.63197689  1
  O  O201  1  0.73638965  1.03270024  0.14562226  1
  O  O202  1  0.74641278  0.99702925  0.63077083  1
  O  O203  1  0.01078560  0.37001411  0.24808949  1
  O  O204  1  0.00670510  0.37835561  0.75862321  1
  O  O205  1  0.01572557  0.88382442  0.25964934  1
  O  O206  1  0.00815703  0.86807216  0.76064051  1
  O  O207  1  0.50833965  0.38461819  0.26503766  1
  O  O208  1  0.49504199  0.36146410  0.74464926  1
  O  O209  1  0.47884532  0.85746944  0.26693566  1
  O  O210  1  0.50481476  0.87090483  0.75495279  1
  O  O211  1  0.49554683  0.12666554  0.23337651  1
  O  O212  1  0.49007704  0.13133428  0.74356487  1
  O  O213  1  0.48750859  0.61258083  0.24030445  1
  O  O214  1  0.48635513  0.62529669  0.74662802  1
  O  O215  1  0.99139310  0.13562933  0.25330948  1
  O  O216  1  0.99245464  0.12942049  0.74776236  1
  O  O217  1  0.98089986  0.61799414  0.25602116  1
  O  O218  1  0.99277781  0.63125179  0.74706639  1
  O  O219  1  0.36399071  0.25536866  0.00344953  1
  O  O220  1  0.36737440  0.25909137  0.50687973  1
  O  O221  1  0.37951098  0.75996577  0.00284516  1
  O  O222  1  0.36775346  0.75569519  0.50650743  1
  O  O223  1  0.87756783  0.24775172  0.01899399  1
  O  O224  1  0.86532301  0.25075417  0.50797666  1
  O  O225  1  0.86028126  0.74718170  -0.01034151  1
  O  O226  1  0.91215914  0.70920453  0.54182697  1
  O  O227  1  0.14336380  0.26142946  0.50087916  1
  O  O228  1  0.13712359  0.25017086  0.99913245  1
  O  O229  1  0.13225826  0.74148340  0.48578860  1
  O  O230  1  0.12115921  0.74923525  0.98704111  1
  O  O231  1  0.62966862  0.24567779  0.49270855  1
  O  O232  1  0.62108533  0.24573907  0.98145685  1
  O  O233  1  0.62397772  0.73279002  0.49076961  1
  O  O234  1  0.63459431  0.74238656  0.99064289  1
  O  O235  1  0.48629547  0.24603250  0.11649790  1
  O  O236  1  0.49592633  0.24342635  0.62912323  1
  O  O237  1  0.48443421  0.73171933  0.12121531  1
  O  O238  1  0.48904261  0.73272198  0.62948469  1
  O  O239  1  0.99248701  0.24545418  0.13840370  1
  O  O240  1  0.99258619  0.24812638  0.62671616  1
  O  O241  1  0.98795453  0.74133943  0.11784885  1
  O  O242  1  1.01997593  0.73886440  0.64340680  1
  O  O243  1  -0.00443244  0.25252770  0.36391905  1
  O  O244  1  0.00054897  0.26563004  0.87682402  1
  O  O245  1  0.00894479  0.75908675  0.37761485  1
  O  O246  1  0.00744214  0.75482008  0.86705428  1
  O  O247  1  0.51094163  0.25206428  0.37860598  1
  O  O248  1  0.51169316  0.24731411  0.86382138  1
  O  O249  1  0.51041750  0.75326823  0.38409043  1
  O  O250  1  0.50757028  0.76253125  0.87632580  1
  O  O251  1  0.25545825  0.14230334  0.50294117  1
  O  O252  1  0.24357263  0.13176048  0.99274970  1
  O  O253  1  0.24758251  0.62864724  0.49182824  1
  O  O254  1  0.24917537  0.62047192  0.98899795  1
  O  O255  1  0.74189587  0.13997051  0.48791120  1
  O  O256  1  0.73360002  0.13295082  0.98912193  1
  O  O257  1  0.74298621  0.61959723  0.48953474  1
  O  O258  1  0.74243483  0.63026512  0.99573684  1
  O  O259  1  0.25436821  0.36927699  0.00547922  1
  O  O260  1  0.25973126  0.36972623  0.50509665  1
  O  O261  1  0.26055442  0.87878990  -0.00365105  1
  O  O262  1  0.25684978  0.87015809  0.50516287  1
  O  O263  1  0.75623685  0.36477734  -0.00402294  1
  O  O264  1  0.74976591  0.36481471  0.51093771  1
  O  O265  1  0.75044125  0.85919474  -0.00874748  1
  O  O266  1  0.75241556  0.87851002  0.49348579  1
  O  O267  1  0.13159365  0.49393872  0.24595289  1
  O  O268  1  0.12363920  0.49467615  0.74357824  1
  O  O269  1  0.13842882  0.98659581  0.25400633  1
  O  O270  1  0.12276121  0.98829154  0.74870779  1
  O  O271  1  0.63789284  0.49421939  0.25244799  1
  O  O272  1  0.63569210  0.50577296  0.74365088  1
  O  O273  1  0.58787587  0.98282692  0.24711674  1
  O  O274  1  0.63636973  0.99984417  0.73616300  1
  O  O275  1  0.37312261  0.00016774  0.25896649  1
  O  O276  1  0.37924249  0.01020216  0.75889013  1
  O  O277  1  0.36182700  0.50727249  0.24419259  1
  O  O278  1  0.37233564  0.50663647  0.75804019  1
  O  O279  1  0.88188134  0.01444849  0.26376723  1
  O  O280  1  0.87004226  0.01399737  0.74519687  1
  O  O281  1  0.86480609  0.50210497  0.25814812  1
  O  O282  1  0.86619131  0.50124834  0.75882556  1
  O  O283  1  0.13017942  0.37116908  0.36536933  1
  O  O284  1  0.11849555  0.37922387  0.86867431  1
  O  O285  1  0.12117290  0.86748588  0.36609532  1
  O  O286  1  0.12107062  0.86966733  0.86861045  1
  O  O287  1  0.61297355  0.36948052  0.37671851  1
  O  O288  1  0.62785859  0.36163960  0.86962311  1
  O  O289  1  0.61364088  0.85732176  0.37795915  1
  O  O290  1  0.61814122  0.86811253  0.87070160  1
  O  O291  1  0.38227276  0.13702853  0.12082660  1
  O  O292  1  0.37954960  0.12913208  0.63233528  1
  O  O293  1  0.37816317  0.62846970  0.13100107  1
  O  O294  1  0.37774657  0.62568252  0.63274648  1
  O  O295  1  0.87802795  0.13490526  0.13885322  1
  O  O296  1  0.88767243  0.14053902  0.63636726  1
  O  O297  1  0.87362806  0.62040485  0.14533276  1
  O  O298  1  0.87870281  0.60506571  0.64202919  1
  O  O299  1  0.25545642  0.25669038  0.11791914  1
  O  O300  1  0.25591575  0.25871877  0.61731808  1
  O  O301  1  0.26242016  0.74879858  0.12348004  1
  O  O302  1  0.25253744  0.75896961  0.61874135  1
  O  O303  1  0.76408908  0.24055748  0.12820115  1
  O  O304  1  0.75402014  0.25368766  0.62036433  1
  O  O305  1  0.75765614  0.74214737  0.10621609  1
  O  O306  1  0.74319416  0.75566265  0.63192232  1
  O  O307  1  0.25606337  0.25164732  0.39059490  1
  O  O308  1  0.25104527  0.24044786  0.88263360  1
  O  O309  1  0.24433806  0.74261765  0.37852829  1
  O  O310  1  0.24263689  0.74132178  0.87154277  1
  O  O311  1  0.73915572  0.25075965  0.38376086  1
  O  O312  1  0.73524461  0.24021443  0.86727688  1
  O  O313  1  0.73376290  0.73836607  0.37463283  1
  O  O314  1  0.74164935  0.74472410  0.87973869  1
  O  O315  1  0.01997643  0.12920198  -0.00488702  1
  O  O316  1  -0.00173826  0.12088009  0.50978568  1
  O  O317  1  0.00493416  0.61087894  -0.00214699  1
  O  O318  1  0.01252176  0.61179484  0.49882566  1
  O  O319  1  0.50794214  0.12705292  0.00113790  1
  O  O320  1  0.50323286  0.11928031  0.50565048  1
  O  O321  1  0.50390647  0.61477811  0.00395993  1
  O  O322  1  0.50590475  0.62125368  0.51079741  1
  O  O323  1  0.49264790  0.37379276  0.48727644  1
  O  O324  1  0.49451823  0.38745863  1.00174577  1
  O  O325  1  0.48284973  0.87926804  0.49491064  1
  O  O326  1  0.49628456  0.88353431  0.99214065  1
  O  O327  1  0.99905822  0.38626973  0.50586722  1
  O  O328  1  0.99686045  0.38583294  0.99575376  1
  O  O329  1  1.00741984  0.88807837  0.48140087  1
  O  O330  1  1.00192525  0.87884257  0.98457088  1
  O  O331  1  0.50535298  0.49374762  0.37865537  1
  O  O332  1  0.48593608  0.50485087  0.88207593  1
  O  O333  1  0.48793238  0.98989199  0.38262146  1
  O  O334  1  0.49558311  0.98929925  0.86743140  1
  O  O335  1  0.98945755  0.50159815  0.38411529  1
  O  O336  1  0.99413260  0.49228289  0.88197849  1
  O  O337  1  0.99594914  0.99697055  0.37937023  1
  O  O338  1  1.00423472  0.98697155  0.87396730  1
  O  O339  1  0.00550589  0.01266227  0.12212972  1
  O  O340  1  0.00506687  0.01193159  0.61490210  1
  O  O341  1  0.00594897  0.50299197  0.12024796  1
  O  O342  1  0.00388637  0.51193314  0.61635817  1
  O  O343  1  0.49147103  0.01173493  0.10905729  1
  O  O344  1  0.50684204  0.00502142  0.61818745  1
  O  O345  1  0.49283864  0.51085777  0.11284130  1
  O  O346  1  0.51016239  0.50896734  0.63419996  1
  O  O347  1  0.24502834  0.38230061  0.24730119  1
  O  O348  1  0.24158254  0.37819996  0.74329715  1
  O  O349  1  0.24158746  0.88162609  0.24595853  1
  O  O350  1  0.24002949  0.86910959  0.73964763  1
  O  O351  1  0.73858076  0.38953272  0.25563509  1
  O  O352  1  0.75278959  0.38062763  0.73820507  1
  O  O353  1  0.73424445  0.85800967  0.24512929  1
  O  O354  1  0.75248057  0.88952440  0.75888063  1
  O  O355  1  0.25611154  0.11370609  0.24986423  1
  O  O356  1  0.26341386  0.13438481  0.75665481  1
  O  O357  1  0.25626751  0.61843725  0.25700652  1
  O  O358  1  0.26076531  0.62458621  0.75636799  1
  O  O359  1  0.76208078  0.14102054  0.26851578  1
  O  O360  1  0.75844798  0.11686552  0.75303731  1
  O  O361  1  0.75804782  0.60895381  0.26472065  1
  O  O362  1  0.75774348  0.61293940  0.75459954  1
  O  O363  1  0.37195484  0.11488323  0.37498751  1
  O  O364  1  0.37203847  0.11957160  0.86874609  1
  O  O365  1  0.36478321  0.63048022  0.36796225  1
  O  O366  1  0.36964299  0.62110447  0.86938051  1
  O  O367  1  0.86673788  0.11980692  0.37314374  1
  O  O368  1  0.86412403  0.13801831  0.86458150  1
  O  O369  1  0.86735724  0.61708001  0.37097799  1
  O  O370  1  0.87704092  0.61233723  0.86515549  1
  O  O371  1  0.12977952  0.38512514  0.13279722  1
  O  O372  1  0.12641002  0.38829742  0.63336555  1
  O  O373  1  0.12656409  0.86704589  0.13807082  1
  O  O374  1  0.12735155  0.87624785  0.63452564  1
  O  O375  1  0.61624384  0.36843509  0.13906551  1
  O  O376  1  0.63142553  0.38238630  0.62050257  1
  O  O377  1  0.60395079  0.88753305  0.10460497  1
  O  O378  1  0.62073066  0.88714301  0.62168151  1
  O  O379  1  0.11715045  0.26064567  0.24959063  1
  O  O380  1  0.12245194  0.26651572  0.75355987  1
  O  O381  1  0.13181365  0.76190289  0.26077633  1
  O  O382  1  0.11962719  0.75684435  0.76259650  1
  O  O383  1  0.62870838  0.26193122  0.26742229  1
  O  O384  1  0.61594127  0.24402843  0.75758289  1
  O  O385  1  0.61444242  0.72964904  0.26727870  1
  O  O386  1  0.62223593  0.74741863  0.76290216  1
  O  O387  1  0.36776838  0.25157126  0.23700402  1
  O  O388  1  0.38176449  0.24407116  0.74355932  1
  O  O389  1  0.36842144  0.73661609  0.24141822  1
  O  O390  1  0.37534077  0.74214602  0.74419280  1
  O  O391  1  0.88013051  0.24675390  0.24526677  1
  O  O392  1  0.87557683  0.24541237  0.74329417  1
  O  O393  1  0.86314613  0.73270418  0.25627782  1
  O  O394  1  0.88335773  0.73926450  0.74501687  1
  O  O395  1  0.37135725  0.48789297  0.50326313  1
  O  O396  1  0.38063582  0.49428593  0.99277840  1
  O  O397  1  0.37659127  0.99255925  0.49467047  1
  O  O398  1  0.37377562  0.99326837  0.98240429  1
  O  O399  1  0.88318604  0.49752946  0.49308940  1
  O  O400  1  0.88070461  0.50101595  0.99389916  1
  O  O401  1  0.88913707  1.00243643  0.48551534  1
  O  O402  1  0.87625795  1.00475787  0.99194164  1
  O  O403  1  0.12906650  0.01461097  -0.00339066  1
  O  O404  1  0.11654350  0.00085269  0.50055605  1
  O  O405  1  0.11859742  0.50063566  0.01162449  1
  O  O406  1  0.12055265  0.50308894  0.50673000  1
  O  O407  1  0.62164273  0.00630149  -0.00789104  1
  O  O408  1  0.61916365  0.00656264  0.50167870  1
  O  O409  1  0.61549463  0.50748368  -0.00856258  1
  O  O410  1  0.63034462  0.50927514  0.51312722  1
  O  O411  1  0.36967474  0.37039671  0.11875750  1
  O  O412  1  0.37122252  0.37196741  0.61742826  1
  O  O413  1  0.37553684  0.86433544  0.10961953  1
  O  O414  1  0.36662227  0.87134503  0.62023354  1
  O  O415  1  0.87828648  0.35839232  0.13005360  1
  O  O416  1  0.86743774  0.36465478  0.62426509  1
  O  O417  1  0.87192137  0.88120693  0.12161411  1
  O  O418  1  0.90568160  0.87245047  0.61481108  1
  O  O419  1  0.13066140  0.13323300  0.37088200  1
  O  O420  1  0.13476148  0.12993016  0.88003898  1
  O  O421  1  0.13422572  0.63164511  0.37440893  1
  O  O422  1  0.13535667  0.63233807  0.87522542  1
  O  O423  1  0.62824076  0.13602473  0.37698328  1
  O  O424  1  0.62863917  0.13065908  0.87604205  1
  O  O425  1  0.62963828  0.62678055  0.38349134  1
  O  O426  1  0.62115642  0.63309813  0.88461246  1
