# generated using pymatgen
data_V85Zn86O256
_symmetry_space_group_name_H-M   'P 1'
_cell_length_a   16.96275051
_cell_length_b   16.95719413
_cell_length_c   16.95427577
_cell_angle_alpha   90.02139759
_cell_angle_beta   89.97181715
_cell_angle_gamma   90.10189413
_symmetry_Int_Tables_number   1
_chemical_formula_structural   V85Zn86O256
_chemical_formula_sum   'V85 Zn86 O256'
_cell_volume   4876.73032136
_cell_formula_units_Z   1
loop_
 _symmetry_equiv_pos_site_id
 _symmetry_equiv_pos_as_xyz
  1  'x, y, z'
loop_
 _atom_site_type_symbol
 _atom_site_label
 _atom_site_symmetry_multiplicity
 _atom_site_fract_x
 _atom_site_fract_y
 _atom_site_fract_z
 _atom_site_occupancy
  V  V0  1  0.75049029  0.38257792  0.62860876  1
  V  V1  1  0.11496398  0.75357046  0.37065474  1
  V  V2  1  0.25045401  0.12580110  0.37380510  1
  V  V3  1  0.74960726  0.75016681  0.00988029  1
  V  V4  1  0.00217057  0.49623333  0.49442444  1
  V  V5  1  -0.00385796  0.87367196  0.88720830  1
  V  V6  1  0.00045950  0.62145486  0.62477114  1
  V  V7  1  0.49979167  0.25034261  0.74953479  1
  V  V8  1  0.11678162  0.24962158  0.37604130  1
  V  V9  1  0.13129619  0.12501673  0.51390099  1
  V  V10  1  0.24799934  0.62760508  0.89016387  1
  V  V11  1  0.37483472  0.24849968  0.62494294  1
  V  V12  1  0.24913978  0.50266355  0.75035245  1
  V  V13  1  0.31035299  0.81563313  0.06026429  1
  V  V14  1  0.75531280  0.75639354  0.49484384  1
  V  V15  1  0.37572281  -0.00200223  0.37203669  1
  V  V16  1  0.37451901  0.62784591  0.24638679  1
  V  V17  1  0.37281387  0.62835011  0.75085084  1
  V  V18  1  0.86094031  0.12009873  0.24674817  1
  V  V19  1  -0.00064732  0.37331568  0.87195046  1
  V  V20  1  0.49987926  -0.00591308  0.01038040  1
  V  V21  1  0.89414718  0.62868031  0.23876396  1
  V  V22  1  0.50144677  0.62942279  0.11624414  1
  V  V23  1  -0.00004112  0.23895166  0.24529313  1
  V  V24  1  -0.00202860  0.74672967  0.75580481  1
  V  V25  1  0.24890830  0.00151283  0.23536168  1
  V  V26  1  0.00004924  0.23641637  0.74942476  1
  V  V27  1  0.62098673  0.12854370  0.50181864  1
  V  V28  1  0.86630592  0.49888350  0.87069183  1
  V  V29  1  0.74338241  0.86995227  0.63525420  1
  V  V30  1  0.25284841  0.87716905  0.62519451  1
  V  V31  1  0.38895148  0.13047934  0.24770092  1
  V  V32  1  0.87874172  0.24911963  0.12206796  1
  V  V33  1  0.75403748  0.12677257  0.86939169  1
  V  V34  1  0.37480621  0.12070197  0.75616753  1
  V  V35  1  0.50066857  0.87422304  0.36997801  1
  V  V36  1  0.37330621  0.74984793  0.62399100  1
  V  V37  1  0.25083662  0.37564554  0.62537204  1
  V  V38  1  0.50192249  0.75088894  0.24358036  1
  V  V39  1  0.50148312  0.49975998  0.49757667  1
  V  V40  1  0.50003214  -0.00117529  0.50011183  1
  V  V41  1  0.24767811  0.50373667  0.25155115  1
  V  V42  1  0.87416481  0.75447877  0.62249773  1
  V  V43  1  0.25130060  0.25108507  0.49851922  1
  V  V44  1  0.74935353  0.50373621  0.24848542  1
  V  V45  1  0.06885329  0.67851953  0.05269339  1
  V  V46  1  0.87812621  0.49567942  0.37175262  1
  V  V47  1  0.12152057  0.50115625  0.12097748  1
  V  V48  1  0.36987795  0.37144894  0.00020622  1
  V  V49  1  0.00327058  0.50032759  -0.00236646  1
  V  V50  1  0.62725168  0.38099812  0.74971810  1
  V  V51  1  0.62822675  0.62554972  0.49445510  1
  V  V52  1  0.25285602  0.74768434  0.48652653  1
  V  V53  1  0.49926603  0.12396289  0.62731838  1
  V  V54  1  0.24748959  0.36593900  0.12356269  1
  V  V55  1  0.50439250  0.88015640  0.87004611  1
  V  V56  1  0.62277132  0.25147506  0.36699706  1
  V  V57  1  -0.05160736  0.07853642  0.58628955  1
  V  V58  1  0.50907161  0.75352146  0.74951806  1
  V  V59  1  0.64153452  0.88137176  0.24740815  1
  V  V60  1  0.37065157  0.50314257  0.37379651  1
  V  V61  1  0.07565420  -0.04457322  0.57186160  1
  V  V62  1  0.12384030  0.12740819  0.01377002  1
  V  V63  1  0.13170260  0.62223942  0.49332451  1
  V  V64  1  0.88205226  0.36977081  0.49606474  1
  V  V65  1  0.12230463  0.88034960  0.23870347  1
  V  V66  1  0.13035845  0.74594499  0.87683866  1
  V  V67  1  0.62064735  0.12640180  0.00370008  1
  V  V68  1  0.11611507  0.37480544  0.25346063  1
  V  V69  1  0.62586859  0.50681301  0.11674197  1
  V  V70  1  0.87790088  0.25246235  0.63158856  1
  V  V71  1  0.75049616  0.37591357  0.12265540  1
  V  V72  1  0.62076586  -0.00742462  0.63400507  1
  V  V73  1  0.39149865  0.24946563  0.12783626  1
  V  V74  1  0.12552680  0.37430653  0.75102301  1
  V  V75  1  0.75003175  0.25178963  0.49908040  1
  V  V76  1  0.37303972  0.50106175  0.87689235  1
  V  V77  1  0.87457920  -0.00217516  0.87103765  1
  V  V78  1  0.24455253  -0.00229615  0.75289301  1
  V  V79  1  0.86213288  0.61974310  0.74765258  1
  V  V80  1  0.49801920  0.62586644  0.62167525  1
  V  V81  1  0.24721574  0.12926020  0.88135234  1
  V  V82  1  -0.00056481  0.00475869  0.01295850  1
  V  V83  1  0.49871550  0.37286493  0.36638091  1
  V  V84  1  0.49887585  0.37379235  0.87640270  1
  Zn  Zn85  1  0.00058150  0.89377331  0.38920485  1
  Zn  Zn86  1  0.75119197  0.00189079  0.74847295  1
  Zn  Zn87  1  0.77320348  0.88484675  0.11456622  1
  Zn  Zn88  1  0.73659457  0.62254903  0.88238425  1
  Zn  Zn89  1  0.12575251  0.50108957  0.62366178  1
  Zn  Zn90  1  0.12341469  0.87589598  0.75265780  1
  Zn  Zn91  1  0.62533070  0.74587482  0.88337418  1
  Zn  Zn92  1  0.87151508  -0.01238568  0.37126977  1
  Zn  Zn93  1  0.74484973  0.11874960  0.36971465  1
  Zn  Zn94  1  0.63575432  0.00667631  0.13149174  1
  Zn  Zn95  1  0.75578126  0.62732443  0.37107779  1
  Zn  Zn96  1  0.12649591  0.24936007  0.88119525  1
  Zn  Zn97  1  0.62984007  0.50220237  0.62463769  1
  Zn  Zn98  1  0.50231584  0.50555460  -0.00296509  1
  Zn  Zn99  1  0.75075397  0.24914619  -0.00129635  1
  Zn  Zn100  1  0.37670185  0.87278486  0.49725979  1
  Zn  Zn101  1  0.62694478  0.24968607  0.87419089  1
  Zn  Zn102  1  0.87497700  0.37401807  -0.00196987  1
  Zn  Zn103  1  0.37578795  0.37497064  0.49815159  1
  Zn  Zn104  1  0.62075922  0.37343572  0.24451862  1
  Zn  Zn105  1  0.36884225  -0.00984065  0.88708650  1
  Zn  Zn106  1  0.62996272  0.74960603  0.37144398  1
  Zn  Zn107  1  0.19203289  0.18708519  0.18887272  1
  Zn  Zn108  1  0.18943801  0.18930376  0.69486728  1
  Zn  Zn109  1  0.18663274  0.68993926  0.19308858  1
  Zn  Zn110  1  0.18686094  0.68846783  0.68762259  1
  Zn  Zn111  1  0.68701667  0.19086195  0.18306693  1
  Zn  Zn112  1  0.68729563  0.19053420  0.68742608  1
  Zn  Zn113  1  0.68977627  0.69016049  0.18493883  1
  Zn  Zn114  1  0.68532430  0.68372475  0.68484445  1
  Zn  Zn115  1  0.31023294  0.31477431  0.30904780  1
  Zn  Zn116  1  0.31229070  0.30944920  0.81280094  1
  Zn  Zn117  1  0.31154284  0.81503007  0.22363536  1
  Zn  Zn118  1  0.31692692  0.81409781  0.81824882  1
  Zn  Zn119  1  0.81269809  0.31214019  0.31097631  1
  Zn  Zn120  1  0.81185422  0.31166913  0.81164196  1
  Zn  Zn121  1  0.82929120  0.81300153  0.30985328  1
  Zn  Zn122  1  0.80912176  0.81026912  0.82100341  1
  Zn  Zn123  1  0.18833536  0.43436281  0.43473775  1
  Zn  Zn124  1  0.18728453  0.43756464  0.93799419  1
  Zn  Zn125  1  0.19805854  0.93185586  0.42917986  1
  Zn  Zn126  1  0.18104819  0.93778545  0.94255226  1
  Zn  Zn127  1  0.68891822  0.43589930  0.43512683  1
  Zn  Zn128  1  0.68632940  0.43671513  0.93931800  1
  Zn  Zn129  1  0.68597980  0.93259664  0.43699897  1
  Zn  Zn130  1  0.68769334  0.93481853  0.94177892  1
  Zn  Zn131  1  0.31578686  0.06903476  0.06108049  1
  Zn  Zn132  1  0.31305602  0.05988738  0.56350015  1
  Zn  Zn133  1  0.31458970  0.55936669  0.06684041  1
  Zn  Zn134  1  0.31248793  0.56188130  0.56081720  1
  Zn  Zn135  1  0.81253459  0.06283554  0.05774927  1
  Zn  Zn136  1  0.78184917  0.03782085  0.52887603  1
  Zn  Zn137  1  0.81628997  0.56746990  0.05978224  1
  Zn  Zn138  1  0.81450074  0.56400877  0.55875124  1
  Zn  Zn139  1  0.43790643  0.44089044  0.18457121  1
  Zn  Zn140  1  0.43722001  0.43933867  0.68749623  1
  Zn  Zn141  1  0.44028256  0.94047333  0.18479407  1
  Zn  Zn142  1  0.43373832  0.93637889  0.69206039  1
  Zn  Zn143  1  0.93850807  0.43676497  0.18634863  1
  Zn  Zn144  1  0.93888439  0.43679399  0.68683973  1
  Zn  Zn145  1  0.94283114  0.94158496  0.19618897  1
  Zn  Zn146  1  0.92833759  0.92754929  0.70239120  1
  Zn  Zn147  1  0.06395775  0.05738662  0.30955929  1
  Zn  Zn148  1  0.06563437  0.05970811  0.81745645  1
  Zn  Zn149  1  0.06535297  0.56258581  0.31683105  1
  Zn  Zn150  1  0.06235675  0.56279770  0.81355071  1
  Zn  Zn151  1  0.56579574  0.06168577  0.31288902  1
  Zn  Zn152  1  0.56520582  0.06249888  0.81759986  1
  Zn  Zn153  1  0.56364885  0.56186056  0.30828816  1
  Zn  Zn154  1  0.56087622  0.56202784  0.81142643  1
  Zn  Zn155  1  0.43787349  0.18802758  0.43575575  1
  Zn  Zn156  1  0.43643546  0.18663398  0.94098409  1
  Zn  Zn157  1  0.43733279  0.68750712  0.43045370  1
  Zn  Zn158  1  0.43547766  0.69556300  0.93640467  1
  Zn  Zn159  1  0.96157542  0.13549836  0.41238662  1
  Zn  Zn160  1  0.93790615  0.18446120  0.93807048  1
  Zn  Zn161  1  0.93651467  0.68336094  0.43470667  1
  Zn  Zn162  1  0.92471457  0.68559876  0.93373124  1
  Zn  Zn163  1  0.06173798  0.31154888  0.06107080  1
  Zn  Zn164  1  0.06240545  0.30995147  0.56415090  1
  Zn  Zn165  1  -0.06954059  0.81294766  0.06705712  1
  Zn  Zn166  1  0.06475714  0.79399252  0.56422826  1
  Zn  Zn167  1  0.56499859  0.31493846  0.05854658  1
  Zn  Zn168  1  0.56217231  0.31530293  0.55998700  1
  Zn  Zn169  1  0.57035140  0.81468828  0.06259300  1
  Zn  Zn170  1  0.56360512  0.81054065  0.55864790  1
  O  O171  1  0.13023713  0.12698605  0.11292252  1
  O  O172  1  0.13720373  0.12653191  0.61373247  1
  O  O173  1  0.12700867  0.61992579  0.12082523  1
  O  O174  1  0.11806100  0.62452466  0.61551494  1
  O  O175  1  0.62844904  0.12676958  0.10848499  1
  O  O176  1  0.61690001  0.12035184  0.62089186  1
  O  O177  1  0.61453312  0.61700211  0.13277957  1
  O  O178  1  0.61760993  0.62165020  0.61166801  1
  O  O179  1  0.38036079  0.38472988  0.37457295  1
  O  O180  1  0.37798914  0.37699357  0.88256570  1
  O  O181  1  0.38418088  0.89068497  0.37350732  1
  O  O182  1  0.39339877  0.87553412  0.87613879  1
  O  O183  1  0.87142527  0.38351969  0.38420388  1
  O  O184  1  0.88283370  0.38169601  0.87356812  1
  O  O185  1  0.88783271  0.87615677  0.37924402  1
  O  O186  1  0.88504137  0.88359374  0.86870070  1
  O  O187  1  0.26153812  0.00775752  0.37031422  1
  O  O188  1  0.25169216  0.00615167  0.87005892  1
  O  O189  1  0.25843043  0.49470291  0.36465163  1
  O  O190  1  0.25414211  0.50711257  0.86950709  1
  O  O191  1  0.76435686  0.01139765  0.41364393  1
  O  O192  1  0.75619149  0.00797350  0.87507559  1
  O  O193  1  0.75844116  0.49934773  0.36581889  1
  O  O194  1  0.76319706  0.49945954  0.88050902  1
  O  O195  1  0.23943741  0.49142975  0.13014711  1
  O  O196  1  0.24952300  0.49150229  0.62996866  1
  O  O197  1  0.25668262  1.00442821  0.13732775  1
  O  O198  1  0.25690916  0.98478935  0.63215668  1
  O  O199  1  0.74477028  0.49632898  0.12823602  1
  O  O200  1  0.75079583  0.48641225  0.61730905  1
  O  O201  1  0.74717417  0.99504999  0.11504444  1
  O  O202  1  0.73881231  0.98806194  0.62314999  1
  O  O203  1  0.01241751  0.36728838  0.24821907  1
  O  O204  1  0.00702040  0.37274433  0.75880540  1
  O  O205  1  0.02255725  0.89703739  0.26597511  1
  O  O206  1  0.00205483  0.85909877  0.75844147  1
  O  O207  1  0.50056864  0.38278371  0.26286987  1
  O  O208  1  0.50171855  0.36907688  0.75587760  1
  O  O209  1  0.50232826  0.86980833  0.25770729  1
  O  O210  1  0.49815838  0.86820100  0.75925454  1
  O  O211  1  0.48797700  0.12211246  0.25436300  1
  O  O212  1  0.49486895  0.12991164  0.74783852  1
  O  O213  1  0.49466084  0.63280402  0.24420506  1
  O  O214  1  0.49046248  0.63099170  0.74006860  1
  O  O215  1  0.99375924  0.13592001  0.24842887  1
  O  O216  1  1.00804224  0.13717969  0.75291632  1
  O  O217  1  0.99390914  0.61891379  0.25153150  1
  O  O218  1  0.99503431  0.63287477  0.74598401  1
  O  O219  1  0.37887387  0.25768107  0.01493585  1
  O  O220  1  0.36863169  0.25158820  0.50627901  1
  O  O221  1  0.36606087  0.75383467  0.00478729  1
  O  O222  1  0.36828638  0.74722087  0.50333602  1
  O  O223  1  0.87510655  0.25181804  0.00850052  1
  O  O224  1  0.86724780  0.25924807  0.51136577  1
  O  O225  1  0.86404586  0.75387322  -0.00388617  1
  O  O226  1  0.86718590  0.73824519  0.51117232  1
  O  O227  1  0.13045591  0.24463532  0.49415496  1
  O  O228  1  0.11840349  0.23349295  0.99881331  1
  O  O229  1  0.13237312  0.73980268  0.49191236  1
  O  O230  1  0.12328475  0.73727940  0.98907117  1
  O  O231  1  0.63093965  0.24954712  0.49251349  1
  O  O232  1  0.62493785  0.23988936  0.99530169  1
  O  O233  1  0.63322043  0.74103954  0.49541904  1
  O  O234  1  0.63974611  0.75001072  1.00150864  1
  O  O235  1  0.48969492  0.26021356  0.12938281  1
  O  O236  1  0.49373938  0.24587077  0.62857376  1
  O  O237  1  0.50589232  0.74502320  0.13588862  1
  O  O238  1  0.49237458  0.74616633  0.62768391  1
  O  O239  1  0.99045901  0.25747886  0.13371843  1
  O  O240  1  0.99057000  0.25731291  0.63607370  1
  O  O241  1  1.01400520  0.73915530  0.10668833  1
  O  O242  1  0.99163072  0.74229341  0.63403075  1
  O  O243  1  0.01331450  0.23953390  0.36943275  1
  O  O244  1  -0.00188101  0.25832166  0.86702284  1
  O  O245  1  0.01443767  0.75089786  0.38334674  1
  O  O246  1  0.00474057  0.75245711  0.87102909  1
  O  O247  1  0.50853715  0.26174374  0.38236657  1
  O  O248  1  0.49747882  0.26132781  0.86955537  1
  O  O249  1  0.50280125  0.75871734  0.36509235  1
  O  O250  1  0.50068740  0.75921985  0.86567750  1
  O  O251  1  0.24756799  0.13130416  0.49544920  1
  O  O252  1  0.23581537  0.11631891  0.99342726  1
  O  O253  1  0.23872678  0.63096401  0.50519658  1
  O  O254  1  0.25444927  0.61813471  0.98902454  1
  O  O255  1  0.73974666  0.14394560  0.50708037  1
  O  O256  1  0.73846870  0.12712340  0.98741044  1
  O  O257  1  0.74269260  0.63257606  0.49879459  1
  O  O258  1  0.75717831  0.63934047  0.99808452  1
  O  O259  1  0.26124192  0.37948593  0.00741264  1
  O  O260  1  0.25188773  0.36958653  0.50873187  1
  O  O261  1  0.25624493  0.87746519  0.00213582  1
  O  O262  1  0.25499114  0.86635686  0.50765908  1
  O  O263  1  0.75261241  0.37338443  0.01058372  1
  O  O264  1  0.75684832  0.36731248  0.50597022  1
  O  O265  1  0.75117480  0.86107290  -0.00083373  1
  O  O266  1  0.74408066  0.85976940  0.51209536  1
  O  O267  1  0.12926047  0.49353627  0.24507552  1
  O  O268  1  0.13087509  0.49231629  0.74743042  1
  O  O269  1  0.14162564  0.99786933  0.25238879  1
  O  O270  1  0.13973592  0.99639216  0.75340795  1
  O  O271  1  0.63400709  0.49688246  0.24109855  1
  O  O272  1  0.61358881  0.48459453  0.74175418  1
  O  O273  1  0.62574777  0.98653857  0.25235292  1
  O  O274  1  0.62491177  1.00381083  0.73640239  1
  O  O275  1  0.36882203  0.00761487  0.25396742  1
  O  O276  1  0.36432665  0.00661926  0.75383325  1
  O  O277  1  0.36637112  0.50332231  0.25468055  1
  O  O278  1  0.36947153  0.50664636  0.75669989  1
  O  O279  1  0.87546008  0.01938308  0.25167034  1
  O  O280  1  0.87054979  0.00334434  0.76376425  1
  O  O281  1  0.87100342  0.50067852  0.25710244  1
  O  O282  1  0.88261307  0.50779910  0.75784130  1
  O  O283  1  0.13074324  0.36278539  0.36484628  1
  O  O284  1  0.11911944  0.37157680  0.86971595  1
  O  O285  1  0.12084385  0.86350439  0.38057330  1
  O  O286  1  0.11628830  0.86321987  0.87594807  1
  O  O287  1  0.61650028  0.36899560  0.37298088  1
  O  O288  1  0.61638997  0.37470165  0.86821845  1
  O  O289  1  0.61747209  0.87435540  0.36580991  1
  O  O290  1  0.60923065  0.87081462  0.87722386  1
  O  O291  1  0.37361369  0.14251756  0.13133853  1
  O  O292  1  0.38012596  0.12779483  0.63397326  1
  O  O293  1  0.38492801  0.61610308  0.13919100  1
  O  O294  1  0.37831891  0.63104947  0.62896187  1
  O  O295  1  0.86821233  0.13928134  0.13509695  1
  O  O296  1  0.87754894  0.13644282  0.63009691  1
  O  O297  1  0.88208767  0.61238534  0.13998356  1
  O  O298  1  0.88122209  0.62940560  0.63057204  1
  O  O299  1  0.25632039  0.26402722  0.13001627  1
  O  O300  1  0.25588142  0.25711372  0.62210980  1
  O  O301  1  0.25455856  0.76000696  0.13155984  1
  O  O302  1  0.25332811  0.75968418  0.61896584  1
  O  O303  1  0.75771880  0.26095928  0.12336939  1
  O  O304  1  0.75674165  0.26081235  0.62142044  1
  O  O305  1  0.75083637  0.75499177  0.11469485  1
  O  O306  1  0.75560831  0.75283095  0.62071009  1
  O  O307  1  0.24342406  0.24549091  0.37861051  1
  O  O308  1  0.24903901  0.23423651  0.87103276  1
  O  O309  1  0.24108698  0.75376028  0.38763460  1
  O  O310  1  0.23975773  0.74195384  0.86794464  1
  O  O311  1  0.74064391  0.25373793  0.38450252  1
  O  O312  1  0.74958816  0.24015987  0.87636009  1
  O  O313  1  0.75195881  0.74646449  0.38342484  1
  O  O314  1  0.74553297  0.74409486  0.88277174  1
  O  O315  1  0.01202369  0.11524047  -0.00504574  1
  O  O316  1  0.00987590  0.13090572  0.51844889  1
  O  O317  1  0.00296532  0.61836060  -0.00485938  1
  O  O318  1  0.01031107  0.61578748  0.50289909  1
  O  O319  1  0.51484665  0.11638478  -0.01005293  1
  O  O320  1  0.50267130  0.11982857  0.50703999  1
  O  O321  1  0.49056676  0.62681607  0.01321344  1
  O  O322  1  0.50634415  0.61933639  0.50073558  1
  O  O323  1  0.49735110  0.38530488  0.49160550  1
  O  O324  1  0.49081225  0.37730638  0.99119398  1
  O  O325  1  0.49921220  0.87783568  0.48623470  1
  O  O326  1  0.50561755  0.88910920  0.99447982  1
  O  O327  1  0.98990650  0.37985844  0.50458330  1
  O  O328  1  1.00043837  0.38118432  0.98648780  1
  O  O329  1  1.01848965  0.88973216  0.51515312  1
  O  O330  1  0.99680649  0.88694332  0.99186039  1
  O  O331  1  0.49473070  0.49521552  0.38221873  1
  O  O332  1  0.49105044  0.48817686  0.87331783  1
  O  O333  1  0.49573464  0.99438188  0.37952733  1
  O  O334  1  0.49906464  0.99075497  0.88033080  1
  O  O335  1  0.99556934  0.49811201  0.38669879  1
  O  O336  1  0.99588089  0.49268593  0.87995753  1
  O  O337  1  0.98797227  1.02172867  0.38460418  1
  O  O338  1  0.99418292  0.98905907  0.87379155  1
  O  O339  1  -0.00524876  0.00281573  0.11075358  1
  O  O340  1  0.00391907  0.00482425  0.64244261  1
  O  O341  1  0.01351562  0.49154751  0.11572315  1
  O  O342  1  0.00242871  0.50317100  0.61251109  1
  O  O343  1  0.50951244  -0.00188262  0.11329324  1
  O  O344  1  0.50248188  0.00218187  0.62081719  1
  O  O345  1  0.50880207  0.50934410  0.12441031  1
  O  O346  1  0.49658164  0.50480372  0.61014570  1
  O  O347  1  0.24104855  0.38455453  0.24191489  1
  O  O348  1  0.24610477  0.37958216  0.74440816  1
  O  O349  1  0.23975919  0.89421805  0.25892291  1
  O  O350  1  0.24955689  0.87946221  0.74373580  1
  O  O351  1  0.75116703  0.38586482  0.23858167  1
  O  O352  1  0.73963532  0.37139946  0.74174829  1
  O  O353  1  0.74027845  0.87063206  0.25672732  1
  O  O354  1  0.75292801  0.87534497  0.73823297  1
  O  O355  1  0.25754241  0.11645814  0.25496471  1
  O  O356  1  0.25515372  0.11669686  0.75724871  1
  O  O357  1  0.25731760  0.61201583  0.24391630  1
  O  O358  1  0.25700590  0.61976215  0.75222720  1
  O  O359  1  0.75665621  0.12783491  0.25040095  1
  O  O360  1  0.74091398  0.12389748  0.76505608  1
  O  O361  1  0.75381862  0.61208527  0.24951634  1
  O  O362  1  0.76030920  0.62242304  0.74564631  1
  O  O363  1  0.37180634  0.11867693  0.36786231  1
  O  O364  1  0.36766154  0.12277594  0.87057222  1
  O  O365  1  0.38123009  0.61034342  0.36287882  1
  O  O366  1  0.36887853  0.62240908  0.86928930  1
  O  O367  1  0.86406342  0.13907859  0.35434699  1
  O  O368  1  0.85993293  0.12126570  0.87722724  1
  O  O369  1  0.87585226  0.60797853  0.36984395  1
  O  O370  1  0.87358671  0.61390508  0.86183063  1
  O  O371  1  0.13140357  0.38060635  0.12973439  1
  O  O372  1  0.13714730  0.37495276  0.62983926  1
  O  O373  1  0.11937702  0.87324822  0.14397189  1
  O  O374  1  0.13156842  0.87690203  0.62641643  1
  O  O375  1  0.63285994  0.38194114  0.12604813  1
  O  O376  1  0.63329781  0.37555478  0.63047577  1
  O  O377  1  0.62601290  0.87711583  0.14348447  1
  O  O378  1  0.62972314  0.88123938  0.62192639  1
  O  O379  1  0.11933852  0.25414645  0.25483125  1
  O  O380  1  0.11776431  0.25882317  0.75242059  1
  O  O381  1  0.13276648  0.76455664  0.26454000  1
  O  O382  1  0.11547374  0.74997785  0.75843466  1
  O  O383  1  0.62926812  0.25259470  0.26296177  1
  O  O384  1  0.61529545  0.26106095  0.75047021  1
  O  O385  1  0.61897859  0.75980079  0.25313100  1
  O  O386  1  0.60983219  0.74777583  0.74207753  1
  O  O387  1  0.37149611  0.24492101  0.23872018  1
  O  O388  1  0.38003078  0.24175552  0.74401647  1
  O  O389  1  0.38576957  0.73772331  0.25772231  1
  O  O390  1  0.38158673  0.74485963  0.74310570  1
  O  O391  1  0.88279209  0.24817050  0.24249092  1
  O  O392  1  0.88376904  0.25778377  0.73917005  1
  O  O393  1  0.87445402  0.72543338  0.25494796  1
  O  O394  1  0.88061941  0.73997110  0.74474932  1
  O  O395  1  0.38135085  0.50045610  0.49006732  1
  O  O396  1  0.37834734  0.49023729  0.99445824  1
  O  O397  1  0.38260169  1.00015807  0.49051739  1
  O  O398  1  0.39631336  1.01206853  1.00153131  1
  O  O399  1  0.88282816  0.49256702  0.49310489  1
  O  O400  1  0.88841491  0.49868150  0.99137532  1
  O  O401  1  0.89499881  1.01845018  0.52783461  1
  O  O402  1  0.89169903  1.01247074  0.98580304  1
  O  O403  1  0.10867702  0.01006421  -0.00434439  1
  O  O404  1  0.13627410  0.00789583  0.50237320  1
  O  O405  1  0.11405003  0.49742818  0.00543220  1
  O  O406  1  0.12037892  0.50477962  0.49723936  1
  O  O407  1  0.61497165  0.01070556  -0.00194460  1
  O  O408  1  0.61641820  0.00584532  0.50989060  1
  O  O409  1  0.62130009  0.49766175  0.01218336  1
  O  O410  1  0.61771693  0.50548287  0.49939109  1
  O  O411  1  0.36943579  0.36918200  0.12018988  1
  O  O412  1  0.36418497  0.37061186  0.62493774  1
  O  O413  1  0.36899478  0.86852915  0.13130683  1
  O  O414  1  0.36929546  0.86701124  0.62174734  1
  O  O415  1  0.86816508  0.36832702  0.12276356  1
  O  O416  1  0.86900826  0.37062369  0.61873639  1
  O  O417  1  0.87939412  0.86566002  0.14900497  1
  O  O418  1  0.86774392  0.85973682  0.62867731  1
  O  O419  1  0.13274525  0.13172212  0.38476604  1
  O  O420  1  0.13350904  0.12691345  0.88264634  1
  O  O421  1  0.12575869  0.63783252  0.38136928  1
  O  O422  1  0.13596171  0.63277871  0.86837398  1
  O  O423  1  0.62552009  0.13342354  0.38276215  1
  O  O424  1  0.63500852  0.12718944  0.88262958  1
  O  O425  1  0.62725009  0.62417896  0.38446351  1
  O  O426  1  0.62420448  0.63086215  0.86597016  1
