# generated using pymatgen
data_V85Zn86O256
_symmetry_space_group_name_H-M   'P 1'
_cell_length_a   16.91573288
_cell_length_b   16.91171468
_cell_length_c   16.91208170
_cell_angle_alpha   89.97377272
_cell_angle_beta   89.98375766
_cell_angle_gamma   90.05442925
_symmetry_Int_Tables_number   1
_chemical_formula_structural   V85Zn86O256
_chemical_formula_sum   'V85 Zn86 O256'
_cell_volume   4838.10478574
_cell_formula_units_Z   1
loop_
 _symmetry_equiv_pos_site_id
 _symmetry_equiv_pos_as_xyz
  1  'x, y, z'
loop_
 _atom_site_type_symbol
 _atom_site_label
 _atom_site_symmetry_multiplicity
 _atom_site_fract_x
 _atom_site_fract_y
 _atom_site_fract_z
 _atom_site_occupancy
  V  V0  1  0.62821758  0.00230385  0.12638237  1
  V  V1  1  0.87418501  0.00740772  0.87204216  1
  V  V2  1  0.24911315  0.00114865  0.74889805  1
  V  V3  1  0.24666086  0.24259178  0.49958017  1
  V  V4  1  0.49725839  0.38035176  0.88925994  1
  V  V5  1  0.25480880  0.87122684  0.10964626  1
  V  V6  1  0.62757271  0.87534742  0.24806442  1
  V  V7  1  0.75338108  0.88023339  0.12713585  1
  V  V8  1  0.75077680  0.62320064  0.87455725  1
  V  V9  1  0.00072016  0.62605417  0.12168167  1
  V  V10  1  0.37318519  0.49855445  0.88490184  1
  V  V11  1  -0.00013886  0.01127882  0.49305804  1
  V  V12  1  0.36566267  0.37992578  0.49769146  1
  V  V13  1  0.26375861  0.25820170  0.00458749  1
  V  V14  1  0.62384597  0.49243005  0.12958355  1
  V  V15  1  0.12692417  0.00068756  0.11600851  1
  V  V16  1  0.25404297  0.61863177  0.38661085  1
  V  V17  1  0.62481085  0.87804568  0.74775441  1
  V  V18  1  0.49665781  0.62659532  0.62415379  1
  V  V19  1  0.36932452  0.61568706  0.74609023  1
  V  V20  1  -0.00088228  0.24958296  0.75178668  1
  V  V21  1  0.51085854  0.25360773  0.24963572  1
  V  V22  1  0.75148411  0.00668628  0.74423963  1
  V  V23  1  0.37268510  0.13702180  0.24862615  1
  V  V24  1  0.62039254  0.37694550  0.75005501  1
  V  V25  1  0.50054860  0.62172631  0.12836644  1
  V  V26  1  0.74981077  0.49822505  0.74967169  1
  V  V27  1  0.74677803  0.86585980  0.62231992  1
  V  V28  1  0.37489256  0.00236795  0.37415514  1
  V  V29  1  0.86829244  0.24676258  0.63102817  1
  V  V30  1  0.12475755  0.24903499  0.88454776  1
  V  V31  1  0.74640576  0.36943628  0.61659738  1
  V  V32  1  0.62309440  0.75038555  0.87514585  1
  V  V33  1  0.87549073  0.62476648  0.25095727  1
  V  V34  1  0.12097168  0.37431620  0.26123839  1
  V  V35  1  0.87518520  0.49119832  0.87882007  1
  V  V36  1  0.62762309  0.12653621  -0.00383516  1
  V  V37  1  0.51261259  0.00517474  0.50366111  1
  V  V38  1  0.37075799  0.87363947  0.49843501  1
  V  V39  1  0.37435366  -0.00944530  0.87759887  1
  V  V40  1  0.50461063  0.37490028  0.37411662  1
  V  V41  1  0.11034739  0.24310940  0.38324728  1
  V  V42  1  0.50223466  0.25316502  0.75193086  1
  V  V43  1  0.37640826  0.12449272  0.74886296  1
  V  V44  1  0.75745022  0.25488821  -0.00245543  1
  V  V45  1  0.12993349  0.50187180  0.63075251  1
  V  V46  1  -0.00235136  0.87383750  0.87440304  1
  V  V47  1  0.88051186  0.62191030  0.74367343  1
  V  V48  1  0.13072772  0.49729425  0.12935746  1
  V  V49  1  0.13552452  0.75243188  0.37795770  1
  V  V50  1  0.62092587  0.61899351  0.00236092  1
  V  V51  1  0.86457677  0.12507036  0.24442031  1
  V  V52  1  0.62189271  0.50157861  0.62383597  1
  V  V53  1  -0.00562978  0.12531316  0.62809170  1
  V  V54  1  0.86539628  -0.00273314  0.36442135  1
  V  V55  1  0.51573308  0.12441914  0.62269690  1
  V  V56  1  0.00123339  0.74572084  0.74297139  1
  V  V57  1  0.49279962  0.50253079  0.49313659  1
  V  V58  1  0.63151007  0.63363948  0.49930273  1
  V  V59  1  0.36687758  0.25531838  0.62588473  1
  V  V60  1  0.24771516  0.87541413  0.62033607  1
  V  V61  1  0.12406708  0.87528327  0.74804587  1
  V  V62  1  0.37395430  0.62217238  0.25769062  1
  V  V63  1  0.13980997  0.37506740  0.74646665  1
  V  V64  1  0.74797862  0.49342020  0.25614886  1
  V  V65  1  0.00307595  0.87517548  0.37225530  1
  V  V66  1  0.87162817  0.86769866  0.49756008  1
  V  V67  1  0.49708854  -0.00863952  0.00032736  1
  V  V68  1  0.11720275  0.63040002  0.50681113  1
  V  V69  1  0.88693186  0.49476595  0.37572602  1
  V  V70  1  0.24644538  0.12443256  0.88285458  1
  V  V71  1  0.75140774  0.74933228  0.00093100  1
  V  V72  1  0.36757989  0.75099595  0.62452005  1
  V  V73  1  0.50082973  0.87627658  0.37401986  1
  V  V74  1  0.37171354  0.74929891  0.11428517  1
  V  V75  1  0.87684101  0.75042436  0.12310842  1
  V  V76  1  0.25127941  -0.00162488  0.24694477  1
  V  V77  1  0.49294827  0.13165588  0.12176657  1
  V  V78  1  0.88259048  0.37223266  0.49824770  1
  V  V79  1  0.24969831  0.62767667  0.87309268  1
  V  V80  1  0.12432446  0.00761634  0.61846330  1
  V  V81  1  0.13659379  0.62906350  0.00261879  1
  V  V82  1  0.76097023  0.37741656  0.12242139  1
  V  V83  1  0.00740278  0.12898655  0.12138718  1
  V  V84  1  -0.00038668  0.49329721  0.00085509  1
  Zn  Zn85  1  0.62496267  0.25258531  0.87605065  1
  Zn  Zn86  1  0.73336748  0.11973845  0.38075978  1
  Zn  Zn87  1  0.24441760  0.12332648  0.37778338  1
  Zn  Zn88  1  0.00502595  0.74999518  0.24877214  1
  Zn  Zn89  1  0.63188626  0.24466826  0.38912743  1
  Zn  Zn90  1  0.87657154  0.87607274  -0.00216459  1
  Zn  Zn91  1  0.75291948  0.13028668  0.86783252  1
  Zn  Zn92  1  -0.00054789  0.50201645  0.51097950  1
  Zn  Zn93  1  0.49804576  0.75151507  0.25133226  1
  Zn  Zn94  1  0.49636601  0.87097703  0.87684668  1
  Zn  Zn95  1  -0.00427273  0.25124971  0.25567285  1
  Zn  Zn96  1  0.00173652  0.00415548  -0.00430891  1
  Zn  Zn97  1  -0.00057880  0.37249910  0.87757263  1
  Zn  Zn98  1  0.26185806  0.36217653  0.13606141  1
  Zn  Zn99  1  0.25466563  0.49440094  0.26020816  1
  Zn  Zn100  1  0.87627509  0.74245597  0.61744111  1
  Zn  Zn101  1  0.63250352  0.75561786  0.37857550  1
  Zn  Zn102  1  0.12821054  0.87317307  0.24635386  1
  Zn  Zn103  1  0.49661732  0.75102971  0.75120712  1
  Zn  Zn104  1  0.88114654  0.25532188  0.12198864  1
  Zn  Zn105  1  0.12846802  0.75172772  0.87754342  1
  Zn  Zn106  1  0.75573191  0.63020286  0.38143188  1
  Zn  Zn107  1  0.18514360  0.18951676  0.19079879  1
  Zn  Zn108  1  0.18536804  0.18704606  0.68977120  1
  Zn  Zn109  1  0.19203250  0.68595208  0.19155704  1
  Zn  Zn110  1  0.18805732  0.68629958  0.68831418  1
  Zn  Zn111  1  0.68738432  0.19028786  0.18452169  1
  Zn  Zn112  1  0.69471058  0.18666038  0.55180152  1
  Zn  Zn113  1  0.69009232  0.68817558  0.19179787  1
  Zn  Zn114  1  0.68822950  0.68848660  0.68822929  1
  Zn  Zn115  1  0.31031188  0.31369174  0.32113855  1
  Zn  Zn116  1  0.31526675  0.31240314  0.81891745  1
  Zn  Zn117  1  0.31314413  0.81022253  0.30717346  1
  Zn  Zn118  1  0.30953135  0.80810025  0.81029142  1
  Zn  Zn119  1  0.80729330  0.30842943  0.31458252  1
  Zn  Zn120  1  0.80973121  0.31227691  0.80877995  1
  Zn  Zn121  1  0.81097640  0.80945716  0.31059692  1
  Zn  Zn122  1  0.81328923  0.81207679  0.80966493  1
  Zn  Zn123  1  0.18193556  0.43481477  0.44385195  1
  Zn  Zn124  1  0.18892728  0.43863342  0.93557490  1
  Zn  Zn125  1  0.18699201  0.94104225  0.43691648  1
  Zn  Zn126  1  0.18591278  0.93667688  0.93610358  1
  Zn  Zn127  1  0.68616888  0.43952964  0.43776087  1
  Zn  Zn128  1  0.68467480  0.43669456  0.93960756  1
  Zn  Zn129  1  0.68869823  0.93791262  0.43890486  1
  Zn  Zn130  1  0.68886726  0.93745422  0.93710429  1
  Zn  Zn131  1  0.31265848  0.06457581  0.06069558  1
  Zn  Zn132  1  0.31861589  0.06281318  0.56222986  1
  Zn  Zn133  1  0.33416456  0.52695069  0.08418318  1
  Zn  Zn134  1  0.30464594  0.55974485  0.56379806  1
  Zn  Zn135  1  0.81536078  0.06366252  0.05825048  1
  Zn  Zn136  1  0.81797260  0.04885409  0.56771478  1
  Zn  Zn137  1  0.81231836  0.56106787  0.06208064  1
  Zn  Zn138  1  0.81210456  0.55689641  0.56371194  1
  Zn  Zn139  1  0.43652217  0.43536240  0.19247329  1
  Zn  Zn140  1  0.43311274  0.43772493  0.68597384  1
  Zn  Zn141  1  0.43625014  0.93819485  0.18542604  1
  Zn  Zn142  1  0.44109506  0.93848241  0.68702716  1
  Zn  Zn143  1  0.94224380  0.43808638  0.19049038  1
  Zn  Zn144  1  0.94256163  0.43474430  0.68748200  1
  Zn  Zn145  1  0.94064065  0.94016898  0.18645903  1
  Zn  Zn146  1  0.93449914  0.93498442  0.68621929  1
  Zn  Zn147  1  0.06137130  0.06561545  0.30598493  1
  Zn  Zn148  1  0.06247133  0.06416328  0.81082270  1
  Zn  Zn149  1  0.06470718  0.56544104  0.31456827  1
  Zn  Zn150  1  0.06371745  0.55899644  0.81243774  1
  Zn  Zn151  1  0.56223617  0.06341878  0.30956347  1
  Zn  Zn152  1  0.56419195  0.06111432  0.81138374  1
  Zn  Zn153  1  0.56236657  0.56250765  0.31418313  1
  Zn  Zn154  1  0.55758955  0.56306367  0.81207046  1
  Zn  Zn155  1  0.44092861  0.18909356  0.43691146  1
  Zn  Zn156  1  0.43752640  0.18473241  0.93501467  1
  Zn  Zn157  1  0.43886626  0.69300725  0.43945665  1
  Zn  Zn158  1  0.43865029  0.67988977  0.93842786  1
  Zn  Zn159  1  0.87816774  0.17132477  0.45350387  1
  Zn  Zn160  1  0.93733090  0.18604225  0.93829865  1
  Zn  Zn161  1  0.94210507  0.68828429  0.43243247  1
  Zn  Zn162  1  0.94068666  0.68344676  0.93367817  1
  Zn  Zn163  1  0.06993274  0.31495665  0.06652477  1
  Zn  Zn164  1  0.06257913  0.31331738  0.56498657  1
  Zn  Zn165  1  0.06538458  0.81309430  0.06046659  1
  Zn  Zn166  1  0.06062557  0.81543910  0.55895030  1
  Zn  Zn167  1  0.56649880  0.31082928  0.06500800  1
  Zn  Zn168  1  0.55291982  0.31480512  0.56463887  1
  Zn  Zn169  1  0.56136669  0.80860102  0.06384298  1
  Zn  Zn170  1  0.55730821  0.81490734  0.56540447  1
  O  O171  1  0.11435843  0.11867549  0.12973642  1
  O  O172  1  0.11417929  0.11482163  0.62769917  1
  O  O173  1  0.11965293  0.62430033  0.11707629  1
  O  O174  1  0.12887081  0.61581685  0.61971401  1
  O  O175  1  0.61791341  0.11904627  0.11615137  1
  O  O176  1  0.61428603  0.12982275  0.62495379  1
  O  O177  1  0.62033638  0.62163905  0.12065553  1
  O  O178  1  0.61862650  0.62266570  0.61754529  1
  O  O179  1  0.38570888  0.37135852  0.38866382  1
  O  O180  1  0.37975273  0.39034941  0.87370295  1
  O  O181  1  0.38049682  0.87866535  0.37994993  1
  O  O182  1  0.37437601  0.88665145  0.86790088  1
  O  O183  1  0.86818551  0.38196003  0.38657139  1
  O  O184  1  0.87608689  0.38746344  0.87004117  1
  O  O185  1  0.88215906  0.87996179  0.37516859  1
  O  O186  1  0.88275921  0.88168494  0.87408720  1
  O  O187  1  0.25491807  0.00299362  0.36518304  1
  O  O188  1  0.25529885  0.00658772  0.87122989  1
  O  O189  1  0.24455298  0.51549176  0.38024156  1
  O  O190  1  0.26326184  0.50957800  0.87855974  1
  O  O191  1  0.76205638  -0.00032665  0.37369893  1
  O  O192  1  0.75778183  -0.00139424  0.86552517  1
  O  O193  1  0.75701105  0.50528544  0.36852167  1
  O  O194  1  0.75564267  0.50313015  0.87087163  1
  O  O195  1  0.23205476  0.51767987  0.13717873  1
  O  O196  1  0.23200627  0.49649339  0.62498655  1
  O  O197  1  0.24734298  0.99394654  0.12768685  1
  O  O198  1  0.24179315  0.99900927  0.62759949  1
  O  O199  1  0.74509459  0.49455188  0.13109578  1
  O  O200  1  0.74189686  0.49222488  0.63203547  1
  O  O201  1  0.74019120  0.99240167  0.11561300  1
  O  O202  1  0.75320439  0.98598978  0.63841994  1
  O  O203  1  0.01482163  0.36891212  0.24518558  1
  O  O204  1  0.00812931  0.36117777  0.75310475  1
  O  O205  1  0.00353169  0.87606153  0.26153003  1
  O  O206  1  0.00367410  0.87025001  0.75740256  1
  O  O207  1  0.49285087  0.36553548  0.26014816  1
  O  O208  1  0.50129309  0.36963647  0.75414295  1
  O  O209  1  0.50623653  0.87637253  0.25735638  1
  O  O210  1  0.50960689  0.87309356  0.75313507  1
  O  O211  1  0.49182154  0.13148622  0.24008895  1
  O  O212  1  0.49464457  0.13125320  0.74585562  1
  O  O213  1  0.49432844  0.63013230  0.24802773  1
  O  O214  1  0.49109912  0.62792238  0.74060677  1
  O  O215  1  0.99211113  0.12750438  0.23570360  1
  O  O216  1  1.00543172  0.13814306  0.74175703  1
  O  O217  1  0.99064419  0.62437672  0.24276065  1
  O  O218  1  0.99244188  0.63286582  0.75726723  1
  O  O219  1  0.36265812  0.24845773  -0.00428929  1
  O  O220  1  0.36866491  0.25636189  0.50844372  1
  O  O221  1  0.37721573  0.74131185  0.01528750  1
  O  O222  1  0.37838222  0.76538312  0.50751076  1
  O  O223  1  0.86218004  0.24646333  0.00228075  1
  O  O224  1  0.87886889  0.26085800  0.51963742  1
  O  O225  1  0.87016259  0.74960824  0.00448182  1
  O  O226  1  0.88383434  0.76267417  0.49844198  1
  O  O227  1  0.13096843  0.25435478  0.49195165  1
  O  O228  1  0.13030886  0.25255312  0.98725987  1
  O  O229  1  0.12212627  0.74390177  0.49305949  1
  O  O230  1  0.12026774  0.73312860  0.99674136  1
  O  O231  1  0.62313059  0.25648446  0.50385997  1
  O  O232  1  0.63466328  0.24178423  0.99919237  1
  O  O233  1  0.61811288  0.73629980  0.50306787  1
  O  O234  1  0.63088093  0.74139424  0.99493564  1
  O  O235  1  0.50197967  0.24121638  0.13106250  1
  O  O236  1  0.48622494  0.24290670  0.63356718  1
  O  O237  1  0.49088638  0.74021957  0.12723104  1
  O  O238  1  0.48511240  0.74473825  0.62555658  1
  O  O239  1  1.00208149  0.24063417  0.12520877  1
  O  O240  1  0.99585641  0.24222061  0.63211035  1
  O  O241  1  0.99380757  0.74581288  0.12515009  1
  O  O242  1  0.99741824  0.75767746  0.63881007  1
  O  O243  1  0.01115140  0.24448009  0.37983063  1
  O  O244  1  0.00678381  0.24902807  0.87037083  1
  O  O245  1  0.01167429  0.75928590  0.37165840  1
  O  O246  1  0.00169850  0.75791259  0.86480812  1
  O  O247  1  0.50103216  0.25796067  0.36663638  1
  O  O248  1  0.49699579  0.25998546  0.86834763  1
  O  O249  1  0.50544135  0.76569367  0.37579653  1
  O  O250  1  0.51095770  0.74920412  0.87618144  1
  O  O251  1  0.25592477  0.13759251  0.50075808  1
  O  O252  1  0.25344071  0.13300470  0.98766444  1
  O  O253  1  0.24061622  0.62702045  0.49125556  1
  O  O254  1  0.23699964  0.61889027  0.99623598  1
  O  O255  1  0.77323452  0.12411404  0.49711404  1
  O  O256  1  0.74232273  0.13267695  0.99755642  1
  O  O257  1  0.73448858  0.62012546  0.50375326  1
  O  O258  1  0.74402543  0.63075874  0.99450786  1
  O  O259  1  0.24772038  0.35976232  -0.00223442  1
  O  O260  1  0.25956655  0.36414164  0.49585851  1
  O  O261  1  0.25118273  0.87734586  0.00984856  1
  O  O262  1  0.25912297  0.88287909  0.50700041  1
  O  O263  1  0.74516616  0.36747976  0.00889322  1
  O  O264  1  0.75690046  0.38436037  0.51343248  1
  O  O265  1  0.74964990  0.86709790  0.01040012  1
  O  O266  1  0.75855655  0.87931247  0.50900360  1
  O  O267  1  0.12370212  0.49201519  0.24769835  1
  O  O268  1  0.12392891  0.48557648  0.74596330  1
  O  O269  1  0.13509892  0.99890841  0.23841474  1
  O  O270  1  0.13028132  0.99545610  0.74122264  1
  O  O271  1  0.63721344  0.50929924  0.24272124  1
  O  O272  1  0.62786895  0.49796946  0.74305102  1
  O  O273  1  0.61766408  0.99080946  0.23401303  1
  O  O274  1  0.63629414  0.98651331  0.75801640  1
  O  O275  1  0.36995785  0.00741894  0.25425149  1
  O  O276  1  0.36988455  0.00683716  0.75482662  1
  O  O277  1  0.37440294  0.51773017  0.25542198  1
  O  O278  1  0.37580693  0.51159673  0.75413337  1
  O  O279  1  0.87898229  0.00988984  0.25391561  1
  O  O280  1  0.86068845  -0.00745980  0.75639518  1
  O  O281  1  0.87148416  0.50442992  0.25750354  1
  O  O282  1  0.87169679  0.50408630  0.75610595  1
  O  O283  1  0.12676672  0.36222275  0.37167289  1
  O  O284  1  0.12386377  0.36834013  0.86497980  1
  O  O285  1  0.12044767  0.86980941  0.37382196  1
  O  O286  1  0.11817944  0.87495319  0.86604336  1
  O  O287  1  0.60875974  0.37636032  0.38133396  1
  O  O288  1  0.61514161  0.37834379  0.86653519  1
  O  O289  1  0.61928672  0.87910406  0.36515292  1
  O  O290  1  0.62457913  0.86512608  0.86964827  1
  O  O291  1  0.38553164  0.11957554  0.13244090  1
  O  O292  1  0.37743319  0.13061608  0.63885083  1
  O  O293  1  0.38225979  0.62820584  0.13399043  1
  O  O294  1  0.37375732  0.63164323  0.62798499  1
  O  O295  1  0.88464344  0.12360742  0.13219830  1
  O  O296  1  0.88611894  0.13030407  0.62800642  1
  O  O297  1  0.88155655  0.62857039  0.13006222  1
  O  O298  1  0.87019630  0.62346385  0.63855733  1
  O  O299  1  0.24632612  0.24688435  0.10945928  1
  O  O300  1  0.25999028  0.24396121  0.62126975  1
  O  O301  1  0.26256209  0.75576958  0.12863587  1
  O  O302  1  0.26013863  0.75738025  0.62801490  1
  O  O303  1  0.75079822  0.26181850  0.11822587  1
  O  O304  1  0.75680373  0.25753440  0.62964772  1
  O  O305  1  0.75768463  0.75621116  0.12089310  1
  O  O306  1  0.75637970  0.76110035  0.62957558  1
  O  O307  1  0.24216830  0.24426983  0.38551105  1
  O  O308  1  0.24548392  0.24307221  0.88282546  1
  O  O309  1  0.24025817  0.74556926  0.37411267  1
  O  O310  1  0.24879222  0.73483115  0.87484720  1
  O  O311  1  0.74830137  0.23583415  0.37256278  1
  O  O312  1  0.74629631  0.24928479  0.88077506  1
  O  O313  1  0.74474593  0.74273224  0.36906688  1
  O  O314  1  0.74057883  0.74474659  0.87894587  1
  O  O315  1  -0.00453453  0.12293196  0.01622440  1
  O  O316  1  -0.01485831  0.11312313  0.50593818  1
  O  O317  1  0.00937797  0.61470767  0.00296608  1
  O  O318  1  0.01331740  0.62364423  0.49735790  1
  O  O319  1  0.50637544  0.12014341  0.00560939  1
  O  O320  1  0.48876440  0.11625880  0.51221207  1
  O  O321  1  0.51170037  0.62751716  0.01173225  1
  O  O322  1  0.50400900  0.61987831  0.50462784  1
  O  O323  1  0.48849919  0.38518760  0.49623157  1
  O  O324  1  0.50786197  0.37290075  0.98813210  1
  O  O325  1  0.49348838  0.88369234  0.49429412  1
  O  O326  1  0.50525396  0.88751868  0.99892749  1
  O  O327  1  0.98599253  0.37881291  0.50709711  1
  O  O328  1  1.00730006  0.38865640  1.00032550  1
  O  O329  1  0.99514384  0.88391259  0.48749573  1
  O  O330  1  1.00188805  0.87664658  0.98508637  1
  O  O331  1  0.49987081  0.49613291  0.38692879  1
  O  O332  1  0.48723398  0.49198578  0.86838751  1
  O  O333  1  0.49390370  0.99116121  0.38051870  1
  O  O334  1  0.49155857  0.99958457  0.88209942  1
  O  O335  1  0.98931913  0.50160669  0.37754828  1
  O  O336  1  0.99270593  0.49812052  0.88301155  1
  O  O337  1  0.99666780  0.99511207  0.37814431  1
  O  O338  1  0.99308725  0.99375754  0.87186383  1
  O  O339  1  0.01016651  0.00778119  0.12208042  1
  O  O340  1  0.00390705  0.00590574  0.61915385  1
  O  O341  1  0.00954897  0.50633300  0.11995662  1
  O  O342  1  0.01742565  0.49667331  0.62805594  1
  O  O343  1  0.50515919  0.00799904  0.11701494  1
  O  O344  1  0.49560116  0.01204960  0.61724463  1
  O  O345  1  0.51088221  0.51324774  0.13538223  1
  O  O346  1  0.50271959  0.50689369  0.61621964  1
  O  O347  1  0.24027636  0.37664407  0.25356367  1
  O  O348  1  0.23838996  0.36797688  0.75266209  1
  O  O349  1  0.25320503  0.88732295  0.24107677  1
  O  O350  1  0.24457569  0.88180018  0.74230491  1
  O  O351  1  0.75488637  0.38747814  0.24233685  1
  O  O352  1  0.74062776  0.37999660  0.74126880  1
  O  O353  1  0.74348176  0.87473170  0.23567416  1
  O  O354  1  0.74225178  0.87774891  0.74411025  1
  O  O355  1  0.25766579  0.11511508  0.24686181  1
  O  O356  1  0.25724093  0.12049632  0.75810413  1
  O  O357  1  0.25556125  0.62399328  0.26755171  1
  O  O358  1  0.25692725  0.62530878  0.75867968  1
  O  O359  1  0.76302237  0.12197285  0.23969163  1
  O  O360  1  0.74328078  0.10498250  0.74884602  1
  O  O361  1  0.76419429  0.61440900  0.24596122  1
  O  O362  1  0.75527897  0.61789680  0.75625883  1
  O  O363  1  0.37442843  0.11840849  0.36581649  1
  O  O364  1  0.36976652  0.11700448  0.86403588  1
  O  O365  1  0.36081500  0.63575079  0.37569522  1
  O  O366  1  0.37076391  0.61969563  0.86496435  1
  O  O367  1  0.87853116  0.11333030  0.35630249  1
  O  O368  1  0.87420979  0.11213288  0.87387063  1
  O  O369  1  0.87637594  0.61756815  0.36675126  1
  O  O370  1  0.86906880  0.61542137  0.86566849  1
  O  O371  1  0.13507469  0.38327614  0.13477877  1
  O  O372  1  0.12498890  0.37962716  0.63941085  1
  O  O373  1  0.13482322  0.88081377  0.12516675  1
  O  O374  1  0.12703656  0.88648440  0.62793940  1
  O  O375  1  0.63237181  0.38897958  0.12319897  1
  O  O376  1  0.62777577  0.38176595  0.63117734  1
  O  O377  1  0.63058678  0.88160932  0.12827420  1
  O  O378  1  0.63167654  0.86830557  0.63555980  1
  O  O379  1  0.12380560  0.25564812  0.26485944  1
  O  O380  1  0.12083052  0.25872679  0.75687449  1
  O  O381  1  0.12481773  0.75225488  0.25969021  1
  O  O382  1  0.11863926  0.75647483  0.75180229  1
  O  O383  1  0.61254005  0.24852320  0.24951914  1
  O  O384  1  0.60766643  0.25748850  0.75342854  1
  O  O385  1  0.62083547  0.76487597  0.24633978  1
  O  O386  1  0.62323541  0.75604598  0.75949155  1
  O  O387  1  0.37826527  0.23976204  0.25468613  1
  O  O388  1  0.38100775  0.24467566  0.74699551  1
  O  O389  1  0.37714907  0.73898350  0.24205084  1
  O  O390  1  0.37608382  0.74068420  0.74165697  1
  O  O391  1  0.87709246  0.23769735  0.24455173  1
  O  O392  1  0.88354814  0.25431526  0.74055883  1
  O  O393  1  0.87896920  0.74081021  0.24147379  1
  O  O394  1  0.88257587  0.73899758  0.75046143  1
  O  O395  1  0.38015348  0.49237915  0.50712721  1
  O  O396  1  0.38300696  0.51721778  0.98133693  1
  O  O397  1  0.38067138  0.99065231  0.49338107  1
  O  O398  1  0.38437584  1.00662533  0.98938874  1
  O  O399  1  0.87768907  0.49391908  0.49362135  1
  O  O400  1  0.88524140  0.50699265  0.99073608  1
  O  O401  1  0.88388858  0.98640763  0.48870088  1
  O  O402  1  0.87768472  0.99565411  0.98765927  1
  O  O403  1  0.12542773  0.00050266  0.01141415  1
  O  O404  1  0.11406296  -0.00159349  0.50729951  1
  O  O405  1  0.12076631  0.50716893  0.00825150  1
  O  O406  1  0.12207137  0.50656190  0.51208656  1
  O  O407  1  0.61856663  0.00639982  0.00659291  1
  O  O408  1  0.61193709  -0.00335364  0.50026465  1
  O  O409  1  0.63211356  0.51249110  0.01116340  1
  O  O410  1  0.61511686  0.50939463  0.50669720  1
  O  O411  1  0.35769188  0.41775437  0.11766453  1
  O  O412  1  0.37856664  0.36470945  0.61566021  1
  O  O413  1  0.37163360  0.85855014  0.12735058  1
  O  O414  1  0.37039257  0.87053987  0.61899025  1
  O  O415  1  0.86522790  0.37787561  0.12609040  1
  O  O416  1  0.86506795  0.36981919  0.62254477  1
  O  O417  1  0.86934520  0.87132095  0.12286353  1
  O  O418  1  0.86836183  0.87274384  0.61378041  1
  O  O419  1  0.12552877  0.13778797  0.37204783  1
  O  O420  1  0.13564467  0.13445253  0.86776515  1
  O  O421  1  0.13409325  0.63278639  0.38327096  1
  O  O422  1  0.13299471  0.62125956  0.88521338  1
  O  O423  1  0.61985576  0.12652677  0.37719238  1
  O  O424  1  0.62492837  0.12573115  0.88691733  1
  O  O425  1  0.62356420  0.62631915  0.39140817  1
  O  O426  1  0.62831702  0.62861798  0.88276842  1
