# generated using pymatgen
data_V85Zn86O256
_symmetry_space_group_name_H-M   'P 1'
_cell_length_a   16.93325458
_cell_length_b   16.93859984
_cell_length_c   16.93166694
_cell_angle_alpha   89.99544690
_cell_angle_beta   89.94885913
_cell_angle_gamma   90.03546936
_symmetry_Int_Tables_number   1
_chemical_formula_structural   V85Zn86O256
_chemical_formula_sum   'V85 Zn86 O256'
_cell_volume   4856.43304445
_cell_formula_units_Z   1
loop_
 _symmetry_equiv_pos_site_id
 _symmetry_equiv_pos_as_xyz
  1  'x, y, z'
loop_
 _atom_site_type_symbol
 _atom_site_label
 _atom_site_symmetry_multiplicity
 _atom_site_fract_x
 _atom_site_fract_y
 _atom_site_fract_z
 _atom_site_occupancy
  V  V0  1  0.25557448  0.51540554  0.24505684  1
  V  V1  1  0.63207046  0.50081290  0.62741180  1
  V  V2  1  0.11528098  0.00064738  0.12224977  1
  V  V3  1  0.12604844  0.25259225  0.87393985  1
  V  V4  1  0.24890032  0.12709773  0.87445933  1
  V  V5  1  0.75187681  0.62504545  0.37878326  1
  V  V6  1  0.00030281  0.37392127  0.87976286  1
  V  V7  1  -0.00219841  0.25411338  0.74726439  1
  V  V8  1  0.87105165  0.75784697  0.12046901  1
  V  V9  1  0.12434584  0.25064694  0.37544800  1
  V  V10  1  0.00356841  0.51063648  0.50319888  1
  V  V11  1  0.12400314  0.51411050  0.62042708  1
  V  V12  1  0.25319095  0.12533662  0.36839957  1
  V  V13  1  0.12590159  0.62518277  0.00023278  1
  V  V14  1  0.62682170  0.49743320  0.12667124  1
  V  V15  1  0.62839951  0.62726061  0.49997261  1
  V  V16  1  0.87820855  0.74596965  0.61922214  1
  V  V17  1  0.49918102  0.25705516  0.74788499  1
  V  V18  1  0.37289886  0.25538889  0.61752040  1
  V  V19  1  0.76673847  0.36790824  0.12539281  1
  V  V20  1  0.62235582  0.87839688  0.75073368  1
  V  V21  1  0.62458033  0.36981807  0.24970097  1
  V  V22  1  0.62573097  0.24731032  0.38693858  1
  V  V23  1  0.50470029  0.00295917  0.50000689  1
  V  V24  1  0.37165423  0.37821397  0.01152389  1
  V  V25  1  0.63118020  0.75109571  0.37562867  1
  V  V26  1  0.12065216  0.87314311  0.25048447  1
  V  V27  1  0.37515162  0.75039023  0.62462318  1
  V  V28  1  0.74540252  0.12566926  0.39269103  1
  V  V29  1  0.24449592  0.87556012  0.62804833  1
  V  V30  1  0.00089449  0.37572539  0.37866682  1
  V  V31  1  0.63926215  0.87953674  0.24083857  1
  V  V32  1  0.87774730  0.49741947  0.87607172  1
  V  V33  1  0.49901974  0.38023779  0.87200958  1
  V  V34  1  0.86845567  0.00079570  0.36721648  1
  V  V35  1  0.13473751  0.37492418  0.24256600  1
  V  V36  1  0.50158758  0.12324925  0.62262957  1
  V  V37  1  0.37371817  0.87629206  0.50002255  1
  V  V38  1  0.68598554  0.33318573  0.68853280  1
  V  V39  1  0.00210835  0.63086102  0.12851531  1
  V  V40  1  0.75221746  0.62438414  0.87640599  1
  V  V41  1  0.74621713  0.12300138  0.87643753  1
  V  V42  1  0.86586453  0.13534188  0.24653873  1
  V  V43  1  0.75044654  0.86774939  0.62193688  1
  V  V44  1  0.87653804  0.12026152  0.75027725  1
  V  V45  1  0.11801706  0.12271004  0.00064490  1
  V  V46  1  0.75161906  0.49842505  0.25037335  1
  V  V47  1  0.62529750  0.74913213  0.87514520  1
  V  V48  1  0.25049024  0.37845186  0.61465440  1
  V  V49  1  0.12572150  0.12626868  0.49781178  1
  V  V50  1  0.88163408  0.62460125  0.74569281  1
  V  V51  1  0.50008451  0.23528222  0.24309487  1
  V  V52  1  0.86418228  0.37059119  0.50516054  1
  V  V53  1  0.12564734  0.76071739  0.87120746  1
  V  V54  1  0.49958756  0.87540380  0.88252700  1
  V  V55  1  0.87190056  0.87297052  0.49904001  1
  V  V56  1  0.25035027  0.49976362  0.74870783  1
  V  V57  1  0.75546537  -0.00661277  0.75452725  1
  V  V58  1  0.25342795  0.75182453  0.00178920  1
  V  V59  1  0.50031314  0.62350225  0.62482466  1
  V  V60  1  0.50202906  0.87418333  0.37501503  1
  V  V61  1  0.25151625  0.62621068  0.87349321  1
  V  V62  1  -0.00048498  0.12886937  0.62340697  1
  V  V63  1  0.49404241  0.74721636  0.25244708  1
  V  V64  1  0.37322936  0.12485910  0.74879452  1
  V  V65  1  0.00360828  0.75510438  0.74695507  1
  V  V66  1  0.24327433  0.73937145  0.49561911  1
  V  V67  1  0.37119929  0.23282364  0.12755793  1
  V  V68  1  -0.00061716  0.87164187  0.37154554  1
  V  V69  1  0.12388226  -0.00200285  0.62879293  1
  V  V70  1  0.48417954  0.37270640  0.37339562  1
  V  V71  1  0.37558401  0.00338580  0.36748227  1
  V  V72  1  -0.00250157  0.49881155  0.00282378  1
  V  V73  1  0.62809961  0.62438589  0.00306623  1
  V  V74  1  0.37639232  -0.00012473  0.88299205  1
  V  V75  1  0.12441846  0.74081540  0.37410545  1
  V  V76  1  0.76349751  0.24758971  0.00631128  1
  V  V77  1  -0.00666040  0.88595380  0.87934860  1
  V  V78  1  -0.00141165  0.00028250  0.49894010  1
  V  V79  1  0.49538660  0.62387951  0.12946087  1
  V  V80  1  0.87951552  0.62949792  0.25011666  1
  V  V81  1  0.25067086  0.87687879  0.12720448  1
  V  V82  1  0.36934651  0.51736599  0.37691528  1
  V  V83  1  0.62768080  0.26198394  0.87997723  1
  V  V84  1  0.62026018  0.00821068  0.11541612  1
  Zn  Zn85  1  0.62748169  -0.00054085  0.62093037  1
  Zn  Zn86  1  0.37402266  0.49885366  0.87620344  1
  Zn  Zn87  1  0.12453343  0.37795754  0.74636696  1
  Zn  Zn88  1  0.85513200  0.25138293  0.62262632  1
  Zn  Zn89  1  0.50128235  0.49960833  0.00061104  1
  Zn  Zn90  1  0.49523561  0.49559421  0.49978561  1
  Zn  Zn91  1  0.75026757  0.76332483  0.00474113  1
  Zn  Zn92  1  0.60726817  0.13204601  0.01188214  1
  Zn  Zn93  1  0.13066574  0.49652747  0.12214356  1
  Zn  Zn94  1  0.24608301  -0.00472564  0.75155075  1
  Zn  Zn95  1  0.37244001  0.74709043  0.13193274  1
  Zn  Zn96  1  0.25560150  0.25561133  0.49391469  1
  Zn  Zn97  1  0.75093817  0.49742563  0.74845952  1
  Zn  Zn98  1  0.50041492  0.74945981  0.74936312  1
  Zn  Zn99  1  -0.00612229  0.25390658  0.24554039  1
  Zn  Zn100  1  0.37748180  0.62490757  0.75121297  1
  Zn  Zn101  1  0.25225465  0.00388631  0.24692179  1
  Zn  Zn102  1  -0.01128084  0.12779806  0.12484952  1
  Zn  Zn103  1  0.87414632  0.90847810  -0.00111682  1
  Zn  Zn104  1  0.24562679  0.25698733  0.00741832  1
  Zn  Zn105  1  0.38055672  0.87899792  0.00745866  1
  Zn  Zn106  1  0.87577738  0.49956564  0.37711949  1
  Zn  Zn107  1  0.18508387  0.18879682  0.18743171  1
  Zn  Zn108  1  0.18722187  0.18954196  0.68647228  1
  Zn  Zn109  1  0.18341210  0.69005411  0.18878194  1
  Zn  Zn110  1  0.18778004  0.68929558  0.68788057  1
  Zn  Zn111  1  0.68904103  0.18045430  0.19133892  1
  Zn  Zn112  1  0.67839538  0.17142143  0.69859507  1
  Zn  Zn113  1  0.68820382  0.69006091  0.19061773  1
  Zn  Zn114  1  0.69194608  0.68765803  0.69042281  1
  Zn  Zn115  1  0.31071887  0.30843436  0.30375847  1
  Zn  Zn116  1  0.31375494  0.31570676  0.81031812  1
  Zn  Zn117  1  0.31122278  0.81296581  0.31365872  1
  Zn  Zn118  1  0.31397409  0.81356574  0.80991717  1
  Zn  Zn119  1  0.80884715  0.31117502  0.32172698  1
  Zn  Zn120  1  0.82189626  0.30789571  0.82114606  1
  Zn  Zn121  1  0.81558337  0.80703985  0.31064550  1
  Zn  Zn122  1  0.81524401  0.80979172  0.81606209  1
  Zn  Zn123  1  0.18870253  0.44271266  0.43400586  1
  Zn  Zn124  1  0.18766802  0.43736269  0.93790612  1
  Zn  Zn125  1  0.18765838  0.93624960  0.43956080  1
  Zn  Zn126  1  0.18742059  0.93909301  0.93928813  1
  Zn  Zn127  1  0.68292793  0.43939488  0.43564906  1
  Zn  Zn128  1  0.69346857  0.43518297  0.94330443  1
  Zn  Zn129  1  0.68878109  0.93713924  0.43686004  1
  Zn  Zn130  1  0.68922662  0.93825779  0.94319664  1
  Zn  Zn131  1  0.30384057  0.06262178  0.05934736  1
  Zn  Zn132  1  0.31273322  0.06374969  0.55698181  1
  Zn  Zn133  1  0.31358232  0.56115782  0.06359254  1
  Zn  Zn134  1  0.31408972  0.56194603  0.55928772  1
  Zn  Zn135  1  0.79298081  0.05130489  0.07391965  1
  Zn  Zn136  1  0.81423320  0.05779194  0.56593031  1
  Zn  Zn137  1  0.81423922  0.56217498  0.06431935  1
  Zn  Zn138  1  0.81574651  0.55985910  0.56071247  1
  Zn  Zn139  1  0.43714429  0.43823701  0.19128960  1
  Zn  Zn140  1  0.43612809  0.44036464  0.68601492  1
  Zn  Zn141  1  0.44159370  0.93389943  0.18952461  1
  Zn  Zn142  1  0.43626575  0.93825783  0.69199194  1
  Zn  Zn143  1  0.94245614  0.44178191  0.19235529  1
  Zn  Zn144  1  0.93671164  0.43702073  0.68406985  1
  Zn  Zn145  1  0.93620901  0.93978590  0.18959630  1
  Zn  Zn146  1  0.94008005  0.93413937  0.69016631  1
  Zn  Zn147  1  0.05817260  0.06125237  0.30867547  1
  Zn  Zn148  1  0.06358472  0.06471515  0.81037835  1
  Zn  Zn149  1  0.06329362  0.55802361  0.31128404  1
  Zn  Zn150  1  0.06504957  0.56670224  0.81091516  1
  Zn  Zn151  1  0.56767168  0.06021095  0.31429031  1
  Zn  Zn152  1  0.54548450  0.08203232  0.84526133  1
  Zn  Zn153  1  0.56085401  0.55956361  0.31233240  1
  Zn  Zn154  1  0.56548651  0.56008841  0.80913432  1
  Zn  Zn155  1  0.43918645  0.18619465  0.43547196  1
  Zn  Zn156  1  0.43607583  0.19487051  0.94116727  1
  Zn  Zn157  1  0.44015886  0.68887588  0.44140385  1
  Zn  Zn158  1  0.43872277  0.68802353  0.94018739  1
  Zn  Zn159  1  0.93474981  0.19040041  0.43568193  1
  Zn  Zn160  1  0.90896455  0.12041182  0.96234354  1
  Zn  Zn161  1  0.93942843  0.68909562  0.43659244  1
  Zn  Zn162  1  0.94038940  0.68863926  0.93751826  1
  Zn  Zn163  1  0.05347368  0.30597993  0.06193458  1
  Zn  Zn164  1  0.06467066  0.31873821  0.56158483  1
  Zn  Zn165  1  0.05921917  0.81357758  0.05900747  1
  Zn  Zn166  1  0.06131012  0.81148939  0.56038724  1
  Zn  Zn167  1  0.56050836  0.31314022  0.06344370  1
  Zn  Zn168  1  0.55191792  0.31329966  0.55622300  1
  Zn  Zn169  1  0.56413007  0.81038920  0.06472360  1
  Zn  Zn170  1  0.56380266  0.81132356  0.56067980  1
  O  O171  1  0.13005255  0.11652006  0.11663284  1
  O  O172  1  0.11976833  0.12102087  0.61718433  1
  O  O173  1  0.11785837  0.62370002  0.11948169  1
  O  O174  1  0.12944674  0.61365043  0.62464073  1
  O  O175  1  0.61934571  0.11580364  0.12681636  1
  O  O176  1  0.60619732  0.11809487  0.63099762  1
  O  O177  1  0.62187437  0.62115099  0.11865687  1
  O  O178  1  0.62214392  0.62211585  0.61870047  1
  O  O179  1  0.38263908  0.37547204  0.36737125  1
  O  O180  1  0.38344089  0.37458423  0.88451716  1
  O  O181  1  0.38115946  0.88072283  0.38132026  1
  O  O182  1  0.38047730  0.88250482  0.87474046  1
  O  O183  1  0.88412428  0.37645249  0.38330412  1
  O  O184  1  0.88481622  0.38906805  0.87340603  1
  O  O185  1  0.87905924  0.87930016  0.37775759  1
  O  O186  1  0.89049284  0.87444879  0.87244391  1
  O  O187  1  0.25815493  0.00615144  0.37618580  1
  O  O188  1  0.25447357  0.00772948  0.87112630  1
  O  O189  1  0.26252400  0.50030953  0.36600130  1
  O  O190  1  0.24878496  0.50899554  0.86670440  1
  O  O191  1  0.75609979  0.01221266  0.38162530  1
  O  O192  1  0.73962121  0.01036427  0.86225642  1
  O  O193  1  0.75158104  0.50745324  0.36788286  1
  O  O194  1  0.75998109  0.50779000  0.87703654  1
  O  O195  1  0.24979636  0.50239688  0.13932202  1
  O  O196  1  0.24608027  0.49663932  0.62870816  1
  O  O197  1  0.24114147  0.99196701  0.12705394  1
  O  O198  1  0.24256518  0.99319429  0.62175255  1
  O  O199  1  0.74634929  0.48992154  0.12985926  1
  O  O200  1  0.73743293  0.50274701  0.62365917  1
  O  O201  1  0.72167390  0.99662213  0.13854366  1
  O  O202  1  0.74948056  0.98818477  0.63576543  1
  O  O203  1  0.01164856  0.38037976  0.26363599  1
  O  O204  1  0.00089034  0.37041171  0.75768114  1
  O  O205  1  0.00678989  0.87881115  0.26028670  1
  O  O206  1  -0.00078046  0.86218157  0.75959505  1
  O  O207  1  0.50667410  0.36729475  0.25686927  1
  O  O208  1  0.49110518  0.36998806  0.75905928  1
  O  O209  1  0.50831216  0.86348963  0.25958293  1
  O  O210  1  0.50790964  0.87031520  0.75494652  1
  O  O211  1  0.50159892  0.13757991  0.25832745  1
  O  O212  1  0.48953796  0.13407487  0.74745050  1
  O  O213  1  0.51060968  0.63382456  0.24043590  1
  O  O214  1  0.50020404  0.62742483  0.73741601  1
  O  O215  1  0.97965802  0.12615838  0.25676624  1
  O  O216  1  0.99300755  0.13289249  0.74666363  1
  O  O217  1  0.99188121  0.61751973  0.24082671  1
  O  O218  1  0.98864545  0.63614061  0.75735977  1
  O  O219  1  0.37468285  0.25906575  0.01243575  1
  O  O220  1  0.37469595  0.24549236  0.51343762  1
  O  O221  1  0.36201453  0.75303292  0.00068989  1
  O  O222  1  0.36629349  0.75440051  0.50755055  1
  O  O223  1  0.86023427  0.23149749  -0.00229676  1
  O  O224  1  0.87815409  0.26474110  0.50415714  1
  O  O225  1  0.87328774  0.73926836  0.01616697  1
  O  O226  1  0.87997794  0.75444317  0.51211507  1
  O  O227  1  0.12623993  0.24791092  0.48784650  1
  O  O228  1  0.12785238  0.24784098  0.98753926  1
  O  O229  1  0.13626588  0.75429006  0.49260104  1
  O  O230  1  0.13538791  0.74641984  0.99297313  1
  O  O231  1  0.61510363  0.24986687  0.48593760  1
  O  O232  1  0.62900526  0.25002561  0.99186604  1
  O  O233  1  0.62239714  0.73605840  0.49226608  1
  O  O234  1  0.62977222  0.74153867  0.99436714  1
  O  O235  1  0.49254408  0.24980897  0.13588649  1
  O  O236  1  0.49209013  0.24467433  0.62890764  1
  O  O237  1  0.49945054  0.74257529  0.13486609  1
  O  O238  1  0.49133687  0.74310560  0.62335754  1
  O  O239  1  1.00421996  0.24038836  0.13395365  1
  O  O240  1  1.00693737  0.24747176  0.63694126  1
  O  O241  1  0.99298105  0.73675516  0.11981777  1
  O  O242  1  0.99229846  0.75504360  0.63385118  1
  O  O243  1  0.00843363  0.25824184  0.37140449  1
  O  O244  1  0.00712532  0.26079405  0.86295877  1
  O  O245  1  0.00773243  0.76410333  0.38242797  1
  O  O246  1  0.00836085  0.75602309  0.86932685  1
  O  O247  1  0.50115988  0.25692720  0.36454240  1
  O  O248  1  0.50875097  0.26422577  0.86783519  1
  O  O249  1  0.51143070  0.75096211  0.37131130  1
  O  O250  1  0.50616429  0.75505080  0.87112251  1
  O  O251  1  0.24138645  0.12824683  0.48936531  1
  O  O252  1  0.24080569  0.13132448  0.98716883  1
  O  O253  1  0.25215226  0.64101844  0.50153722  1
  O  O254  1  0.24629753  0.63104473  0.99451192  1
  O  O255  1  0.75366981  0.12378644  0.49247796  1
  O  O256  1  0.73632099  0.13404199  0.98987847  1
  O  O257  1  0.74533854  0.61967346  0.48679595  1
  O  O258  1  0.74039458  0.62322472  0.99499560  1
  O  O259  1  0.26651744  0.37429234  -0.00508723  1
  O  O260  1  0.24738242  0.37634085  0.51046831  1
  O  O261  1  0.24919242  0.86834855  0.01141949  1
  O  O262  1  0.25621379  0.86879352  0.50939106  1
  O  O263  1  0.75298767  0.35900745  0.01018603  1
  O  O264  1  0.76591252  0.38156783  0.49212867  1
  O  O265  1  0.76568553  0.87368239  -0.01162097  1
  O  O266  1  0.75722876  0.87877263  0.51112255  1
  O  O267  1  0.13829435  0.49125866  0.25159640  1
  O  O268  1  0.13470955  0.50228248  0.74243741  1
  O  O269  1  0.12783988  0.98939673  0.24468367  1
  O  O270  1  0.12729622  1.00696466  0.73301301  1
  O  O271  1  0.63150459  0.48979341  0.24723109  1
  O  O272  1  0.63106220  0.50062027  0.73724707  1
  O  O273  1  0.62188678  0.98000174  0.25622503  1
  O  O274  1  0.63340609  0.98462073  0.74587586  1
  O  O275  1  0.37382640  -0.00669536  0.26393835  1
  O  O276  1  0.36998132  0.01280889  0.75526515  1
  O  O277  1  0.36218650  0.49733844  0.25794390  1
  O  O278  1  0.36227985  0.50446438  0.75140656  1
  O  O279  1  0.87497928  0.00566331  0.26396616  1
  O  O280  1  0.86849121  0.00748110  0.74555171  1
  O  O281  1  0.86931811  0.51158168  0.25346090  1
  O  O282  1  0.87651499  0.50803208  0.75598104  1
  O  O283  1  0.12120211  0.36891061  0.36968729  1
  O  O284  1  0.11987168  0.36901932  0.87065544  1
  O  O285  1  0.11731285  0.87266232  0.36885221  1
  O  O286  1  0.11957058  0.86484784  0.87892950  1
  O  O287  1  0.61971347  0.36775137  0.36439871  1
  O  O288  1  0.61995998  0.36935122  0.88006747  1
  O  O289  1  0.62158577  0.86508937  0.37359025  1
  O  O290  1  0.61729716  0.87144219  0.86905235  1
  O  O291  1  0.37564670  0.13427227  0.11670941  1
  O  O292  1  0.37983054  0.12997403  0.63184655  1
  O  O293  1  0.39139623  0.62708640  0.11848479  1
  O  O294  1  0.38376808  0.63143679  0.62338266  1
  O  O295  1  0.86638737  0.12001498  0.14482722  1
  O  O296  1  0.87978157  0.13053150  0.63319032  1
  O  O297  1  0.88226883  0.62905293  0.13257984  1
  O  O298  1  0.86947837  0.63305016  0.63348248  1
  O  O299  1  0.26592184  0.24741924  0.12636368  1
  O  O300  1  0.25564150  0.25972564  0.62305287  1
  O  O301  1  0.25028582  0.75605574  0.11824579  1
  O  O302  1  0.25345404  0.75573963  0.61541818  1
  O  O303  1  0.74519773  0.25309527  0.11425784  1
  O  O304  1  0.73668592  0.25599125  0.63877436  1
  O  O305  1  0.76666447  0.74480693  0.12483589  1
  O  O306  1  0.76077578  0.76067208  0.63133241  1
  O  O307  1  0.24484590  0.24383278  0.37511651  1
  O  O308  1  0.24239765  0.24443416  0.87281621  1
  O  O309  1  0.24185512  0.75730892  0.38814961  1
  O  O310  1  0.24486738  0.74696231  0.87947292  1
  O  O311  1  0.73936845  0.23795976  0.37824747  1
  O  O312  1  0.74562382  0.25007913  0.88692384  1
  O  O313  1  0.73900845  0.74111588  0.37187894  1
  O  O314  1  0.74715219  0.73577368  0.87666037  1
  O  O315  1  0.01546589  0.13122774  0.00064637  1
  O  O316  1  0.00421336  0.12187330  0.50389235  1
  O  O317  1  0.00770004  0.61811834  0.00453324  1
  O  O318  1  -0.00568359  0.60917284  0.49832597  1
  O  O319  1  0.51410977  0.11928978  -0.04860252  1
  O  O320  1  0.49291558  0.11521468  0.51011835  1
  O  O321  1  0.51293367  0.62355332  0.00591006  1
  O  O322  1  0.50808460  0.62261760  0.51042212  1
  O  O323  1  0.50161436  0.37910616  0.47842078  1
  O  O324  1  0.48969092  0.37613035  0.99264750  1
  O  O325  1  0.49310450  0.87873963  0.49475192  1
  O  O326  1  0.49840353  0.86741025  0.98711221  1
  O  O327  1  0.99618821  0.38143613  0.49033338  1
  O  O328  1  1.00567949  0.38287257  0.98812410  1
  O  O329  1  0.99234500  0.88147970  0.49355571  1
  O  O330  1  0.99412085  0.87309241  0.98481808  1
  O  O331  1  0.48503816  0.49077553  0.36857614  1
  O  O332  1  0.49916710  0.49104596  0.87493628  1
  O  O333  1  0.49404310  0.99677354  0.38193267  1
  O  O334  1  0.48645212  0.98522293  0.86150056  1
  O  O335  1  1.00014784  0.49396418  0.38606777  1
  O  O336  1  0.99704861  0.49550853  0.87964003  1
  O  O337  1  0.99258053  0.99075519  0.38045853  1
  O  O338  1  1.00773959  0.98436798  0.86784127  1
  O  O339  1  0.01151782  0.00699233  0.13134273  1
  O  O340  1  0.00527023  0.00616538  0.62043272  1
  O  O341  1  0.00265463  0.50881527  0.11690296  1
  O  O342  1  0.00919331  0.49515569  0.61224446  1
  O  O343  1  0.52005323  -0.00964297  0.13383874  1
  O  O344  1  0.49578439  0.00619489  0.61791673  1
  O  O345  1  0.50839586  0.50680041  0.12762793  1
  O  O346  1  0.50800069  0.50722642  0.62195887  1
  O  O347  1  0.23754612  0.38234486  0.25354457  1
  O  O348  1  0.24854911  0.38526794  0.74128874  1
  O  O349  1  0.24315943  0.87569432  0.23970902  1
  O  O350  1  0.25318191  0.87564231  0.73330827  1
  O  O351  1  0.74325023  0.37546167  0.24643231  1
  O  O352  1  0.75453807  0.37744315  0.75269054  1
  O  O353  1  0.73716048  0.86879165  0.25565050  1
  O  O354  1  0.74685919  0.87808306  0.74734449  1
  O  O355  1  0.24384260  0.12253183  0.26400138  1
  O  O356  1  0.25483677  0.12543941  0.75853714  1
  O  O357  1  0.24695517  0.61424593  0.24955782  1
  O  O358  1  0.25181706  0.61994049  0.75766193  1
  O  O359  1  0.76093440  0.12745268  0.26583556  1
  O  O360  1  0.75906271  0.11254907  0.75126916  1
  O  O361  1  0.75536752  0.62047520  0.25998241  1
  O  O362  1  0.76240315  0.62284452  0.75967750  1
  O  O363  1  0.36557229  0.11611877  0.38042388  1
  O  O364  1  0.36562246  0.12159889  0.86802849  1
  O  O365  1  0.38105203  0.61550079  0.37332195  1
  O  O366  1  0.36342287  0.62485681  0.87530789  1
  O  O367  1  0.86425365  0.11887662  0.37456296  1
  O  O368  1  0.85816411  0.13125203  0.85944581  1
  O  O369  1  0.86832559  0.62717540  0.36868531  1
  O  O370  1  0.87099501  0.61720050  0.87033362  1
  O  O371  1  0.11939207  0.37621755  0.14049084  1
  O  O372  1  0.13453026  0.38507323  0.62727346  1
  O  O373  1  0.12704021  0.87968312  0.13066428  1
  O  O374  1  0.13223011  0.88529658  0.61694154  1
  O  O375  1  0.62973584  0.37621495  0.13651754  1
  O  O376  1  0.62132257  0.38304206  0.62025599  1
  O  O377  1  0.62596999  0.87236130  0.13760442  1
  O  O378  1  0.63353112  0.87180255  0.63150435  1
  O  O379  1  0.12712079  0.26162018  0.25975913  1
  O  O380  1  0.11845692  0.25082654  0.75936627  1
  O  O381  1  0.12957783  0.76477772  0.25841030  1
  O  O382  1  0.11684324  0.74506458  0.75889809  1
  O  O383  1  0.61472060  0.25328650  0.25447043  1
  O  O384  1  0.62242702  0.26656404  0.75022087  1
  O  O385  1  0.61883782  0.75720831  0.25809224  1
  O  O386  1  0.62717129  0.75988846  0.75708352  1
  O  O387  1  0.38514292  0.25083776  0.23557968  1
  O  O388  1  0.37626689  0.24080075  0.74101640  1
  O  O389  1  0.38913728  0.75218116  0.25353208  1
  O  O390  1  0.37428190  0.74692253  0.73525128  1
  O  O391  1  0.87360307  0.23882680  0.25872997  1
  O  O392  1  0.88283126  0.24381787  0.74477100  1
  O  O393  1  0.87468153  0.73773733  0.23873914  1
  O  O394  1  0.88252591  0.74344865  0.74219918  1
  O  O395  1  0.37580273  0.50246852  0.48240699  1
  O  O396  1  0.37872951  0.48963849  0.99873348  1
  O  O397  1  0.38304720  0.99411666  0.49194980  1
  O  O398  1  0.36889053  0.99857937  0.98679618  1
  O  O399  1  0.88724740  0.49007238  0.50015817  1
  O  O400  1  0.88928976  0.50727794  0.99199187  1
  O  O401  1  0.88059968  0.99370723  0.49177204  1
  O  O402  1  0.87371222  1.02255947  1.00493467  1
  O  O403  1  0.12986742  0.00940440  0.00956889  1
  O  O404  1  0.11815745  0.00611188  0.50666465  1
  O  O405  1  0.11649853  0.50509785  0.00077431  1
  O  O406  1  0.11322331  0.49786598  0.50454506  1
  O  O407  1  0.62346737  0.00379904  0.01075860  1
  O  O408  1  0.60904597  -0.00800376  0.50227204  1
  O  O409  1  0.62492379  0.50560183  0.00843998  1
  O  O410  1  0.62048946  0.51181139  0.50372301  1
  O  O411  1  0.38176960  0.37017139  0.11343477  1
  O  O412  1  0.36638051  0.36672280  0.62842992  1
  O  O413  1  0.36539610  0.87182978  0.12557896  1
  O  O414  1  0.37016485  0.86788730  0.61997786  1
  O  O415  1  0.86542383  0.37745856  0.13488613  1
  O  O416  1  0.87559435  0.37186869  0.61106726  1
  O  O417  1  0.88584371  0.86019944  0.12323019  1
  O  O418  1  0.86953716  0.86752292  0.62083827  1
  O  O419  1  0.12786415  0.13240464  0.37757359  1
  O  O420  1  0.13027159  0.13195702  0.87823789  1
  O  O421  1  0.11665459  0.64168197  0.36791201  1
  O  O422  1  0.13593060  0.63449509  0.87962303  1
  O  O423  1  0.63752862  0.13034861  0.37443462  1
  O  O424  1  0.64182004  0.14835775  0.84967251  1
  O  O425  1  0.63087204  0.62850254  0.38058818  1
  O  O426  1  0.63306755  0.62628034  0.88107501  1
