# generated using pymatgen
data_V85Zn86O256
_symmetry_space_group_name_H-M   'P 1'
_cell_length_a   16.94357594
_cell_length_b   16.95842188
_cell_length_c   16.96134069
_cell_angle_alpha   89.93047117
_cell_angle_beta   90.08112596
_cell_angle_gamma   90.01720176
_symmetry_Int_Tables_number   1
_chemical_formula_structural   V85Zn86O256
_chemical_formula_sum   'V85 Zn86 O256'
_cell_volume   4873.60033946
_cell_formula_units_Z   1
loop_
 _symmetry_equiv_pos_site_id
 _symmetry_equiv_pos_as_xyz
  1  'x, y, z'
loop_
 _atom_site_type_symbol
 _atom_site_label
 _atom_site_symmetry_multiplicity
 _atom_site_fract_x
 _atom_site_fract_y
 _atom_site_fract_z
 _atom_site_occupancy
  V  V0  1  0.87407333  0.37462280  0.49779815  1
  V  V1  1  0.73616909  0.37134781  0.12670739  1
  V  V2  1  0.00728001  0.62141223  0.12624182  1
  V  V3  1  0.50216219  0.74417133  0.74871582  1
  V  V4  1  0.61715401  0.12704707  0.49588451  1
  V  V5  1  0.62536052  0.87862221  0.75185486  1
  V  V6  1  0.12320789  0.37300117  0.23628012  1
  V  V7  1  0.47809400  0.24559276  0.24743374  1
  V  V8  1  0.11857730  0.36979642  0.75165399  1
  V  V9  1  0.87023203  0.86369914  -0.00119087  1
  V  V10  1  0.64256261  0.24375117  0.87698228  1
  V  V11  1  0.87857205  0.75349852  0.62852110  1
  V  V12  1  -0.00115043  0.87230416  0.37518534  1
  V  V13  1  0.75165389  -0.00030697  0.24776561  1
  V  V14  1  0.48732637  0.37671861  0.36861161  1
  V  V15  1  0.37607422  0.11470546  0.75198953  1
  V  V16  1  0.12499699  -0.00166543  0.12896470  1
  V  V17  1  0.37559783  0.87010587  0.00264156  1
  V  V18  1  0.62360742  0.25794755  0.36150069  1
  V  V19  1  0.87404302  0.62737710  0.23998170  1
  V  V20  1  0.24441868  0.24641981  0.50014077  1
  V  V21  1  0.61760315  0.00211121  0.62027339  1
  V  V22  1  0.75088390  0.88192212  0.62548749  1
  V  V23  1  0.61574623  0.50034418  0.13132467  1
  V  V24  1  0.25206291  0.37911540  0.63095304  1
  V  V25  1  0.49981001  0.25226734  0.75422979  1
  V  V26  1  0.74523151  0.49343899  0.25164946  1
  V  V27  1  0.01049243  0.87406610  0.87451160  1
  V  V28  1  0.25441100  0.12074477  0.87799137  1
  V  V29  1  0.38124012  0.00928692  0.37674709  1
  V  V30  1  0.63538441  0.12782343  -0.00370216  1
  V  V31  1  0.75062464  0.38102612  0.62495672  1
  V  V32  1  0.49953578  0.12688570  0.62239440  1
  V  V33  1  0.62623062  0.00155893  0.12212479  1
  V  V34  1  0.49420869  0.87905518  0.87382133  1
  V  V35  1  0.00667781  0.49748770  0.00474639  1
  V  V36  1  0.86960373  0.25125583  0.12368609  1
  V  V37  1  0.13015469  0.12994276  0.00160825  1
  V  V38  1  0.49499692  0.00366785  -0.00542402  1
  V  V39  1  0.72372917  0.71745750  0.52812726  1
  V  V40  1  0.38224852  0.62074515  0.25623080  1
  V  V41  1  0.62431709  0.37839784  0.74981675  1
  V  V42  1  0.38021584  0.74084137  0.62360782  1
  V  V43  1  -0.00250578  0.00049198  0.00165804  1
  V  V44  1  0.87567815  0.24164104  0.63147548  1
  V  V45  1  0.24356077  0.50044244  0.23166918  1
  V  V46  1  0.87143980  0.01239590  0.87434014  1
  V  V47  1  0.88061365  0.12948550  0.25044502  1
  V  V48  1  0.63199163  0.62826943  0.00571689  1
  V  V49  1  0.75220906  0.01710601  0.75297083  1
  V  V50  1  0.25364063  0.00447526  0.25279815  1
  V  V51  1  -0.00424128  0.75066757  0.24399072  1
  V  V52  1  0.01739042  0.75482224  0.75374373  1
  V  V53  1  0.86298930  0.37336680  0.00210642  1
  V  V54  1  0.00202994  0.36405872  0.37190758  1
  V  V55  1  0.00246217  0.13354346  0.12824473  1
  V  V56  1  0.74503870  0.25247506  0.49812518  1
  V  V57  1  0.87062151  0.49995051  0.87949920  1
  V  V58  1  0.37467197  0.25230369  0.62482690  1
  V  V59  1  0.75367895  0.86218330  0.12193397  1
  V  V60  1  0.12612118  0.25054550  0.87554344  1
  V  V61  1  0.74810908  0.12642393  0.37262698  1
  V  V62  1  0.38124993  0.87864953  0.49923962  1
  V  V63  1  0.75292352  0.62996192  0.37454736  1
  V  V64  1  0.74940976  0.50295205  0.75108854  1
  V  V65  1  0.00177315  0.62492221  0.62826973  1
  V  V66  1  0.62513819  0.75258822  0.37495329  1
  V  V67  1  0.25091922  0.75112935  0.49983257  1
  V  V68  1  0.00255544  -0.00091143  0.50216266  1
  V  V69  1  0.87535951  -0.00055794  0.37453686  1
  V  V70  1  0.12693648  0.49938796  0.63356674  1
  V  V71  1  0.12441770  0.62346316  0.50318080  1
  V  V72  1  0.63390913  0.75481134  0.88427376  1
  V  V73  1  0.87855817  0.50023108  0.37342961  1
  V  V74  1  0.12502372  0.74737147  0.37401069  1
  V  V75  1  0.32067341  0.30559605  0.06490248  1
  V  V76  1  0.23785063  0.62102567  0.87827250  1
  V  V77  1  0.24263373  -0.00536589  0.75417136  1
  V  V78  1  0.49036086  0.12472815  0.12686687  1
  V  V79  1  0.62229186  0.87716049  0.24793436  1
  V  V80  1  0.87780812  0.62716005  0.75398737  1
  V  V81  1  0.25239626  0.60999366  0.37754320  1
  V  V82  1  0.87125174  0.87199813  0.50136726  1
  V  V83  1  0.24644539  0.87424488  0.62996645  1
  V  V84  1  0.37656889  0.61369654  0.75976084  1
  Zn  Zn85  1  0.24800766  0.12840880  0.37207014  1
  Zn  Zn86  1  0.58875390  0.57459078  0.56174992  1
  Zn  Zn87  1  0.12606829  0.87458440  0.25073245  1
  Zn  Zn88  1  0.47973642  0.50706899  -0.01702302  1
  Zn  Zn89  1  0.47654390  0.38380755  0.87502233  1
  Zn  Zn90  1  0.49474892  0.75101687  0.25304354  1
  Zn  Zn91  1  0.50061261  0.87899958  0.37853049  1
  Zn  Zn92  1  0.75675184  0.63558837  0.88477049  1
  Zn  Zn93  1  0.37268576  0.74926841  0.12913076  1
  Zn  Zn94  1  0.00151667  0.11944954  0.63155569  1
  Zn  Zn95  1  0.12371098  0.24774160  0.36986545  1
  Zn  Zn96  1  -0.00734495  0.23474124  0.75901990  1
  Zn  Zn97  1  0.36771548  0.37785361  0.49163739  1
  Zn  Zn98  1  0.48373080  0.50731606  0.49242457  1
  Zn  Zn99  1  0.12263310  0.62810227  0.00094537  1
  Zn  Zn100  1  0.12334602  -0.00131389  0.62915092  1
  Zn  Zn101  1  0.12139676  0.12627229  0.50023582  1
  Zn  Zn102  1  0.23343572  0.75502406  -0.00538408  1
  Zn  Zn103  1  0.49656823  0.62844162  0.12141483  1
  Zn  Zn104  1  0.25188378  0.87256819  0.12680292  1
  Zn  Zn105  1  0.00053873  0.49829753  0.50206821  1
  Zn  Zn106  1  -0.00177990  0.37221300  0.87771566  1
  Zn  Zn107  1  0.19476551  0.19128961  0.18658546  1
  Zn  Zn108  1  0.18415642  0.18297686  0.68642318  1
  Zn  Zn109  1  0.19142821  0.69035892  0.18654759  1
  Zn  Zn110  1  0.19700207  0.68378285  0.69188844  1
  Zn  Zn111  1  0.68625274  0.18531580  0.18153998  1
  Zn  Zn112  1  0.68617476  0.19311196  0.68352958  1
  Zn  Zn113  1  0.68439706  0.68658142  0.19121265  1
  Zn  Zn114  1  0.69020693  0.69030413  0.69998496  1
  Zn  Zn115  1  0.30318308  0.31381242  0.30451643  1
  Zn  Zn116  1  0.30579433  0.30419214  0.80900128  1
  Zn  Zn117  1  0.31087756  0.81422889  0.31223758  1
  Zn  Zn118  1  0.31295146  0.80626762  0.81464285  1
  Zn  Zn119  1  0.81372933  0.31142398  0.30868454  1
  Zn  Zn120  1  0.81095630  0.31403010  0.81378980  1
  Zn  Zn121  1  0.81005950  0.81099974  0.31252004  1
  Zn  Zn122  1  0.81675701  0.82160267  0.81140353  1
  Zn  Zn123  1  0.18251906  0.43235048  0.44422261  1
  Zn  Zn124  1  0.30763645  0.43900487  0.93620927  1
  Zn  Zn125  1  0.19048355  0.93571317  0.43620027  1
  Zn  Zn126  1  0.19045315  0.94309946  0.94152835  1
  Zn  Zn127  1  0.68108414  0.43834727  0.43794841  1
  Zn  Zn128  1  0.62393459  0.43433912  0.94093854  1
  Zn  Zn129  1  0.68695799  0.93926633  0.43899396  1
  Zn  Zn130  1  0.68847537  0.94112646  0.93745568  1
  Zn  Zn131  1  0.31195668  0.05856563  0.06203442  1
  Zn  Zn132  1  0.31165668  0.06139415  0.56296616  1
  Zn  Zn133  1  0.31187976  0.57049275  0.06343157  1
  Zn  Zn134  1  0.31436907  0.56088412  0.56417466  1
  Zn  Zn135  1  0.81423655  0.05847337  0.06240631  1
  Zn  Zn136  1  0.80891325  0.06275581  0.55814252  1
  Zn  Zn137  1  0.80723867  0.56010597  0.06318342  1
  Zn  Zn138  1  0.81729704  0.55986297  0.56578734  1
  Zn  Zn139  1  0.42928019  0.43674066  0.19148691  1
  Zn  Zn140  1  0.45153116  0.44578411  0.66979832  1
  Zn  Zn141  1  0.43695951  0.94160699  0.18771530  1
  Zn  Zn142  1  0.43555053  0.93363393  0.68573234  1
  Zn  Zn143  1  0.93801727  0.43568363  0.18775761  1
  Zn  Zn144  1  0.93768153  0.43491227  0.68900285  1
  Zn  Zn145  1  0.93755501  0.93713735  0.18489285  1
  Zn  Zn146  1  0.93859886  0.94190087  0.69482980  1
  Zn  Zn147  1  0.06466784  0.06402574  0.31538891  1
  Zn  Zn148  1  0.06048019  0.06253499  0.81272120  1
  Zn  Zn149  1  0.06374989  0.55948938  0.31100203  1
  Zn  Zn150  1  0.06062687  0.55631741  0.81508859  1
  Zn  Zn151  1  0.55906733  0.06447568  0.31083901  1
  Zn  Zn152  1  0.56383376  0.06366659  0.81134780  1
  Zn  Zn153  1  0.57413738  0.55286902  0.34283026  1
  Zn  Zn154  1  0.56858583  0.56885201  0.81150884  1
  Zn  Zn155  1  0.43557674  0.19346096  0.43809411  1
  Zn  Zn156  1  0.43712845  0.18880070  0.93588157  1
  Zn  Zn157  1  0.44137981  0.68459631  0.43866861  1
  Zn  Zn158  1  0.44580045  0.68930736  0.93763891  1
  Zn  Zn159  1  0.93590643  0.18656221  0.44262508  1
  Zn  Zn160  1  0.93878853  0.18937762  0.94309190  1
  Zn  Zn161  1  0.93569005  0.68704443  0.44002453  1
  Zn  Zn162  1  0.94515163  0.68961745  0.93843629  1
  Zn  Zn163  1  0.06151803  0.31276896  0.05792760  1
  Zn  Zn164  1  0.06001745  0.31317726  0.56163226  1
  Zn  Zn165  1  0.06083658  0.81081400  0.06203246  1
  Zn  Zn166  1  0.06421493  0.81423549  0.56293577  1
  Zn  Zn167  1  0.51546362  0.30375763  0.05083185  1
  Zn  Zn168  1  0.55832811  0.33432845  0.56392939  1
  Zn  Zn169  1  0.55766457  0.81099709  0.06663137  1
  Zn  Zn170  1  0.55966303  0.81407139  0.56453579  1
  O  O171  1  0.11906812  0.11931631  0.12198193  1
  O  O172  1  0.12168880  0.11677417  0.61841971  1
  O  O173  1  0.10901666  0.62619766  0.13071480  1
  O  O174  1  0.12369814  0.61718096  0.62557030  1
  O  O175  1  0.61814385  0.11937976  0.11532961  1
  O  O176  1  0.61967479  0.12177664  0.61619232  1
  O  O177  1  0.62260655  0.61916282  0.12358711  1
  O  O178  1  0.66968063  0.64683916  0.59704631  1
  O  O179  1  0.38393740  0.36111423  0.37244124  1
  O  O180  1  0.36706751  0.37704180  0.86134809  1
  O  O181  1  0.37544528  0.88225320  0.38450691  1
  O  O182  1  0.39007291  0.87144402  0.87959596  1
  O  O183  1  0.87968442  0.38219788  0.37618924  1
  O  O184  1  0.87367562  0.38012613  0.88494726  1
  O  O185  1  0.87756509  0.87809201  0.38196167  1
  O  O186  1  0.87939414  0.88392581  0.88658342  1
  O  O187  1  0.25884732  0.00153315  0.36959518  1
  O  O188  1  0.25058148  0.00993728  0.86764975  1
  O  O189  1  0.24171921  0.50955313  0.38042029  1
  O  O190  1  0.25751781  0.52275674  0.87334269  1
  O  O191  1  0.75592586  0.00649989  0.36937559  1
  O  O192  1  0.75739152  -0.00214884  0.86455092  1
  O  O193  1  0.76085117  0.50498228  0.36877221  1
  O  O194  1  0.76325801  0.50356680  0.86637929  1
  O  O195  1  0.23835239  0.51010229  0.13481170  1
  O  O196  1  0.23933437  0.49027670  0.62555006  1
  O  O197  1  0.24114217  0.99754070  0.13227805  1
  O  O198  1  0.25201575  0.99086697  0.63471856  1
  O  O199  1  0.74478716  0.49260718  0.13651179  1
  O  O200  1  0.75584684  0.49045551  0.63319242  1
  O  O201  1  0.74477340  0.99313961  0.13174428  1
  O  O202  1  0.74257360  0.99765389  0.63022354  1
  O  O203  1  0.01312248  0.38249258  0.25845552  1
  O  O204  1  0.00817077  0.36747086  0.75112538  1
  O  O205  1  -0.00227552  0.86623099  0.25684043  1
  O  O206  1  -0.00215175  0.86988706  0.76551644  1
  O  O207  1  0.49334187  0.35515501  0.25583944  1
  O  O208  1  0.51185143  0.36900360  0.74702085  1
  O  O209  1  0.51457154  0.87934633  0.25177581  1
  O  O210  1  0.50557726  0.87069353  0.75684417  1
  O  O211  1  0.50275121  0.13501999  0.24086286  1
  O  O212  1  0.49477307  0.13176489  0.74336248  1
  O  O213  1  0.48473939  0.61842987  0.26570012  1
  O  O214  1  0.50044517  0.63818095  0.74820716  1
  O  O215  1  0.98793560  0.11871073  0.24388581  1
  O  O216  1  0.99608354  0.12194234  0.74520687  1
  O  O217  1  0.99241201  0.62906235  0.24617684  1
  O  O218  1  0.99571035  0.63449722  0.74776127  1
  O  O219  1  0.40468076  0.26412471  0.01287901  1
  O  O220  1  0.36810081  0.25218254  0.51329962  1
  O  O221  1  0.38501081  0.76458568  0.00111428  1
  O  O222  1  0.36952810  0.75745279  0.50690429  1
  O  O223  1  0.87797154  0.25732747  0.01437208  1
  O  O224  1  0.86453335  0.25734350  0.50482891  1
  O  O225  1  0.87537141  0.76506351  -0.00507908  1
  O  O226  1  0.86694346  0.75130265  0.51574671  1
  O  O227  1  0.13179844  0.24974228  0.49881684  1
  O  O228  1  0.12025893  0.23679183  0.99336914  1
  O  O229  1  0.12881564  0.74345478  0.49427126  1
  O  O230  1  0.11811924  0.74233382  0.99939964  1
  O  O231  1  0.62953924  0.24507080  0.49208483  1
  O  O232  1  0.61906444  0.24279711  0.98117347  1
  O  O233  1  0.63444047  0.76299690  0.49244377  1
  O  O234  1  0.62133155  0.74651067  0.99299921  1
  O  O235  1  0.50745537  0.23979666  0.14179727  1
  O  O236  1  0.49378651  0.25012773  0.63317901  1
  O  O237  1  0.49655706  0.74608007  0.13627787  1
  O  O238  1  0.49172530  0.75885839  0.63652847  1
  O  O239  1  0.99396642  0.23734410  0.12299698  1
  O  O240  1  0.98159929  0.25010414  0.62049902  1
  O  O241  1  0.99742214  0.74426596  0.13976742  1
  O  O242  1  0.99469840  0.74839635  0.63243898  1
  O  O243  1  -0.00488936  0.26142134  0.37589316  1
  O  O244  1  0.01013101  0.25031747  0.87677166  1
  O  O245  1  0.00784617  0.75073908  0.37017499  1
  O  O246  1  -0.00392405  0.76468461  0.86666313  1
  O  O247  1  0.50478544  0.24788923  0.36032215  1
  O  O248  1  0.50359101  0.25234273  0.85966684  1
  O  O249  1  0.51146971  0.75685139  0.37304309  1
  O  O250  1  0.51236767  0.75968923  0.86650944  1
  O  O251  1  0.24961548  0.13761759  0.50222193  1
  O  O252  1  0.24173913  0.11430622  0.99031465  1
  O  O253  1  0.24363467  0.63231792  0.49520370  1
  O  O254  1  0.24399244  0.62865966  0.98939050  1
  O  O255  1  0.73996955  0.13178196  0.49139948  1
  O  O256  1  0.73462529  0.11940094  1.00613718  1
  O  O257  1  0.76512538  0.62383603  0.48340821  1
  O  O258  1  0.73935638  0.63003014  1.00241964  1
  O  O259  1  0.25992773  0.35775282  0.00344732  1
  O  O260  1  0.24729549  0.36281190  0.51387564  1
  O  O261  1  0.26236290  0.87580676  -0.00093923  1
  O  O262  1  0.25850460  0.86855963  0.50691403  1
  O  O263  1  0.76073159  0.37901448  0.01223915  1
  O  O264  1  0.75051091  0.37358597  0.50556034  1
  O  O265  1  0.76155573  0.87996499  0.00692079  1
  O  O266  1  0.75442003  0.87852962  0.51461856  1
  O  O267  1  0.13498024  0.49063775  0.25458107  1
  O  O268  1  0.11760137  0.48831024  0.74050457  1
  O  O269  1  0.12856866  0.99764872  0.24348124  1
  O  O270  1  0.13956737  0.99858702  0.75135450  1
  O  O271  1  0.63957581  0.50827069  0.24961962  1
  O  O272  1  0.64127470  0.49295507  0.75128879  1
  O  O273  1  0.63161174  0.99556700  0.24542234  1
  O  O274  1  0.63196375  0.99655483  0.74214900  1
  O  O275  1  0.36825698  -0.00499578  0.26609385  1
  O  O276  1  0.37259050  0.01148441  0.74536623  1
  O  O277  1  0.35365287  0.50717725  0.24875287  1
  O  O278  1  0.39192483  0.51834193  0.73659041  1
  O  O279  1  0.87046029  0.00584342  0.25517640  1
  O  O280  1  0.86308486  -0.00415421  0.76111996  1
  O  O281  1  0.86730497  0.50699666  0.25643691  1
  O  O282  1  0.86972336  0.50386946  0.75684252  1
  O  O283  1  0.11391977  0.37261493  0.37151020  1
  O  O284  1  0.12252280  0.36161682  0.86460004  1
  O  O285  1  0.11665611  0.86418303  0.37588930  1
  O  O286  1  0.10847539  0.88293100  0.88467710  1
  O  O287  1  0.61205781  0.36214481  0.37390929  1
  O  O288  1  0.63998573  0.35847903  0.85751126  1
  O  O289  1  0.62792216  0.87014394  0.36732920  1
  O  O290  1  0.61847618  0.87218935  0.87153492  1
  O  O291  1  0.39125224  0.11511158  0.12068851  1
  O  O292  1  0.38167842  0.13053324  0.63017861  1
  O  O293  1  0.37829912  0.62721805  0.14065866  1
  O  O294  1  0.36567482  0.63887585  0.63493514  1
  O  O295  1  0.88033437  0.13024493  0.13083358  1
  O  O296  1  0.87033974  0.14023222  0.61777853  1
  O  O297  1  0.87756542  0.62203015  0.13731097  1
  O  O298  1  0.88070658  0.63399584  0.63273424  1
  O  O299  1  0.26269492  0.23442361  0.10936310  1
  O  O300  1  0.25759422  0.25380733  0.62222062  1
  O  O301  1  0.25286957  0.75519325  0.11787163  1
  O  O302  1  0.25857910  0.75613813  0.62119822  1
  O  O303  1  0.75664253  0.25908847  0.12921067  1
  O  O304  1  0.75941211  0.25738415  0.61823906  1
  O  O305  1  0.74890841  0.76364729  0.13343370  1
  O  O306  1  0.75816186  0.76277745  0.62798924  1
  O  O307  1  0.24973234  0.24954478  0.38616740  1
  O  O308  1  0.23538741  0.23172761  0.86696614  1
  O  O309  1  0.23638087  0.74616146  0.37934715  1
  O  O310  1  0.26233348  0.73056498  0.87954726  1
  O  O311  1  0.74204191  0.24715285  0.37768746  1
  O  O312  1  0.74136439  0.24136335  0.87036980  1
  O  O313  1  0.74689304  0.74290605  0.38468982  1
  O  O314  1  0.73763199  0.75635252  0.86613750  1
  O  O315  1  0.00755588  0.11894549  0.01014383  1
  O  O316  1  -0.00372695  0.11141844  0.50447454  1
  O  O317  1  -0.00724184  0.61708653  0.01197772  1
  O  O318  1  0.00612795  0.62528736  0.51015975  1
  O  O319  1  0.50710196  0.11835237  0.00367156  1
  O  O320  1  0.51073523  0.13255798  0.50459714  1
  O  O321  1  0.51463204  0.62111829  0.00252453  1
  O  O322  1  0.49577900  0.62339737  0.51190566  1
  O  O323  1  0.49271798  0.36293375  0.47596262  1
  O  O324  1  0.52311641  0.38999431  0.98609247  1
  O  O325  1  0.48563760  0.87514165  0.50099174  1
  O  O326  1  0.49862061  0.88402235  0.99272875  1
  O  O327  1  0.99184767  0.37759088  0.49005929  1
  O  O328  1  0.98758900  0.38317709  1.00181503  1
  O  O329  1  0.99061487  0.87702758  0.49487789  1
  O  O330  1  0.98837438  0.87972008  0.99369998  1
  O  O331  1  0.48775774  0.47734893  0.35897787  1
  O  O332  1  0.53099817  0.48966871  0.87868942  1
  O  O333  1  0.48617627  0.99903205  0.37331196  1
  O  O334  1  0.50675364  0.99188104  0.88220140  1
  O  O335  1  0.98799144  0.49572190  0.37532714  1
  O  O336  1  0.98598674  0.49658264  0.88240880  1
  O  O337  1  0.99264263  0.99255359  0.38085721  1
  O  O338  1  0.99237391  0.98978550  0.88040889  1
  O  O339  1  0.00517095  0.01043163  0.12213823  1
  O  O340  1  0.00081119  -0.00621486  0.61577305  1
  O  O341  1  -0.00996730  0.50902944  0.11619400  1
  O  O342  1  0.00474522  0.50793980  0.62559400  1
  O  O343  1  0.50869440  0.00573437  0.11814230  1
  O  O344  1  0.51234648  0.00498915  0.62998219  1
  O  O345  1  0.51248612  0.49957012  0.13876923  1
  O  O346  1  0.53262142  0.47376670  0.59875017  1
  O  O347  1  0.23612768  0.39072084  0.25277871  1
  O  O348  1  0.23283245  0.36426461  0.73581138  1
  O  O349  1  0.24507779  0.88722981  0.24864883  1
  O  O350  1  0.26274377  0.88344221  0.74354725  1
  O  O351  1  0.75478017  0.38448589  0.24214356  1
  O  O352  1  0.74918788  0.38388506  0.74237489  1
  O  O353  1  0.74345689  0.88110016  0.24461008  1
  O  O354  1  0.74456606  0.88357819  0.73882271  1
  O  O355  1  0.24431219  0.10926983  0.25178589  1
  O  O356  1  0.25804657  0.11475003  0.75448501  1
  O  O357  1  0.24858514  0.61409588  0.25991522  1
  O  O358  1  0.26890916  0.62817520  0.76121743  1
  O  O359  1  0.76001476  0.11944265  0.25303729  1
  O  O360  1  0.74558382  0.11550503  0.74333735  1
  O  O361  1  0.75806171  0.62110615  0.25931116  1
  O  O362  1  0.75925847  0.61762023  0.75546629  1
  O  O363  1  0.37267906  0.11177555  0.38276684  1
  O  O364  1  0.36673249  0.13168560  0.86510116  1
  O  O365  1  0.35913624  0.63227082  0.37084951  1
  O  O366  1  0.38861052  0.62363735  0.86086834  1
  O  O367  1  0.86999215  0.12219721  0.36716255  1
  O  O368  1  0.87905529  0.11143572  0.88477691  1
  O  O369  1  0.87269395  0.61801695  0.36667541  1
  O  O370  1  0.87578243  0.61975621  0.87139537  1
  O  O371  1  0.11577040  0.37436275  0.13767909  1
  O  O372  1  0.12700933  0.38125660  0.62994492  1
  O  O373  1  0.11899069  0.89020567  0.12593366  1
  O  O374  1  0.14221040  0.87590123  0.62069878  1
  O  O375  1  0.63495493  0.38334049  0.12428813  1
  O  O376  1  0.64243965  0.35914784  0.63945964  1
  O  O377  1  0.63223511  0.88120384  0.13096905  1
  O  O378  1  0.63133744  0.88494128  0.62817654  1
  O  O379  1  0.13464482  0.26760213  0.25133433  1
  O  O380  1  0.11897772  0.25216622  0.75643322  1
  O  O381  1  0.11581990  0.75036205  0.25897559  1
  O  O382  1  0.11585925  0.74887473  0.74292698  1
  O  O383  1  0.62643518  0.24277361  0.26137269  1
  O  O384  1  0.61847323  0.25202032  0.75740657  1
  O  O385  1  0.62664614  0.76246245  0.25848952  1
  O  O386  1  0.61895708  0.75922091  0.75577053  1
  O  O387  1  0.37996835  0.23977818  0.25297096  1
  O  O388  1  0.38073211  0.23870952  0.73943509  1
  O  O389  1  0.37321917  0.73830436  0.25321224  1
  O  O390  1  0.38641833  0.74423768  0.74292799  1
  O  O391  1  0.87326615  0.24019383  0.23851071  1
  O  O392  1  0.87357370  0.25596601  0.73457255  1
  O  O393  1  0.88378582  0.73905754  0.25984735  1
  O  O394  1  0.88052029  0.74933121  0.74129882  1
  O  O395  1  0.37239354  0.48915677  0.50527675  1
  O  O396  1  0.37336355  0.49649880  1.00952922  1
  O  O397  1  0.36805720  0.99173877  0.48787113  1
  O  O398  1  0.38936463  0.99026734  1.00128288  1
  O  O399  1  0.87661269  0.49262264  0.49085073  1
  O  O400  1  0.87543939  0.49326720  0.99426584  1
  O  O401  1  0.88110673  0.99335595  0.49434426  1
  O  O402  1  0.88098765  0.99384719  0.99408565  1
  O  O403  1  0.11869486  0.00988126  0.00946234  1
  O  O404  1  0.11000424  -0.00604367  0.49760899  1
  O  O405  1  0.10442277  0.50642582  -0.00426667  1
  O  O406  1  0.12120594  0.50561885  0.51377044  1
  O  O407  1  0.61634614  0.00674503  0.00290697  1
  O  O408  1  0.63012223  0.01249063  0.50884128  1
  O  O409  1  0.63602685  0.51357325  0.02059871  1
  O  O410  1  0.60618823  0.51791535  0.45653140  1
  O  O411  1  0.36264546  0.36552853  0.13565717  1
  O  O412  1  0.36612251  0.36668018  0.63157205  1
  O  O413  1  0.37550804  0.87596621  0.11605757  1
  O  O414  1  0.36726304  0.86780122  0.61778776  1
  O  O415  1  0.86827544  0.36688332  0.12290126  1
  O  O416  1  0.86633603  0.36873599  0.61836986  1
  O  O417  1  0.86811130  0.88059492  0.11008992  1
  O  O418  1  0.86911074  0.87097014  0.62375398  1
  O  O419  1  0.12697472  0.13017930  0.38129425  1
  O  O420  1  0.13043866  0.12610751  0.88498457  1
  O  O421  1  0.12833731  0.63065601  0.38182877  1
  O  O422  1  0.13480290  0.62296655  0.86964863  1
  O  O423  1  0.62822059  0.13000061  0.38075051  1
  O  O424  1  0.62142650  0.13604819  0.87965437  1
  O  O425  1  0.63928947  0.64549265  0.36566998  1
  O  O426  1  0.63188775  0.63854869  0.88480387  1
