# generated using pymatgen
data_V85Zn86O256
_symmetry_space_group_name_H-M   'P 1'
_cell_length_a   16.95743728
_cell_length_b   16.96224408
_cell_length_c   16.96952874
_cell_angle_alpha   90.01782321
_cell_angle_beta   89.95501614
_cell_angle_gamma   89.89068842
_symmetry_Int_Tables_number   1
_chemical_formula_structural   V85Zn86O256
_chemical_formula_sum   'V85 Zn86 O256'
_cell_volume   4881.03996836
_cell_formula_units_Z   1
loop_
 _symmetry_equiv_pos_site_id
 _symmetry_equiv_pos_as_xyz
  1  'x, y, z'
loop_
 _atom_site_type_symbol
 _atom_site_label
 _atom_site_symmetry_multiplicity
 _atom_site_fract_x
 _atom_site_fract_y
 _atom_site_fract_z
 _atom_site_occupancy
  V  V0  1  0.38052934  0.62686871  0.74281625  1
  V  V1  1  0.00161526  0.87946164  0.37059800  1
  V  V2  1  0.63620320  -0.01046223  0.62044377  1
  V  V3  1  0.87174293  0.49260511  0.88063894  1
  V  V4  1  0.25707734  0.12394836  0.37678586  1
  V  V5  1  0.74978172  0.74810441  0.00652536  1
  V  V6  1  0.12554432  0.87831880  0.75254845  1
  V  V7  1  0.62303378  0.62856310  0.49396003  1
  V  V8  1  0.36534407  0.51430314  0.38159405  1
  V  V9  1  -0.00425772  0.87364752  0.87833433  1
  V  V10  1  0.75169323  0.13186951  0.36788610  1
  V  V11  1  0.75134877  0.00468612  0.24923165  1
  V  V12  1  0.49359085  0.87690493  0.36949730  1
  V  V13  1  0.13021671  0.74690640  0.37291301  1
  V  V14  1  0.87840373  0.87654684  0.00563761  1
  V  V15  1  0.49258779  0.13589869  0.12764081  1
  V  V16  1  0.87753286  0.38999750  0.49409341  1
  V  V17  1  -0.00044991  0.37976359  0.36287390  1
  V  V18  1  0.62456227  0.48196504  0.13438907  1
  V  V19  1  0.25252335  0.87695658  0.63066663  1
  V  V20  1  0.74846067  0.25797205  0.49447221  1
  V  V21  1  0.37054256  0.25289305  0.62744685  1
  V  V22  1  0.62128771  0.00322471  0.12575052  1
  V  V23  1  0.62043551  0.25809984  0.35884046  1
  V  V24  1  0.74883913  0.38064332  0.62106631  1
  V  V25  1  0.12266270  0.24885864  0.36574057  1
  V  V26  1  0.49934886  0.12785113  0.62177643  1
  V  V27  1  0.00059177  0.24746602  0.74920462  1
  V  V28  1  0.50080659  0.50412817  0.00671951  1
  V  V29  1  0.62373943  0.62743157  0.01540604  1
  V  V30  1  0.12893341  0.00196112  0.12606556  1
  V  V31  1  0.12072749  0.47834862  0.12161689  1
  V  V32  1  0.12854826  -0.00156220  0.61933053  1
  V  V33  1  0.00162352  0.62191257  0.12346643  1
  V  V34  1  0.49422930  0.00523088  0.48990675  1
  V  V35  1  0.24947132  0.49450640  0.74704741  1
  V  V36  1  0.49382141  -0.00425171  -0.00572243  1
  V  V37  1  0.12638536  0.49631973  0.62245570  1
  V  V38  1  0.00599883  0.74532261  0.24937181  1
  V  V39  1  0.25278051  0.74614167  0.49911078  1
  V  V40  1  0.89277041  0.12905582  0.23803751  1
  V  V41  1  0.25504562  0.74451582  0.00638116  1
  V  V42  1  0.49907087  0.38272262  0.87663394  1
  V  V43  1  0.12663998  0.12360921  -0.00150167  1
  V  V44  1  0.49889845  0.37599903  0.36651343  1
  V  V45  1  0.25480155  0.11287751  0.87078010  1
  V  V46  1  0.25864667  0.25427427  0.00064018  1
  V  V47  1  0.63024807  0.24750891  0.87399137  1
  V  V48  1  0.37432295  0.11258135  0.75140427  1
  V  V49  1  0.86256428  0.12712311  0.75862905  1
  V  V50  1  0.62399475  0.37702854  0.74751248  1
  V  V51  1  0.12620020  0.62425923  0.49853293  1
  V  V52  1  0.37141844  0.37569793  0.50605370  1
  V  V53  1  0.37066036  0.88069120  0.49330212  1
  V  V54  1  0.12895187  0.37098807  0.74444951  1
  V  V55  1  0.75225412  0.87510946  0.13328804  1
  V  V56  1  0.00289559  0.00303919  0.00427634  1
  V  V57  1  0.88345472  0.00587026  0.37199480  1
  V  V58  1  0.25882300  0.86935215  0.12551535  1
  V  V59  1  0.87535877  0.62832891  0.75294405  1
  V  V60  1  -0.05180763  -0.05341535  0.54730343  1
  V  V61  1  0.87686672  0.74766030  0.13400242  1
  V  V62  1  0.24780102  0.62159263  0.87228681  1
  V  V63  1  0.75428139  0.48573661  0.24978464  1
  V  V64  1  0.26078793  -0.00025087  0.25459441  1
  V  V65  1  0.50113384  0.50230678  0.50504944  1
  V  V66  1  0.12265738  0.62155216  0.00109284  1
  V  V67  1  -0.00106087  0.12831392  0.61663135  1
  V  V68  1  -0.00696682  0.49420608  -0.00387554  1
  V  V69  1  0.27068200  0.51542680  0.22487415  1
  V  V70  1  -0.00433104  0.37041950  0.87512560  1
  V  V71  1  0.24399503  0.25284958  0.50505347  1
  V  V72  1  0.74558023  0.62226997  0.88092314  1
  V  V73  1  0.48532594  0.73776589  0.23750388  1
  V  V74  1  0.74971642  0.49844305  0.74977074  1
  V  V75  1  0.49737306  0.25115438  0.75183332  1
  V  V76  1  -0.00258883  0.62503484  0.62588170  1
  V  V77  1  0.62498596  0.51025146  0.62745471  1
  V  V78  1  0.62312172  0.13234673  0.49570498  1
  V  V79  1  0.75129326  0.26382974  0.00579258  1
  V  V80  1  0.87349237  0.25503714  0.62179150  1
  V  V81  1  0.62072992  0.87375079  0.25061768  1
  V  V82  1  0.63132889  0.12435250  -0.00401719  1
  V  V83  1  0.75697148  0.62539837  0.36922761  1
  V  V84  1  0.88244616  0.25888846  0.12116044  1
  Zn  Zn85  1  0.74559742  0.78175273  0.51750947  1
  Zn  Zn86  1  0.12196822  0.74930202  0.87598657  1
  Zn  Zn87  1  0.37930257  0.13358278  0.25662020  1
  Zn  Zn88  1  0.12125314  0.12149760  0.49570274  1
  Zn  Zn89  1  0.51189627  0.77923360  0.74284864  1
  Zn  Zn90  1  0.87245177  0.77045658  0.62466090  1
  Zn  Zn91  1  0.12924411  0.24657907  0.87230269  1
  Zn  Zn92  1  0.86494628  0.01407472  0.88338724  1
  Zn  Zn93  1  0.88021461  0.61430707  0.25400932  1
  Zn  Zn94  1  0.00087260  0.74770220  0.75377845  1
  Zn  Zn95  1  0.71707370  -0.04369313  0.77938953  1
  Zn  Zn96  1  0.38299455  0.86152235  -0.00361984  1
  Zn  Zn97  1  0.37308824  0.37958756  0.00498390  1
  Zn  Zn98  1  0.36731804  0.27506770  0.14686876  1
  Zn  Zn99  1  0.62295796  0.74999542  0.37388179  1
  Zn  Zn100  1  0.38397635  0.74446399  0.62047156  1
  Zn  Zn101  1  0.37454441  0.49779323  0.87445129  1
  Zn  Zn102  1  0.13789084  0.37067631  0.24493380  1
  Zn  Zn103  1  0.42919173  -0.06345003  0.83579807  1
  Zn  Zn104  1  0.13138921  0.87243709  0.24777393  1
  Zn  Zn105  1  -0.00191079  0.50411021  0.48870777  1
  Zn  Zn106  1  0.60296552  0.78859088  0.88002343  1
  Zn  Zn107  1  0.19407091  0.18490273  0.18562429  1
  Zn  Zn108  1  0.18845722  0.18253303  0.68760405  1
  Zn  Zn109  1  0.20703451  0.66998102  0.18699672  1
  Zn  Zn110  1  0.18787325  0.69086153  0.68647513  1
  Zn  Zn111  1  0.68902172  0.18979840  0.18197314  1
  Zn  Zn112  1  0.68509460  0.19051250  0.68207408  1
  Zn  Zn113  1  0.68703656  0.68728970  0.19628930  1
  Zn  Zn114  1  0.68573681  0.69492644  0.69013477  1
  Zn  Zn115  1  0.30886726  0.32562514  0.31341931  1
  Zn  Zn116  1  0.31261219  0.30875285  0.81825019  1
  Zn  Zn117  1  0.31272105  0.81014966  0.31261077  1
  Zn  Zn118  1  0.30865040  0.80508477  0.81443824  1
  Zn  Zn119  1  0.81932740  0.31090992  0.30809606  1
  Zn  Zn120  1  0.80982178  0.30908291  0.81335311  1
  Zn  Zn121  1  0.79596843  0.83144431  0.35075782  1
  Zn  Zn122  1  0.78400439  0.81759215  0.82604111  1
  Zn  Zn123  1  0.18538295  0.43246649  0.43795327  1
  Zn  Zn124  1  0.18267880  0.43360010  0.93272499  1
  Zn  Zn125  1  0.18561210  0.93743398  0.43693288  1
  Zn  Zn126  1  0.19531093  0.93198569  0.93624607  1
  Zn  Zn127  1  0.68651197  0.44276039  0.43233869  1
  Zn  Zn128  1  0.68090556  0.43942305  0.93913996  1
  Zn  Zn129  1  0.68418038  0.94598242  0.43507939  1
  Zn  Zn130  1  0.69661248  0.94336826  0.94669772  1
  Zn  Zn131  1  0.31190220  0.06335513  0.06255637  1
  Zn  Zn132  1  0.31035809  0.06376190  0.56285573  1
  Zn  Zn133  1  0.31035214  0.55509174  0.05945652  1
  Zn  Zn134  1  0.30831864  0.56091561  0.56249448  1
  Zn  Zn135  1  0.81087518  0.06573186  0.06229839  1
  Zn  Zn136  1  0.81017984  0.07524743  0.56139798  1
  Zn  Zn137  1  0.81038863  0.55719076  0.06994764  1
  Zn  Zn138  1  0.81169293  0.63219779  0.55928214  1
  Zn  Zn139  1  0.43816712  0.44483750  0.18721246  1
  Zn  Zn140  1  0.43840742  0.44054619  0.68674796  1
  Zn  Zn141  1  0.43565959  0.93899328  0.18236468  1
  Zn  Zn142  1  0.44734043  0.93414569  0.66850171  1
  Zn  Zn143  1  0.93828165  0.43372891  0.18701095  1
  Zn  Zn144  1  0.93709852  0.44087544  0.68684008  1
  Zn  Zn145  1  0.94348038  0.93799604  0.18985275  1
  Zn  Zn146  1  0.89702934  0.91773904  0.72488217  1
  Zn  Zn147  1  0.07013427  0.06314250  0.30961573  1
  Zn  Zn148  1  0.06089085  0.05887157  0.81266061  1
  Zn  Zn149  1  0.07939518  0.56160359  0.30773835  1
  Zn  Zn150  1  0.06187499  0.55862677  0.81232074  1
  Zn  Zn151  1  0.56127817  0.06586905  0.31038663  1
  Zn  Zn152  1  0.56695654  0.06308585  0.80766656  1
  Zn  Zn153  1  0.56029439  0.56017220  0.31275968  1
  Zn  Zn154  1  0.55989170  0.63888408  0.81887616  1
  Zn  Zn155  1  0.43440944  0.19571542  0.43369610  1
  Zn  Zn156  1  0.44037811  0.18442204  0.93672038  1
  Zn  Zn157  1  0.44269805  0.69248270  0.43596069  1
  Zn  Zn158  1  0.43433882  0.68252391  0.93602948  1
  Zn  Zn159  1  0.93701304  0.19533205  0.43323364  1
  Zn  Zn160  1  0.93950788  0.19006388  0.94237153  1
  Zn  Zn161  1  0.93734716  0.69174879  0.43763933  1
  Zn  Zn162  1  0.93342716  0.68773507  0.93971461  1
  Zn  Zn163  1  0.05860791  0.30215586  0.05352121  1
  Zn  Zn164  1  0.06039112  0.31452054  0.55784934  1
  Zn  Zn165  1  0.07038777  0.81265870  0.06407539  1
  Zn  Zn166  1  0.06546304  0.80470034  0.56744904  1
  Zn  Zn167  1  0.55983027  0.31254944  0.06069843  1
  Zn  Zn168  1  0.55982203  0.31595206  0.55948813  1
  Zn  Zn169  1  0.56160081  0.81206744  0.06646533  1
  Zn  Zn170  1  0.55868201  0.81078987  0.55914359  1
  O  O171  1  0.13517994  0.11079918  0.11347530  1
  O  O172  1  0.11574066  0.11494680  0.62629485  1
  O  O173  1  0.12066988  0.61136082  0.11304211  1
  O  O174  1  0.11820445  0.62073945  0.61772501  1
  O  O175  1  0.61572906  0.11979238  0.11928832  1
  O  O176  1  0.61844015  0.12904491  0.60845780  1
  O  O177  1  0.63021526  0.62428558  0.11669332  1
  O  O178  1  0.63182271  0.61293366  0.61453548  1
  O  O179  1  0.38349578  0.38317318  0.38921935  1
  O  O180  1  0.38495842  0.37762735  0.87853671  1
  O  O181  1  0.37861420  0.87566582  0.38453745  1
  O  O182  1  0.35295364  0.87635258  0.88740497  1
  O  O183  1  0.89098355  0.36664230  0.38059337  1
  O  O184  1  0.88283293  0.38054166  0.86759171  1
  O  O185  1  0.89563686  0.88659047  0.36256760  1
  O  O186  1  0.88274341  0.87546233  0.89080036  1
  O  O187  1  0.24193560  0.00969804  0.36651180  1
  O  O188  1  0.24960313  0.01377904  0.87721665  1
  O  O189  1  0.26702533  0.50172076  0.39636961  1
  O  O190  1  0.24687892  0.50647550  0.86676820  1
  O  O191  1  0.76102397  0.01369224  0.36631691  1
  O  O192  1  0.75244696  0.00971566  0.87446633  1
  O  O193  1  0.74209549  0.50894796  0.35703764  1
  O  O194  1  0.75633449  0.50124470  0.87326647  1
  O  O195  1  0.22591004  0.48681777  0.12133429  1
  O  O196  1  0.23482247  0.50222214  0.63171914  1
  O  O197  1  0.24702832  0.99243458  0.13022480  1
  O  O198  1  0.24215252  0.98838666  0.62256171  1
  O  O199  1  0.73615328  0.49989626  0.13729640  1
  O  O200  1  0.74131185  0.49247209  0.63037585  1
  O  O201  1  0.73952463  0.99689324  0.12996576  1
  O  O202  1  0.73474747  1.00737515  0.61073674  1
  O  O203  1  -0.00200491  0.36801135  0.26217712  1
  O  O204  1  0.00334722  0.36424393  0.75349282  1
  O  O205  1  0.00960390  0.86217274  0.25340411  1
  O  O206  1  -0.00142979  0.87293672  0.76575155  1
  O  O207  1  0.49489366  0.38427645  0.26838975  1
  O  O208  1  0.50411212  0.37118722  0.75671687  1
  O  O209  1  0.50269017  0.87658111  0.25437713  1
  O  O210  1  0.49572220  0.89024148  0.75771601  1
  O  O211  1  0.49799073  0.12013341  0.23246950  1
  O  O212  1  0.49368504  0.13268073  0.74434070  1
  O  O213  1  0.50367343  0.64028469  0.25357062  1
  O  O214  1  0.47748902  0.60333502  0.74911472  1
  O  O215  1  0.99096172  0.12399276  0.24747741  1
  O  O216  1  1.00008178  0.13754514  0.74171892  1
  O  O217  1  1.00225833  0.63221173  0.24569613  1
  O  O218  1  0.99458723  0.62343770  0.74547589  1
  O  O219  1  0.36380974  0.24995483  -0.00440538  1
  O  O220  1  0.36733562  0.25873117  0.50619074  1
  O  O221  1  0.35963401  0.74014311  0.00143719  1
  O  O222  1  0.36712408  0.75775782  0.49842774  1
  O  O223  1  0.85967677  0.24241817  0.00788945  1
  O  O224  1  0.86700305  0.25902263  0.50449485  1
  O  O225  1  0.87374509  0.75498781  0.01726747  1
  O  O226  1  0.86380014  0.73011438  0.51183304  1
  O  O227  1  0.13205257  0.24895247  0.49504563  1
  O  O228  1  0.13510243  0.23785038  0.99532365  1
  O  O229  1  0.13154463  0.74326764  0.49471277  1
  O  O230  1  0.13224088  0.73580210  1.00014408  1
  O  O231  1  0.62888067  0.24750409  0.49124246  1
  O  O232  1  0.63261944  0.24537579  0.99479276  1
  O  O233  1  0.63004063  0.74198056  0.49582159  1
  O  O234  1  0.63055688  0.74487453  0.99854434  1
  O  O235  1  0.49567775  0.23780883  0.11940572  1
  O  O236  1  0.49355130  0.24523955  0.62909091  1
  O  O237  1  0.49729320  0.75296470  0.13788210  1
  O  O238  1  0.49537350  0.75784969  0.63152851  1
  O  O239  1  0.98116970  0.24251887  0.11051347  1
  O  O240  1  0.99552578  0.24573323  0.63079344  1
  O  O241  1  0.99966383  0.74433674  0.13185049  1
  O  O242  1  0.99462238  0.73737619  0.62935667  1
  O  O243  1  0.01542201  0.26051644  0.38067872  1
  O  O244  1  0.00344578  0.25459237  0.86663020  1
  O  O245  1  0.00827102  0.75524596  0.36813968  1
  O  O246  1  0.00188540  0.75860593  0.87808855  1
  O  O247  1  0.50555650  0.26660328  0.37869907  1
  O  O248  1  0.50929214  0.26021082  0.87387255  1
  O  O249  1  0.50196815  0.76512928  0.36661301  1
  O  O250  1  0.50402773  0.73588235  0.86620027  1
  O  O251  1  0.24574122  0.13162842  0.49374499  1
  O  O252  1  0.24638084  0.12803892  0.98857214  1
  O  O253  1  0.24184546  0.63873178  0.50715165  1
  O  O254  1  0.24099826  0.62361900  0.99266617  1
  O  O255  1  0.74198815  0.13680515  0.48895554  1
  O  O256  1  0.73455796  0.13218608  1.00537961  1
  O  O257  1  0.73583922  0.60985719  0.47875278  1
  O  O258  1  0.74501095  0.62726055  1.00081955  1
  O  O259  1  0.24900659  0.35747886  -0.01129546  1
  O  O260  1  0.25812986  0.36500252  0.49917478  1
  O  O261  1  0.24501640  0.85902051  0.00953297  1
  O  O262  1  0.25462879  0.86774101  0.50368707  1
  O  O263  1  0.74516650  0.36222509  -0.00148023  1
  O  O264  1  0.75620912  0.37565545  0.50038536  1
  O  O265  1  0.75882869  0.86922590  0.01699764  1
  O  O266  1  0.76142981  0.87064180  0.45531446  1
  O  O267  1  0.10028429  0.48530213  0.22339246  1
  O  O268  1  0.13193410  0.49232347  0.74375536  1
  O  O269  1  0.13568321  0.99811962  0.23953457  1
  O  O270  1  0.11362602  0.98581328  0.73651182  1
  O  O271  1  0.62979771  0.50152119  0.23848064  1
  O  O272  1  0.63195618  0.49400236  0.73969507  1
  O  O273  1  0.62715618  0.99399231  0.24242066  1
  O  O274  1  0.62727552  1.00793039  0.72641955  1
  O  O275  1  0.36332763  0.00426895  0.24620468  1
  O  O276  1  0.38373518  0.01206441  0.74398727  1
  O  O277  1  0.37080738  0.50262184  0.27092750  1
  O  O278  1  0.35911415  0.50190349  0.74737018  1
  O  O279  1  0.87432359  0.01286654  0.25055555  1
  O  O280  1  0.88713151  0.02659606  0.75630501  1
  O  O281  1  0.85937128  0.49875972  0.24057767  1
  O  O282  1  0.86945862  0.50366125  0.76178849  1
  O  O283  1  0.11674190  0.36807140  0.37132672  1
  O  O284  1  0.11448270  0.37263183  0.85917772  1
  O  O285  1  0.11679234  0.86616310  0.37276845  1
  O  O286  1  0.11824048  0.87532574  0.86771182  1
  O  O287  1  0.60892639  0.37117627  0.38062104  1
  O  O288  1  0.61900530  0.36928385  0.86733399  1
  O  O289  1  0.61184958  0.87869673  0.36422468  1
  O  O290  1  0.67469174  0.86924283  0.86188908  1
  O  O291  1  0.38875160  0.12487877  0.12358194  1
  O  O292  1  0.38015211  0.13070487  0.63135359  1
  O  O293  1  0.31149211  0.59609295  0.16413718  1
  O  O294  1  0.36510594  0.62480383  0.63886622  1
  O  O295  1  0.87259364  0.12879644  0.13554658  1
  O  O296  1  0.88239178  0.13462961  0.63155392  1
  O  O297  1  0.88411973  0.63098598  0.12737587  1
  O  O298  1  0.88759389  0.60610813  0.63978519  1
  O  O299  1  0.25448682  0.24097898  0.10474732  1
  O  O300  1  0.25486017  0.24229039  0.61368650  1
  O  O301  1  0.24144346  0.75573044  0.11904656  1
  O  O302  1  0.25166429  0.76115861  0.61564666  1
  O  O303  1  0.75589688  0.24929005  0.11115949  1
  O  O304  1  0.75260187  0.26125468  0.61575760  1
  O  O305  1  0.75963183  0.75392643  0.12763805  1
  O  O306  1  0.76078793  0.72967911  0.61839473  1
  O  O307  1  0.24078959  0.24545071  0.38730426  1
  O  O308  1  0.24793498  0.23770760  0.88395395  1
  O  O309  1  0.23749849  0.75432028  0.38257389  1
  O  O310  1  0.24168935  0.73307495  0.88227739  1
  O  O311  1  0.74234135  0.25036305  0.37601304  1
  O  O312  1  0.73799944  0.25352620  0.88559033  1
  O  O313  1  0.74191051  0.73009925  0.36063566  1
  O  O314  1  0.76692436  0.73082234  0.89428478  1
  O  O315  1  0.01638948  0.11693860  -0.00813459  1
  O  O316  1  0.00038846  0.13558968  0.51289441  1
  O  O317  1  0.00549076  0.61731852  0.00283744  1
  O  O318  1  0.00695451  0.62178134  0.50868546  1
  O  O319  1  0.50898114  0.11858302  0.00936225  1
  O  O320  1  0.50401670  0.12295246  0.49756896  1
  O  O321  1  0.50997093  0.61185827  -0.00586273  1
  O  O322  1  0.51361982  0.61819549  0.49445796  1
  O  O323  1  0.49160584  0.38433701  0.49475111  1
  O  O324  1  0.50294526  0.38677890  0.99346948  1
  O  O325  1  0.49156374  0.88426914  0.48864123  1
  O  O326  1  0.50197577  0.88923062  1.00143295  1
  O  O327  1  0.99272712  0.37950382  0.49049403  1
  O  O328  1  1.00305731  0.37565800  0.98165754  1
  O  O329  1  1.00438793  0.87782095  0.49282315  1
  O  O330  1  1.00014086  0.88059535  0.99540110  1
  O  O331  1  0.49323827  0.49317993  0.38642897  1
  O  O332  1  0.50282465  0.48747776  0.88311625  1
  O  O333  1  0.50259728  0.99480995  0.38247593  1
  O  O334  1  0.50511888  1.00853717  0.89060778  1
  O  O335  1  1.00947065  0.48466758  0.37132929  1
  O  O336  1  0.99137951  0.49026496  0.87656921  1
  O  O337  1  0.99936593  0.99296749  0.36904739  1
  O  O338  1  0.99697440  0.99232932  0.88805848  1
  O  O339  1  0.01176145  -0.00694407  0.11249269  1
  O  O340  1  0.00237021  0.00629604  0.61375714  1
  O  O341  1  0.00017568  0.50055957  0.11194061  1
  O  O342  1  0.01290817  0.50804773  0.62642607  1
  O  O343  1  0.50866417  0.00599900  0.11629891  1
  O  O344  1  0.51134797  0.00989308  0.60607752  1
  O  O345  1  0.51456434  0.50242479  0.12041925  1
  O  O346  1  0.50950896  0.49509194  0.61316876  1
  O  O347  1  0.24882683  0.41053915  0.25619426  1
  O  O348  1  0.24050567  0.38104324  0.75579756  1
  O  O349  1  0.25069542  0.88055030  0.24385165  1
  O  O350  1  0.24014718  0.86930394  0.73958192  1
  O  O351  1  0.74982648  0.38695038  0.25733577  1
  O  O352  1  0.74460242  0.37824943  0.74280158  1
  O  O353  1  0.74091491  0.88341137  0.25195605  1
  O  O354  1  0.79083091  0.88038760  0.73558446  1
  O  O355  1  0.25088384  0.11538791  0.25940273  1
  O  O356  1  0.25853265  0.12750851  0.76191618  1
  O  O357  1  0.20748396  0.58155054  0.26942684  1
  O  O358  1  0.24901019  0.61623857  0.75611084  1
  O  O359  1  0.75381704  0.12085428  0.25210336  1
  O  O360  1  0.76395413  0.13458755  0.74311834  1
  O  O361  1  0.75173195  0.61435865  0.25740450  1
  O  O362  1  0.75726599  0.61621488  0.76336861  1
  O  O363  1  0.36117116  0.12747302  0.37810821  1
  O  O364  1  0.36536597  0.12744425  0.86602089  1
  O  O365  1  0.37737825  0.61256503  0.38646116  1
  O  O366  1  0.36214397  0.61769645  0.86300663  1
  O  O367  1  0.87416229  0.12679014  0.36099043  1
  O  O368  1  0.87717456  0.13605698  0.86170091  1
  O  O369  1  0.86105166  0.62490398  0.37216871  1
  O  O370  1  0.87067814  0.61326136  0.87079959  1
  O  O371  1  0.11588245  0.37552786  0.12001773  1
  O  O372  1  0.11762200  0.38214407  0.63571070  1
  O  O373  1  0.13693198  0.88567484  0.12559344  1
  O  O374  1  0.13028652  0.87946224  0.62979416  1
  O  O375  1  0.62236859  0.38352285  0.12705102  1
  O  O376  1  0.62980208  0.38112065  0.62814135  1
  O  O377  1  0.62999726  0.88454077  0.13210467  1
  O  O378  1  0.62936583  0.89098047  0.60800890  1
  O  O379  1  0.13816448  0.25368541  0.26001885  1
  O  O380  1  0.11887396  0.25558928  0.74804494  1
  O  O381  1  0.12423194  0.74355734  0.25815271  1
  O  O382  1  0.12043382  0.76300492  0.75073066  1
  O  O383  1  0.62694352  0.24681622  0.26020454  1
  O  O384  1  0.61906523  0.25454753  0.75661530  1
  O  O385  1  0.61648269  0.76522298  0.24786478  1
  O  O386  1  0.61674155  0.72788545  0.76693449  1
  O  O387  1  0.35964227  0.24639747  0.25429099  1
  O  O388  1  0.37994174  0.24551334  0.74450846  1
  O  O389  1  0.38584905  0.74941254  0.25238548  1
  O  O390  1  0.37142848  0.73229992  0.74903160  1
  O  O391  1  0.87085072  0.23822424  0.23400068  1
  O  O392  1  0.88206332  0.24525307  0.74275548  1
  O  O393  1  0.88798122  0.74715423  0.24019852  1
  O  O394  1  0.87754861  0.73215389  0.74820195  1
  O  O395  1  0.38241104  0.49585259  0.50041858  1
  O  O396  1  0.38592346  0.50304309  0.99554670  1
  O  O397  1  0.38305451  0.99394595  0.50306087  1
  O  O398  1  0.39315590  1.00266745  1.00364985  1
  O  O399  1  0.87726034  0.48937410  0.50006180  1
  O  O400  1  0.87581447  0.50169342  0.98846981  1
  O  O401  1  0.88292747  1.00768406  0.49486641  1
  O  O402  1  0.88533751  0.99762087  1.00394092  1
  O  O403  1  0.12251605  0.00382048  0.00428510  1
  O  O404  1  0.12546705  0.00102810  0.51336380  1
  O  O405  1  0.11548558  0.49992406  0.00473125  1
  O  O406  1  0.12424300  0.50653001  0.50693208  1
  O  O407  1  0.61883026  0.00657341  0.00900845  1
  O  O408  1  0.61785222  0.01432107  0.49988347  1
  O  O409  1  0.62180719  0.50507650  0.01556723  1
  O  O410  1  0.61711866  0.50429245  0.50564733  1
  O  O411  1  0.37713882  0.38276912  0.11876846  1
  O  O412  1  0.37925132  0.37058305  0.61402512  1
  O  O413  1  0.36227192  0.87841672  0.11612610  1
  O  O414  1  0.36586898  0.87551146  0.61043407  1
  O  O415  1  0.87728075  0.35827513  0.12568847  1
  O  O416  1  0.87003355  0.37307359  0.61718407  1
  O  O417  1  0.87280475  0.86861385  0.12637364  1
  O  O418  1  0.89403250  0.88727987  0.60966435  1
  O  O419  1  0.13241570  0.13358704  0.37658065  1
  O  O420  1  0.13663514  0.12280937  0.87763299  1
  O  O421  1  0.11643921  0.63286550  0.39160598  1
  O  O422  1  0.12782067  0.61985032  0.88630846  1
  O  O423  1  0.62692323  0.13482157  0.38065649  1
  O  O424  1  0.61678366  0.13756770  0.88303072  1
  O  O425  1  0.62972963  0.62595605  0.37913309  1
  O  O426  1  0.64171404  0.61006359  0.89331241  1
