# generated using pymatgen
data_V85Zn86O256
_symmetry_space_group_name_H-M   'P 1'
_cell_length_a   16.93903471
_cell_length_b   16.94231988
_cell_length_c   16.94892303
_cell_angle_alpha   90.05068318
_cell_angle_beta   90.00468044
_cell_angle_gamma   90.05788614
_symmetry_Int_Tables_number   1
_chemical_formula_structural   V85Zn86O256
_chemical_formula_sum   'V85 Zn86 O256'
_cell_volume   4864.10845353
_cell_formula_units_Z   1
loop_
 _symmetry_equiv_pos_site_id
 _symmetry_equiv_pos_as_xyz
  1  'x, y, z'
loop_
 _atom_site_type_symbol
 _atom_site_label
 _atom_site_symmetry_multiplicity
 _atom_site_fract_x
 _atom_site_fract_y
 _atom_site_fract_z
 _atom_site_occupancy
  V  V0  1  0.62367287  0.38055098  0.75971816  1
  V  V1  1  -0.04777403  0.56540362  0.06888298  1
  V  V2  1  0.75009262  0.37160237  0.62774388  1
  V  V3  1  0.24853182  0.12148261  0.38216441  1
  V  V4  1  -0.00298423  0.24925938  0.24582238  1
  V  V5  1  0.12347907  0.37317706  0.74954515  1
  V  V6  1  0.12467421  0.87328919  0.25392289  1
  V  V7  1  0.87598721  0.87376129  0.50010558  1
  V  V8  1  0.50458310  0.63145696  0.12886384  1
  V  V9  1  -0.00541636  0.61474776  0.61715303  1
  V  V10  1  -0.00368386  0.12771342  0.12459120  1
  V  V11  1  0.37797879  0.49752295  0.36966816  1
  V  V12  1  0.87618576  0.62066511  0.25119430  1
  V  V13  1  -0.00016780  0.00052630  0.00013094  1
  V  V14  1  0.37968860  0.62800494  0.25047488  1
  V  V15  1  0.86798676  0.12882426  0.24931525  1
  V  V16  1  0.74571670  0.74630148  0.49897248  1
  V  V17  1  0.89629235  0.13150491  0.74459188  1
  V  V18  1  0.37577821  0.24937499  0.12591996  1
  V  V19  1  0.61160338  0.74753213  0.36848894  1
  V  V20  1  0.76739134  0.61766762  0.87249903  1
  V  V21  1  0.11780950  0.00460657  0.62413222  1
  V  V22  1  0.12382564  -0.00015700  0.12649759  1
  V  V23  1  0.74778655  0.74994491  -0.00390760  1
  V  V24  1  0.25145513  0.12011359  0.87805415  1
  V  V25  1  0.75009592  0.01298128  0.74771288  1
  V  V26  1  0.74723048  -0.00174271  0.25329605  1
  V  V27  1  -0.00105984  0.37819213  0.37391252  1
  V  V28  1  0.61891699  0.48490623  0.13113624  1
  V  V29  1  0.62189849  0.00238571  0.61944228  1
  V  V30  1  0.37478119  0.12318769  0.75396553  1
  V  V31  1  0.51007578  0.25557958  0.24923238  1
  V  V32  1  0.38488653  0.75293270  0.62957988  1
  V  V33  1  0.76356347  0.24849919  -0.00321239  1
  V  V34  1  0.51185828  0.37670178  0.37677982  1
  V  V35  1  0.37963652  0.37376760  -0.00185619  1
  V  V36  1  0.76679629  0.36553727  0.12641259  1
  V  V37  1  0.37207398  0.25739839  0.62851645  1
  V  V38  1  0.74943373  0.87349237  0.12399040  1
  V  V39  1  0.24572184  0.74614687  0.49987111  1
  V  V40  1  -0.00065914  0.74696982  0.24813542  1
  V  V41  1  0.37591144  0.87501583  -0.01332094  1
  V  V42  1  0.11636482  0.25332278  0.87781916  1
  V  V43  1  0.87769215  0.74892755  0.12363178  1
  V  V44  1  0.87500443  0.87738505  -0.00272749  1
  V  V45  1  0.49622975  0.89101651  0.37249864  1
  V  V46  1  0.13835836  0.50784150  0.12507490  1
  V  V47  1  0.76470304  0.50031070  0.75473811  1
  V  V48  1  0.24939224  0.61929745  0.37020903  1
  V  V49  1  0.13396602  0.74838288  0.87584766  1
  V  V50  1  0.37376960  0.12332587  0.25566121  1
  V  V51  1  0.13522714  0.37793827  0.24962631  1
  V  V52  1  0.24718168  0.87312002  0.62232957  1
  V  V53  1  0.25206273  0.49886904  0.74405008  1
  V  V54  1  0.37866229  0.38277519  0.50248772  1
  V  V55  1  0.24801750  0.00055307  0.75095894  1
  V  V56  1  0.25018611  0.25098043  0.00137163  1
  V  V57  1  0.12609171  0.87201535  0.74815143  1
  V  V58  1  0.49902759  0.61180747  0.62594566  1
  V  V59  1  0.87211364  0.00444747  0.37532448  1
  V  V60  1  0.12397936  0.24683612  0.37612089  1
  V  V61  1  0.37654544  0.88753697  0.49659315  1
  V  V62  1  0.50225387  0.12704993  0.61957188  1
  V  V63  1  0.87019820  0.00608538  0.87302850  1
  V  V64  1  0.49588077  -0.00189818  -0.01645964  1
  V  V65  1  0.00408453  0.00429400  0.49941911  1
  V  V66  1  0.74391468  0.23976556  0.49605826  1
  V  V67  1  -0.00085154  0.87622561  0.87230380  1
  V  V68  1  0.25014133  0.25271175  0.50545807  1
  V  V69  1  0.06276969  0.18436033  0.56037867  1
  V  V70  1  0.74725035  0.62401749  0.37454621  1
  V  V71  1  0.74700872  0.87552745  0.62643124  1
  V  V72  1  0.87613242  0.49883399  0.37776695  1
  V  V73  1  0.49792170  0.12286382  0.12100719  1
  V  V74  1  0.87436358  0.37648997  0.50296475  1
  V  V75  1  -0.00715987  0.39329956  0.88725167  1
  V  V76  1  0.37193626  0.49772787  0.87644066  1
  V  V77  1  0.25187573  0.00109999  0.25534770  1
  V  V78  1  0.25543721  0.87345326  0.12818438  1
  V  V79  1  0.50223872  0.49589153  -0.00890773  1
  V  V80  1  0.62280603  0.62332684  -0.00798221  1
  V  V81  1  0.62921087  0.24131968  0.87449678  1
  V  V82  1  0.50073950  0.25574373  0.75637413  1
  V  V83  1  -0.00946136  0.74189122  0.74693365  1
  V  V84  1  0.62368175  -0.00208258  0.11950205  1
  Zn  Zn85  1  -0.00007358  0.87366910  0.37529434  1
  Zn  Zn86  1  0.12369747  0.62458449  0.00197972  1
  Zn  Zn87  1  0.12979870  0.50246193  0.62768433  1
  Zn  Zn88  1  0.61265586  0.61460913  0.49503498  1
  Zn  Zn89  1  0.24651610  0.62124059  0.87933962  1
  Zn  Zn90  1  0.61446477  0.86567441  0.24293226  1
  Zn  Zn91  1  0.56581857  0.06974926  0.45841238  1
  Zn  Zn92  1  0.87055214  0.74362312  0.62760058  1
  Zn  Zn93  1  0.62943790  0.12286622  -0.00680615  1
  Zn  Zn94  1  0.12545653  0.12520569  0.00181139  1
  Zn  Zn95  1  0.88658708  0.24794928  0.62560213  1
  Zn  Zn96  1  0.37703511  0.63396650  0.75851026  1
  Zn  Zn97  1  0.24949781  0.74767023  0.00481491  1
  Zn  Zn98  1  0.74368886  0.48739961  0.25348771  1
  Zn  Zn99  1  0.60018329  0.87163444  0.75061800  1
  Zn  Zn100  1  0.12187092  0.74225485  0.37739903  1
  Zn  Zn101  1  0.25453682  0.37844989  0.12974546  1
  Zn  Zn102  1  0.12002945  0.59893977  0.49562241  1
  Zn  Zn103  1  0.62695858  0.23757007  0.37692580  1
  Zn  Zn104  1  0.62488741  0.49667953  0.62259202  1
  Zn  Zn105  1  0.59931435  0.75343047  0.86636920  1
  Zn  Zn106  1  0.38398340  0.75498960  0.13083109  1
  Zn  Zn107  1  0.18549234  0.18894435  0.18881838  1
  Zn  Zn108  1  0.18947942  0.19288555  0.69302462  1
  Zn  Zn109  1  0.19073317  0.68728534  0.19159540  1
  Zn  Zn110  1  0.18631393  0.68292659  0.68677915  1
  Zn  Zn111  1  0.68770618  0.18587761  0.18164418  1
  Zn  Zn112  1  0.68723936  0.18955813  0.68395290  1
  Zn  Zn113  1  0.68647654  0.68308330  0.18646793  1
  Zn  Zn114  1  0.68389650  0.68266499  0.68709834  1
  Zn  Zn115  1  0.31667267  0.30812443  0.31741130  1
  Zn  Zn116  1  0.30933036  0.31518194  0.81647689  1
  Zn  Zn117  1  0.31579418  0.80866154  0.31507518  1
  Zn  Zn118  1  0.42899889  0.81428885  0.81141704  1
  Zn  Zn119  1  0.80759817  0.31071442  0.31223264  1
  Zn  Zn120  1  0.81725544  0.31063385  0.81492588  1
  Zn  Zn121  1  0.80918802  0.81244242  0.31338477  1
  Zn  Zn122  1  0.74319947  0.81513893  0.81068304  1
  Zn  Zn123  1  0.19596766  0.43673022  0.43371805  1
  Zn  Zn124  1  0.18629577  0.43748177  0.94088477  1
  Zn  Zn125  1  0.18752546  0.93687707  0.43838368  1
  Zn  Zn126  1  0.18910646  0.93532740  0.93870014  1
  Zn  Zn127  1  0.68857975  0.43738968  0.44215591  1
  Zn  Zn128  1  0.69189551  0.43060247  0.93797528  1
  Zn  Zn129  1  0.68690209  0.93155709  0.43436423  1
  Zn  Zn130  1  0.68664986  0.94090427  0.93365175  1
  Zn  Zn131  1  0.31414956  0.05814188  0.06332792  1
  Zn  Zn132  1  0.30980112  0.06778114  0.56756255  1
  Zn  Zn133  1  0.31281945  0.56586298  0.06325908  1
  Zn  Zn134  1  0.31482540  0.56642748  0.56161524  1
  Zn  Zn135  1  0.81165411  0.06705417  0.06321776  1
  Zn  Zn136  1  0.81797331  0.06413910  0.56773393  1
  Zn  Zn137  1  0.79103801  0.55699595  0.06454157  1
  Zn  Zn138  1  0.81033858  0.55969641  0.56393406  1
  Zn  Zn139  1  0.43775335  0.43886759  0.18901158  1
  Zn  Zn140  1  0.43621871  0.43587718  0.69251114  1
  Zn  Zn141  1  0.43762018  0.94027704  0.18915055  1
  Zn  Zn142  1  0.43312826  0.94494862  0.67815917  1
  Zn  Zn143  1  0.93809135  0.43410850  0.19268967  1
  Zn  Zn144  1  0.94167725  0.43139996  0.69331165  1
  Zn  Zn145  1  0.93692284  0.93671463  0.18799580  1
  Zn  Zn146  1  0.93576737  0.93660730  0.68703176  1
  Zn  Zn147  1  0.06260255  0.06327677  0.31512774  1
  Zn  Zn148  1  0.06584166  0.06376736  0.81626691  1
  Zn  Zn149  1  0.06219249  0.56033605  0.30770736  1
  Zn  Zn150  1  0.06148864  0.56361563  0.81190268  1
  Zn  Zn151  1  0.56601649  0.06483825  0.29654396  1
  Zn  Zn152  1  0.56424006  0.06200064  0.80337591  1
  Zn  Zn153  1  0.55951523  0.55969938  0.31313587  1
  Zn  Zn154  1  0.56118305  0.56635555  0.80751967  1
  Zn  Zn155  1  0.43309754  0.19611362  0.43500001  1
  Zn  Zn156  1  0.43947201  0.18596579  0.93502012  1
  Zn  Zn157  1  0.43334588  0.68952405  0.44315665  1
  Zn  Zn158  1  0.43031792  0.68323975  0.94660695  1
  Zn  Zn159  1  0.92774648  0.19158742  0.43200207  1
  Zn  Zn160  1  0.93722339  0.18616571  0.93452021  1
  Zn  Zn161  1  0.93745929  0.68726957  0.43827909  1
  Zn  Zn162  1  0.93766359  0.69303370  0.93057135  1
  Zn  Zn163  1  0.06262184  0.31753407  0.06367658  1
  Zn  Zn164  1  0.08350411  0.36710272  0.54200922  1
  Zn  Zn165  1  0.06298116  0.81188687  0.06457799  1
  Zn  Zn166  1  0.06091362  0.80988410  0.56278040  1
  Zn  Zn167  1  0.56163885  0.30809671  0.05607353  1
  Zn  Zn168  1  0.56340887  0.31483594  0.56578950  1
  Zn  Zn169  1  0.56058105  0.81303260  0.05278224  1
  Zn  Zn170  1  0.56249723  0.81604500  0.55704474  1
  O  O171  1  0.11343937  0.11888897  0.12740503  1
  O  O172  1  0.12454766  0.12227324  0.62417383  1
  O  O173  1  0.12745867  0.61147304  0.13057800  1
  O  O174  1  0.11380220  0.62109934  0.61849200  1
  O  O175  1  0.61793564  0.11127816  0.12295429  1
  O  O176  1  0.61398581  0.11871731  0.62792298  1
  O  O177  1  0.62304670  0.61397091  0.11307263  1
  O  O178  1  0.60878908  0.62349142  0.62492572  1
  O  O179  1  0.38163161  0.38055330  0.38168352  1
  O  O180  1  0.37355638  0.38535903  0.88506121  1
  O  O181  1  0.38694478  0.87323529  0.38113957  1
  O  O182  1  0.36197703  0.87401050  0.88960116  1
  O  O183  1  0.87858002  0.38070952  0.37789699  1
  O  O184  1  0.89546534  0.37271694  0.86828660  1
  O  O185  1  0.87313908  0.88530491  0.38475212  1
  O  O186  1  0.88326211  0.88984272  0.88113851  1
  O  O187  1  0.24398433  0.01314679  0.37174237  1
  O  O188  1  0.24222614  0.01383266  0.87058862  1
  O  O189  1  0.26592917  0.50608111  0.37709100  1
  O  O190  1  0.25691864  0.49982911  0.87070478  1
  O  O191  1  0.75498516  -0.00705380  0.36143461  1
  O  O192  1  0.76075519  -0.00021507  0.86329631  1
  O  O193  1  0.75891952  0.50255488  0.37074843  1
  O  O194  1  0.74673753  0.50238546  0.86409172  1
  O  O195  1  0.24205028  0.49806302  0.12983957  1
  O  O196  1  0.25538718  0.50300265  0.64088670  1
  O  O197  1  0.24415853  0.99129345  0.13345509  1
  O  O198  1  0.23501626  0.99698069  0.62734787  1
  O  O199  1  0.73561648  0.48169252  0.12642709  1
  O  O200  1  0.75232789  0.48832191  0.63769459  1
  O  O201  1  0.74300399  0.99473937  0.12916028  1
  O  O202  1  0.74491413  0.99540003  0.62745426  1
  O  O203  1  0.00507073  0.36602030  0.25748280  1
  O  O204  1  0.01813259  0.38068686  0.76320597  1
  O  O205  1  0.00761862  0.86898045  0.25205932  1
  O  O206  1  0.00920986  0.86789126  0.74998088  1
  O  O207  1  0.49316496  0.36506629  0.26007611  1
  O  O208  1  0.50992004  0.36687692  0.74736806  1
  O  O209  1  0.49733617  0.87809688  0.26600856  1
  O  O210  1  0.48982038  0.88460589  0.75053248  1
  O  O211  1  0.48940470  0.13143024  0.24056084  1
  O  O212  1  0.49076069  0.13172012  0.74176672  1
  O  O213  1  0.49445467  0.62032584  0.23977247  1
  O  O214  1  0.49352829  0.62501984  0.73402283  1
  O  O215  1  0.99227041  0.13047328  0.24555167  1
  O  O216  1  0.99520198  0.12580154  0.74986315  1
  O  O217  1  0.98605538  0.63195024  0.25378463  1
  O  O218  1  1.00402547  0.63699623  0.73988484  1
  O  O219  1  0.37168363  0.25596419  0.00340188  1
  O  O220  1  0.36779885  0.25811324  0.51001475  1
  O  O221  1  0.37105423  0.76384828  0.00946476  1
  O  O222  1  0.36225481  0.75738208  0.50905229  1
  O  O223  1  0.86259026  0.24690661  -0.00343738  1
  O  O224  1  0.86526748  0.26091881  0.50076894  1
  O  O225  1  0.87134838  0.75568650  0.00647606  1
  O  O226  1  0.86457259  0.75898463  0.49766478  1
  O  O227  1  0.12906959  0.25471289  0.50009099  1
  O  O228  1  0.13533810  0.24900676  0.99695439  1
  O  O229  1  0.13755957  0.75379112  0.49656864  1
  O  O230  1  0.12516145  0.75232534  0.99055702  1
  O  O231  1  0.64010851  0.25263123  0.50345506  1
  O  O232  1  0.62773497  0.24594873  0.98837757  1
  O  O233  1  0.63506673  0.74910318  0.49137258  1
  O  O234  1  0.63274837  0.74073482  0.99562416  1
  O  O235  1  0.49502588  0.24426122  0.13004684  1
  O  O236  1  0.49458722  0.24564652  0.63688375  1
  O  O237  1  0.50558416  0.73554599  0.11967188  1
  O  O238  1  0.48665120  0.75316633  0.62155832  1
  O  O239  1  1.00537790  0.24339425  0.13730074  1
  O  O240  1  1.00708175  0.25259083  0.60868678  1
  O  O241  1  0.99305692  0.75531318  0.13895607  1
  O  O242  1  0.99831833  0.74285901  0.63408792  1
  O  O243  1  0.00333329  0.25461598  0.36432221  1
  O  O244  1  0.01511138  0.24958755  0.87945596  1
  O  O245  1  -0.00066500  0.75236243  0.36313642  1
  O  O246  1  0.00592936  0.75662157  0.86184502  1
  O  O247  1  0.50094109  0.25849663  0.36541077  1
  O  O248  1  0.50771278  0.24577963  0.86246181  1
  O  O249  1  0.50942447  0.75217512  0.37953880  1
  O  O250  1  0.48909428  0.74314094  0.87407934  1
  O  O251  1  0.25547501  0.13773936  0.49265571  1
  O  O252  1  0.25161745  0.13004198  0.99417523  1
  O  O253  1  0.24713872  0.62940330  0.49033956  1
  O  O254  1  0.24508168  0.63029122  0.99914060  1
  O  O255  1  0.75848496  0.14179657  0.50783569  1
  O  O256  1  0.74625724  0.14255296  1.00786216  1
  O  O257  1  0.75136423  0.63358661  0.49320878  1
  O  O258  1  0.74107246  0.62833401  0.99264514  1
  O  O259  1  0.26111882  0.36658715  0.00277702  1
  O  O260  1  0.26104983  0.35963078  0.49369953  1
  O  O261  1  0.25989613  0.87725097  0.01108080  1
  O  O262  1  0.25506489  0.86794358  0.50291524  1
  O  O263  1  0.74579036  0.36204571  0.01383350  1
  O  O264  1  0.75715224  0.36833494  0.51081521  1
  O  O265  1  0.75526689  0.86690364  0.00386548  1
  O  O266  1  0.75556817  0.86891964  0.50755501  1
  O  O267  1  0.12031420  0.48870119  0.23892108  1
  O  O268  1  0.13710683  0.49347692  0.75190704  1
  O  O269  1  0.12948115  0.99243403  0.24651688  1
  O  O270  1  0.12629743  0.99515800  0.74226444  1
  O  O271  1  0.62539218  0.50386208  0.23383776  1
  O  O272  1  0.62974188  0.49162023  0.74650562  1
  O  O273  1  0.63287443  0.99196586  0.23778047  1
  O  O274  1  0.63529974  0.99766665  0.73814178  1
  O  O275  1  0.36796223  0.01526177  0.24607179  1
  O  O276  1  0.36080564  0.01473891  0.73854435  1
  O  O277  1  0.37802741  0.51088380  0.25857673  1
  O  O278  1  0.36594548  0.49735029  0.75999873  1
  O  O279  1  0.86833509  0.00423646  0.25690864  1
  O  O280  1  0.87355357  0.01082875  0.75405387  1
  O  O281  1  0.87112338  0.50556996  0.25651753  1
  O  O282  1  0.86282442  0.49485192  0.75060582  1
  O  O283  1  0.11681682  0.37023449  0.36837301  1
  O  O284  1  0.12024217  0.37008550  0.87155777  1
  O  O285  1  0.12482854  0.87308330  0.36272387  1
  O  O286  1  0.11897494  0.87150313  0.86627536  1
  O  O287  1  0.61411631  0.37204839  0.37813250  1
  O  O288  1  0.62905011  0.36370527  0.86449935  1
  O  O289  1  0.61082674  0.86756103  0.37302563  1
  O  O290  1  0.64608079  0.86491022  0.86358867  1
  O  O291  1  0.37820773  0.13074157  0.13075109  1
  O  O292  1  0.37831277  0.13799289  0.63572663  1
  O  O293  1  0.38653384  0.62488507  0.13271680  1
  O  O294  1  0.38244400  0.63738115  0.62563660  1
  O  O295  1  0.88837119  0.11888011  0.13521363  1
  O  O296  1  0.88310792  0.12660465  0.63894281  1
  O  O297  1  0.87908787  0.62253541  0.12896500  1
  O  O298  1  0.88847558  0.62688354  0.61920582  1
  O  O299  1  0.25491745  0.24828063  0.11408117  1
  O  O300  1  0.25956021  0.24646209  0.61846570  1
  O  O301  1  0.24859290  0.76494168  0.12820219  1
  O  O302  1  0.25410893  0.75337103  0.61793044  1
  O  O303  1  0.74653981  0.25964995  0.11499299  1
  O  O304  1  0.75461441  0.26110585  0.62053090  1
  O  O305  1  0.75548583  0.74993082  0.11328205  1
  O  O306  1  0.75146662  0.75612342  0.61620722  1
  O  O307  1  0.24386667  0.24201800  0.38368283  1
  O  O308  1  0.24593768  0.24256530  0.88708239  1
  O  O309  1  0.24933513  0.73960234  0.38299094  1
  O  O310  1  0.23500718  0.75031974  0.87501255  1
  O  O311  1  0.74677343  0.25370240  0.39096090  1
  O  O312  1  0.74474551  0.25574667  0.88847607  1
  O  O313  1  0.74258410  0.74511319  0.38168501  1
  O  O314  1  0.76255741  0.73668322  0.89023788  1
  O  O315  1  0.00087477  0.12054021  0.00947686  1
  O  O316  1  0.00001873  0.12171669  0.49686480  1
  O  O317  1  0.00217780  0.63026516  0.00666567  1
  O  O318  1  0.00369461  0.62817375  0.51232807  1
  O  O319  1  0.49907705  0.11626550  0.00579485  1
  O  O320  1  0.48748456  0.13201330  0.51447908  1
  O  O321  1  0.50623483  0.61437829  0.00786496  1
  O  O322  1  0.49739597  0.63291189  0.51944019  1
  O  O323  1  0.48944522  0.36381301  0.49027226  1
  O  O324  1  0.48818513  0.38105628  1.00324746  1
  O  O325  1  0.48949514  0.87245748  0.48635983  1
  O  O326  1  0.48560873  0.88222742  0.99942885  1
  O  O327  1  0.98846318  0.36786627  0.48112328  1
  O  O328  1  1.00362086  0.37310976  0.98637721  1
  O  O329  1  0.99199923  0.88198730  0.49727336  1
  O  O330  1  0.99416508  0.88139535  0.99611056  1
  O  O331  1  0.48980388  0.49063009  0.37415394  1
  O  O332  1  0.49500386  0.50374093  0.88636800  1
  O  O333  1  0.50624951  0.99205422  0.37743807  1
  O  O334  1  0.50404656  1.00794878  0.88491370  1
  O  O335  1  0.98664727  0.49144803  0.36799418  1
  O  O336  1  1.00345758  0.49343702  0.87970652  1
  O  O337  1  0.99171550  0.99800043  0.38186284  1
  O  O338  1  0.99663885  0.99562138  0.88140302  1
  O  O339  1  0.00396420  0.00640463  0.12117269  1
  O  O340  1  0.00986905  -0.00219678  0.61772293  1
  O  O341  1  0.00811213  0.50188592  0.12776865  1
  O  O342  1  0.00046939  0.51303942  0.63323781  1
  O  O343  1  0.50821541  0.00277331  0.11836405  1
  O  O344  1  0.50907769  0.01333591  0.62484826  1
  O  O345  1  0.50821587  0.50445111  0.11669845  1
  O  O346  1  0.49495009  0.50967814  0.62483474  1
  O  O347  1  0.23826880  0.36514441  0.25253622  1
  O  O348  1  0.23971099  0.38844762  0.76001044  1
  O  O349  1  0.24560847  0.87948783  0.24826099  1
  O  O350  1  0.23436041  0.88319301  0.74087618  1
  O  O351  1  0.74959720  0.36969040  0.23269233  1
  O  O352  1  0.74619195  0.38151760  0.74764604  1
  O  O353  1  0.75032623  0.88239371  0.24028662  1
  O  O354  1  0.76769243  0.89097889  0.73002249  1
  O  O355  1  0.25554106  0.12309752  0.25746230  1
  O  O356  1  0.25527041  0.12301418  0.75890415  1
  O  O357  1  0.25780068  0.62689908  0.26411054  1
  O  O358  1  0.25255425  0.61199397  0.75578916  1
  O  O359  1  0.76021540  0.11465740  0.23968818  1
  O  O360  1  0.75776971  0.11493308  0.74097197  1
  O  O361  1  0.76239350  0.62261322  0.25416507  1
  O  O362  1  0.74779168  0.60857718  0.75732426  1
  O  O363  1  0.36401464  0.13242448  0.36592330  1
  O  O364  1  0.36692654  0.13143179  0.86243993  1
  O  O365  1  0.37321489  0.61731765  0.37112073  1
  O  O366  1  0.37096605  0.60972428  0.87705772  1
  O  O367  1  0.87530714  0.11202125  0.36550172  1
  O  O368  1  0.88237376  0.11442245  0.86179408  1
  O  O369  1  0.87015404  0.61703071  0.37006065  1
  O  O370  1  0.86655937  0.61928898  0.87973085  1
  O  O371  1  0.12947283  0.38279782  0.13407407  1
  O  O372  1  0.12591001  0.37549321  0.64668501  1
  O  O373  1  0.13082176  0.87961538  0.13719938  1
  O  O374  1  0.12661886  0.88268292  0.62953955  1
  O  O375  1  0.61923069  0.38434739  0.12262254  1
  O  O376  1  0.63471239  0.37313225  0.63846527  1
  O  O377  1  0.62864065  0.88202947  0.12171806  1
  O  O378  1  0.63187811  0.88143996  0.62705745  1
  O  O379  1  0.11642904  0.25716695  0.25509786  1
  O  O380  1  0.13581934  0.26521311  0.76370773  1
  O  O381  1  0.11629495  0.75527992  0.25245429  1
  O  O382  1  0.11913115  0.75723803  0.75425208  1
  O  O383  1  0.61248014  0.24365615  0.24863178  1
  O  O384  1  0.61959952  0.25562297  0.75513824  1
  O  O385  1  0.63238145  0.75106509  0.26128098  1
  O  O386  1  0.64884370  0.76092948  0.75799672  1
  O  O387  1  0.38043792  0.24089967  0.24436047  1
  O  O388  1  0.38014018  0.24954674  0.74667277  1
  O  O389  1  0.37387319  0.73431923  0.24875256  1
  O  O390  1  0.36544894  0.75130978  0.73184212  1
  O  O391  1  0.88168142  0.23797207  0.25706387  1
  O  O392  1  0.87499059  0.23450361  0.74851826  1
  O  O393  1  0.87815236  0.74277164  0.24417774  1
  O  O394  1  0.89204004  0.75565733  0.74840760  1
  O  O395  1  0.36991963  0.48669162  0.49625141  1
  O  O396  1  0.38184109  0.49279279  0.99730838  1
  O  O397  1  0.36686447  0.98658345  0.50859668  1
  O  O398  1  0.38275276  0.98657919  1.00365383  1
  O  O399  1  0.86878671  0.48601800  0.49222900  1
  O  O400  1  0.88716554  0.51177694  1.01722638  1
  O  O401  1  0.88301292  0.99686173  0.49409874  1
  O  O402  1  0.87792427  1.00002615  0.99185793  1
  O  O403  1  0.11885182  0.00085557  0.00838960  1
  O  O404  1  0.11153950  -0.00275570  0.50455954  1
  O  O405  1  0.12787172  0.50028778  0.02047655  1
  O  O406  1  0.12551674  0.47816480  0.51164902  1
  O  O407  1  0.61807577  0.00156902  0.00362669  1
  O  O408  1  0.63071353  -0.00561666  0.51354294  1
  O  O409  1  0.61928138  0.50199917  0.00564177  1
  O  O410  1  0.63191925  0.50375147  0.50949141  1
  O  O411  1  0.37348737  0.36797626  0.11958453  1
  O  O412  1  0.38071595  0.36478191  0.61911211  1
  O  O413  1  0.36744812  0.87459651  0.12546921  1
  O  O414  1  0.36706675  0.86692405  0.61619206  1
  O  O415  1  0.86514598  0.37486997  0.12561665  1
  O  O416  1  0.87293291  0.37120759  0.61879576  1
  O  O417  1  0.86856195  0.87063401  0.11809085  1
  O  O418  1  0.87026245  0.87491029  0.61066393  1
  O  O419  1  0.13469098  0.13419584  0.37090004  1
  O  O420  1  0.13435358  0.13481742  0.87799395  1
  O  O421  1  0.13269038  0.61932550  0.37828844  1
  O  O422  1  0.12311055  0.63519082  0.87863966  1
  O  O423  1  0.61607688  0.12404099  0.37570610  1
  O  O424  1  0.62609526  0.13697005  0.86956809  1
  O  O425  1  0.62848598  0.63060341  0.37526198  1
  O  O426  1  0.62924643  0.62326605  0.88518266  1
