# generated using pymatgen
data_V85Zn86O256
_symmetry_space_group_name_H-M   'P 1'
_cell_length_a   16.93907102
_cell_length_b   16.94376561
_cell_length_c   16.95150827
_cell_angle_alpha   89.98374850
_cell_angle_beta   90.01800605
_cell_angle_gamma   89.92286077
_symmetry_Int_Tables_number   1
_chemical_formula_structural   V85Zn86O256
_chemical_formula_sum   'V85 Zn86 O256'
_cell_volume   4865.27549631
_cell_formula_units_Z   1
loop_
 _symmetry_equiv_pos_site_id
 _symmetry_equiv_pos_as_xyz
  1  'x, y, z'
loop_
 _atom_site_type_symbol
 _atom_site_label
 _atom_site_symmetry_multiplicity
 _atom_site_fract_x
 _atom_site_fract_y
 _atom_site_fract_z
 _atom_site_occupancy
  V  V0  1  0.12123142  0.61463417  0.50241960  1
  V  V1  1  0.12126792  0.87393231  0.74523175  1
  V  V2  1  0.62479682  0.24516463  0.37545441  1
  V  V3  1  0.12182295  0.12407061  0.50364726  1
  V  V4  1  0.74941961  0.87343734  0.12683658  1
  V  V5  1  0.62607383  0.62244562  -0.00049514  1
  V  V6  1  0.49978109  0.62439722  0.62669608  1
  V  V7  1  0.01157125  0.51134281  -0.00050286  1
  V  V8  1  0.12709261  0.37153545  0.24353940  1
  V  V9  1  0.75007396  0.74637636  0.00169415  1
  V  V10  1  0.00500689  0.60702757  0.62646994  1
  V  V11  1  0.48501084  0.37584552  0.87646196  1
  V  V12  1  0.37471548  0.62056826  0.75443273  1
  V  V13  1  0.36980934  0.49910800  0.37206365  1
  V  V14  1  0.87691950  0.12410895  0.74314468  1
  V  V15  1  0.76551198  0.75281259  0.50370012  1
  V  V16  1  0.24604447  0.87861911  0.12075013  1
  V  V17  1  0.37520529  0.62418541  0.24969858  1
  V  V18  1  0.87470515  0.87228825  -0.00145081  1
  V  V19  1  -0.00197150  0.00344735  -0.00401450  1
  V  V20  1  0.25459485  -0.00084138  0.74794974  1
  V  V21  1  0.26272702  0.25311736  0.00108727  1
  V  V22  1  0.62700624  0.62566776  0.50209045  1
  V  V23  1  0.25222518  0.12527228  0.87246408  1
  V  V24  1  -0.02060470  0.00730824  0.50361575  1
  V  V25  1  0.75590702  0.61958514  0.37845281  1
  V  V26  1  0.76343988  0.37062283  0.12456909  1
  V  V27  1  0.11452801  0.00226991  0.12894569  1
  V  V28  1  0.25399920  0.37720271  0.61980201  1
  V  V29  1  0.62350381  0.37618632  0.75270884  1
  V  V30  1  0.50167779  0.00917846  -0.00155386  1
  V  V31  1  0.88562363  0.38568641  0.49641910  1
  V  V32  1  0.49266296  0.87481888  0.38932318  1
  V  V33  1  0.75049208  0.25454054  0.50272764  1
  V  V34  1  0.26207746  0.36657051  0.12545534  1
  V  V35  1  0.62918095  0.88268050  0.75167913  1
  V  V36  1  -0.01167462  0.25542054  0.24980190  1
  V  V37  1  0.19349817  0.54269674  0.18858597  1
  V  V38  1  0.88263417  0.25130668  0.62336766  1
  V  V39  1  0.49903762  0.50089194  0.49897734  1
  V  V40  1  0.37360323  0.75446142  0.62273727  1
  V  V41  1  0.25030671  0.75137024  -0.00446304  1
  V  V42  1  0.00593475  0.24677735  0.75150759  1
  V  V43  1  0.25503179  0.24800445  0.49626615  1
  V  V44  1  0.88827073  0.75086452  0.63180569  1
  V  V45  1  0.74889568  0.12565160  0.87224993  1
  V  V46  1  0.11981340  0.37764049  0.74430316  1
  V  V47  1  0.62547282  0.74761534  0.87280487  1
  V  V48  1  0.37810871  0.75414090  0.12396982  1
  V  V49  1  0.75234761  0.49934429  0.25341951  1
  V  V50  1  0.62617598  0.37291703  0.24937404  1
  V  V51  1  0.75590727  0.25014836  0.00259986  1
  V  V52  1  0.88132338  0.61720578  0.75702448  1
  V  V53  1  0.36896148  0.00485399  0.38183821  1
  V  V54  1  0.24425869  0.50139337  0.74167845  1
  V  V55  1  0.28226274  0.01894509  0.22543493  1
  V  V56  1  0.88359956  0.38232492  -0.02047547  1
  V  V57  1  0.87076576  0.00071153  0.86773418  1
  V  V58  1  0.88137505  0.61856548  0.25236414  1
  V  V59  1  -0.00212371  0.87126594  0.86716701  1
  V  V60  1  0.49999685  0.37449456  0.37233427  1
  V  V61  1  0.12388852  0.88404241  0.25301081  1
  V  V62  1  0.48654773  0.24008412  0.74544398  1
  V  V63  1  -0.01630735  0.88452080  0.38001876  1
  V  V64  1  0.11986214  0.75683141  0.37982068  1
  V  V65  1  0.62816894  0.75246013  0.37928440  1
  V  V66  1  0.49061290  0.49312202  -0.00303848  1
  V  V67  1  -0.00129254  0.75303993  0.25080922  1
  V  V68  1  0.62240057  0.87698444  0.25257463  1
  V  V69  1  0.37772350  0.87787037  -0.00557841  1
  V  V70  1  0.75829116  0.12243825  0.37690625  1
  V  V71  1  0.62603354  0.49597326  0.12346204  1
  V  V72  1  0.62444337  0.00907123  0.12525334  1
  V  V73  1  0.12178661  0.74510247  0.87065476  1
  V  V74  1  0.49102796  0.23425567  0.23913017  1
  V  V75  1  0.25095543  0.75804054  0.49855740  1
  V  V76  1  0.12173657  0.25724102  0.87801332  1
  V  V77  1  0.24826994  0.62613039  0.37473757  1
  V  V78  1  0.88095773  0.74190823  0.12533357  1
  V  V79  1  0.50210180  0.62489322  0.12558831  1
  V  V80  1  0.75637759  -0.00082978  0.25621648  1
  V  V81  1  0.24964211  0.61529355  0.87632014  1
  V  V82  1  0.50041034  0.75422929  0.25124822  1
  V  V83  1  -0.01075864  0.13442871  0.12306532  1
  V  V84  1  0.75305876  0.87596863  0.62829599  1
  Zn  Zn85  1  0.24752729  0.87350548  0.62322950  1
  Zn  Zn86  1  0.75531003  0.49589294  0.75659017  1
  Zn  Zn87  1  0.62186979  0.24994352  0.87679838  1
  Zn  Zn88  1  0.00219551  0.38890171  0.37513124  1
  Zn  Zn89  1  0.75804344  0.61694121  0.87815188  1
  Zn  Zn90  1  0.43111817  0.16732253  0.59259443  1
  Zn  Zn91  1  0.87088387  0.12777067  0.24619446  1
  Zn  Zn92  1  0.62279124  0.13036427  0.00109292  1
  Zn  Zn93  1  0.12649564  0.62501364  0.01543925  1
  Zn  Zn94  1  0.11717695  0.00765947  0.62808569  1
  Zn  Zn95  1  0.12294237  0.13277269  0.00039571  1
  Zn  Zn96  1  0.61263777  0.00771662  0.63085832  1
  Zn  Zn97  1  0.50133547  0.87554344  0.87303637  1
  Zn  Zn98  1  0.12192160  0.25139978  0.37439176  1
  Zn  Zn99  1  0.62652223  0.49947397  0.62746778  1
  Zn  Zn100  1  0.49702223  1.00702768  0.50918697  1
  Zn  Zn101  1  0.50031275  0.74943954  0.75123191  1
  Zn  Zn102  1  0.75031317  0.37828838  0.62691557  1
  Zn  Zn103  1  0.61269367  0.12924546  0.51364517  1
  Zn  Zn104  1  0.24461823  0.12756141  0.36632628  1
  Zn  Zn105  1  0.37879492  0.36590304  0.50391588  1
  Zn  Zn106  1  0.37874452  0.00643294  0.86991577  1
  Zn  Zn107  1  0.17980823  0.18971655  0.18276064  1
  Zn  Zn108  1  0.23772560  0.16888533  0.66473986  1
  Zn  Zn109  1  0.19039631  0.70721266  0.19167495  1
  Zn  Zn110  1  0.18389277  0.68813253  0.68743300  1
  Zn  Zn111  1  0.68695310  0.18950877  0.18880271  1
  Zn  Zn112  1  0.68614432  0.19593585  0.69323676  1
  Zn  Zn113  1  0.68925860  0.68673706  0.19003986  1
  Zn  Zn114  1  0.69251271  0.68641426  0.69014033  1
  Zn  Zn115  1  0.31315375  0.31166375  0.30950089  1
  Zn  Zn116  1  0.30802483  0.31322608  0.81097584  1
  Zn  Zn117  1  0.31149259  0.82208343  0.30963249  1
  Zn  Zn118  1  0.30985742  0.80959882  0.80968166  1
  Zn  Zn119  1  0.81341258  0.31527476  0.31701505  1
  Zn  Zn120  1  0.81050579  0.30828449  0.81174161  1
  Zn  Zn121  1  0.81103598  0.80847995  0.31303379  1
  Zn  Zn122  1  0.81242744  0.80379005  0.81013494  1
  Zn  Zn123  1  0.18746634  0.43453976  0.43059404  1
  Zn  Zn124  1  0.18672354  0.43533567  0.93885582  1
  Zn  Zn125  1  0.18615269  0.94430577  0.43620379  1
  Zn  Zn126  1  0.18329285  0.93914951  0.93403831  1
  Zn  Zn127  1  0.68731008  0.43672329  0.43988105  1
  Zn  Zn128  1  0.68791456  0.43552378  0.93455036  1
  Zn  Zn129  1  0.68548664  0.94059948  0.44673463  1
  Zn  Zn130  1  0.68842719  0.93730495  0.93722498  1
  Zn  Zn131  1  0.31174128  0.06455922  0.05501991  1
  Zn  Zn132  1  0.30260106  0.05099019  0.55656402  1
  Zn  Zn133  1  0.31737627  0.56600761  0.05660146  1
  Zn  Zn134  1  0.31126822  0.56545524  0.56098498  1
  Zn  Zn135  1  0.81072801  0.06088542  0.06095515  1
  Zn  Zn136  1  0.77346000  0.07972438  0.58383481  1
  Zn  Zn137  1  0.81613118  0.55766964  0.06291911  1
  Zn  Zn138  1  0.80893105  0.56296902  0.57537547  1
  Zn  Zn139  1  0.43813821  0.43598997  0.18939214  1
  Zn  Zn140  1  0.43504073  0.43840449  0.69106643  1
  Zn  Zn141  1  0.43661048  0.95106621  0.18205952  1
  Zn  Zn142  1  0.43996674  0.93626686  0.68721296  1
  Zn  Zn143  1  0.94273213  0.44149906  0.18407987  1
  Zn  Zn144  1  0.93784236  0.43330781  0.68848650  1
  Zn  Zn145  1  0.93521313  0.93538413  0.18701169  1
  Zn  Zn146  1  0.93488038  0.93926574  0.68338247  1
  Zn  Zn147  1  0.05674347  0.06887244  0.31638200  1
  Zn  Zn148  1  0.06578059  0.06740852  0.81154193  1
  Zn  Zn149  1  0.06025092  0.56750594  0.31629066  1
  Zn  Zn150  1  0.05773098  0.55611591  0.81835732  1
  Zn  Zn151  1  0.56369006  0.05995436  0.31872952  1
  Zn  Zn152  1  0.56335397  0.06275871  0.81387863  1
  Zn  Zn153  1  0.56498307  0.56397037  0.31328709  1
  Zn  Zn154  1  0.56327892  0.55931852  0.81606810  1
  Zn  Zn155  1  0.43527268  0.18621957  0.42331683  1
  Zn  Zn156  1  0.43620165  0.18906262  0.93244131  1
  Zn  Zn157  1  0.43592371  0.68926403  0.43900480  1
  Zn  Zn158  1  0.43900118  0.68558551  0.93685440  1
  Zn  Zn159  1  0.93770119  0.18987431  0.43575174  1
  Zn  Zn160  1  0.93478595  0.19247375  0.93518017  1
  Zn  Zn161  1  0.93587366  0.56446199  0.44372797  1
  Zn  Zn162  1  0.94378768  0.68415942  0.93961404  1
  Zn  Zn163  1  0.06326431  0.31955710  0.06427166  1
  Zn  Zn164  1  0.06654625  0.30966811  0.56638497  1
  Zn  Zn165  1  0.06047258  0.81283663  0.05796533  1
  Zn  Zn166  1  0.05619989  0.81443592  0.55618176  1
  Zn  Zn167  1  0.56447746  0.31074767  0.06140810  1
  Zn  Zn168  1  0.56133664  0.31282156  0.56528929  1
  Zn  Zn169  1  0.56315596  0.81731949  0.06107161  1
  Zn  Zn170  1  0.56855341  0.81077340  0.56765397  1
  O  O171  1  0.10916615  0.11734349  0.12069314  1
  O  O172  1  0.13246374  0.12768168  0.60735135  1
  O  O173  1  0.14310867  0.61738640  0.13462402  1
  O  O174  1  0.11132332  0.63025107  0.61888467  1
  O  O175  1  0.63348272  0.11211115  0.12115187  1
  O  O176  1  0.66285900  0.11378845  0.62115321  1
  O  O177  1  0.62132575  0.61705928  0.12173860  1
  O  O178  1  0.61606060  0.62530771  0.62191841  1
  O  O179  1  0.38295282  0.38424337  0.37522110  1
  O  O180  1  0.38605259  0.37671453  0.87159943  1
  O  O181  1  0.38983388  0.86984771  0.38150697  1
  O  O182  1  0.37448271  0.87013077  0.88679295  1
  O  O183  1  0.87709944  0.37322602  0.39327562  1
  O  O184  1  0.87315705  0.37526247  0.88134467  1
  O  O185  1  0.88599904  0.87164404  0.37351623  1
  O  O186  1  0.87921294  0.87913852  0.87636036  1
  O  O187  1  0.26058110  0.00015124  0.36520414  1
  O  O188  1  0.24746873  0.00853048  0.86977358  1
  O  O189  1  0.26235199  0.50788945  0.37704827  1
  O  O190  1  0.24637608  0.51142578  0.86820479  1
  O  O191  1  0.74188982  0.01036698  0.36814070  1
  O  O192  1  0.76451909  0.00668825  0.88250358  1
  O  O193  1  0.74252904  0.50878031  0.36734587  1
  O  O194  1  0.74301353  0.50580329  0.86947172  1
  O  O195  1  0.25590338  0.49157580  0.12305394  1
  O  O196  1  0.24845811  0.49885739  0.63420722  1
  O  O197  1  0.22780760  0.99634400  0.12159428  1
  O  O198  1  0.23729355  0.98980031  0.63381252  1
  O  O199  1  0.74174878  0.49360121  0.13181833  1
  O  O200  1  0.74405523  0.49536397  0.63696569  1
  O  O201  1  0.74367843  0.99200286  0.13075019  1
  O  O202  1  0.76580405  0.97540310  0.62659726  1
  O  O203  1  0.00528044  0.36703899  0.24688667  1
  O  O204  1  0.00887254  0.36359860  0.74481574  1
  O  O205  1  0.00179570  0.87403623  0.26146764  1
  O  O206  1  0.00292923  0.88031294  0.76175184  1
  O  O207  1  0.50726516  0.37383174  0.26128100  1
  O  O208  1  0.50300415  0.37138644  0.75955596  1
  O  O209  1  0.50648991  0.87144080  0.25844815  1
  O  O210  1  0.51257841  0.86765201  0.75325784  1
  O  O211  1  0.50641763  0.13528448  0.25318992  1
  O  O212  1  0.50079813  0.14137327  0.75866479  1
  O  O213  1  0.49771049  0.63475526  0.24544236  1
  O  O214  1  0.49244762  0.62431180  0.74424456  1
  O  O215  1  0.99434117  0.13794214  0.24285741  1
  O  O216  1  0.99116073  0.13562611  0.75210314  1
  O  O217  1  0.98984554  0.63825678  0.25484318  1
  O  O218  1  0.99404745  0.62049165  0.73917110  1
  O  O219  1  0.36235074  0.24744612  -0.00136345  1
  O  O220  1  0.36687127  0.24753619  0.49686664  1
  O  O221  1  0.37181983  0.75633015  0.00557211  1
  O  O222  1  0.36312374  0.74319113  0.50901442  1
  O  O223  1  0.86398611  0.26283331  -0.00470636  1
  O  O224  1  0.87132510  0.25730203  0.50682754  1
  O  O225  1  0.87156614  0.75109904  0.00770433  1
  O  O226  1  0.86553816  0.74223530  0.51581483  1
  O  O227  1  0.12717999  0.24097701  0.49527336  1
  O  O228  1  0.13026704  0.25430429  0.99171277  1
  O  O229  1  0.12842007  0.74462774  0.49285425  1
  O  O230  1  0.13141332  0.74818424  0.99181108  1
  O  O231  1  0.63254338  0.25125228  0.49406736  1
  O  O232  1  0.63849855  0.24919696  0.99737392  1
  O  O233  1  0.63429400  0.74190515  0.49690994  1
  O  O234  1  0.63123980  0.74485937  0.99627054  1
  O  O235  1  0.50664490  0.25270053  0.14052097  1
  O  O236  1  0.49797605  0.25037346  0.63861378  1
  O  O237  1  0.49678137  0.74716313  0.13044119  1
  O  O238  1  0.49296713  0.73847190  0.62413743  1
  O  O239  1  1.00390091  0.24453647  0.13541132  1
  O  O240  1  0.98894537  0.24913297  0.63129439  1
  O  O241  1  0.98827100  0.75899384  0.13193430  1
  O  O242  1  0.98929144  0.74462789  0.62072280  1
  O  O243  1  -0.00090218  0.25503173  0.35933692  1
  O  O244  1  0.01058088  0.24636994  0.86645554  1
  O  O245  1  0.01228349  0.76743459  0.37209445  1
  O  O246  1  0.00871054  0.76037731  0.88124624  1
  O  O247  1  0.50805682  0.25809475  0.36723387  1
  O  O248  1  0.50003272  0.26153118  0.86905081  1
  O  O249  1  0.50519260  0.75912012  0.37277659  1
  O  O250  1  0.51416088  0.75159205  0.87770831  1
  O  O251  1  0.23804933  0.13133282  0.49133524  1
  O  O252  1  0.24475870  0.13365369  0.99516367  1
  O  O253  1  0.24234674  0.63639864  0.49361161  1
  O  O254  1  0.24876945  0.63142486  0.99189166  1
  O  O255  1  0.75368035  0.14300275  0.48950187  1
  O  O256  1  0.75463693  0.13318397  0.99117920  1
  O  O257  1  0.74747472  0.62864188  0.49552098  1
  O  O258  1  0.74491298  0.63079003  1.00316227  1
  O  O259  1  0.24635844  0.36862525  0.01562325  1
  O  O260  1  0.25140647  0.37007370  0.50346609  1
  O  O261  1  0.25508823  0.87284520  0.00211907  1
  O  O262  1  0.24020320  0.86190542  0.50053474  1
  O  O263  1  0.75798507  0.36972794  0.00642026  1
  O  O264  1  0.75826273  0.36651819  0.49973578  1
  O  O265  1  0.75669657  0.86618205  0.00477815  1
  O  O266  1  0.74526383  0.86043626  0.50943935  1
  O  O267  1  0.12534887  0.49478061  0.25025644  1
  O  O268  1  0.13294599  0.49079548  0.75642149  1
  O  O269  1  0.11167592  0.99801406  0.23933838  1
  O  O270  1  0.12717024  0.98988179  0.74972812  1
  O  O271  1  0.62981379  0.49474443  0.24208442  1
  O  O272  1  0.61838228  0.48487915  0.74857848  1
  O  O273  1  0.63134009  0.99517607  0.24404048  1
  O  O274  1  0.62606726  0.98621248  0.75246656  1
  O  O275  1  0.37226860  -0.02807229  0.27510328  1
  O  O276  1  0.35763364  -0.01458322  0.75534278  1
  O  O277  1  0.38508111  0.51043799  0.26202300  1
  O  O278  1  0.36418419  0.51366999  0.74698133  1
  O  O279  1  0.85924041  -0.00055254  0.24577278  1
  O  O280  1  0.88183722  0.01000696  0.75774348  1
  O  O281  1  0.86996815  0.51212977  0.24282234  1
  O  O282  1  0.87794449  0.51296657  0.74660644  1
  O  O283  1  0.12279019  0.37376209  0.35923181  1
  O  O284  1  0.13598661  0.36351439  0.86165658  1
  O  O285  1  0.12131330  0.87396170  0.36883316  1
  O  O286  1  0.11587796  0.86878470  0.86732246  1
  O  O287  1  0.61919227  0.36582635  0.37156197  1
  O  O288  1  0.61539136  0.37203964  0.86436994  1
  O  O289  1  0.61743378  0.87082164  0.37130226  1
  O  O290  1  0.62896466  0.86564532  0.86866409  1
  O  O291  1  0.35971430  0.05159443  0.15679595  1
  O  O292  1  0.33990686  0.12275911  0.63315459  1
  O  O293  1  0.38215396  0.63206304  0.13076574  1
  O  O294  1  0.38141718  0.63178727  0.63127507  1
  O  O295  1  0.88548064  0.12060571  0.12586125  1
  O  O296  1  0.86375473  0.13321510  0.63806688  1
  O  O297  1  0.86842363  0.63471271  0.13551123  1
  O  O298  1  0.88817716  0.63029339  0.63166693  1
  O  O299  1  0.24754114  0.25844570  0.11737106  1
  O  O300  1  0.24440754  0.26487022  0.60593906  1
  O  O301  1  0.25771421  0.76044832  0.11667864  1
  O  O302  1  0.25530712  0.74894661  0.61609228  1
  O  O303  1  0.74612299  0.25927405  0.11752340  1
  O  O304  1  0.76120447  0.25652265  0.61735861  1
  O  O305  1  0.75769901  0.75460520  0.12202121  1
  O  O306  1  0.76002116  0.75218846  0.61969010  1
  O  O307  1  0.24778690  0.25054118  0.38326986  1
  O  O308  1  0.24354746  0.24529937  0.88093308  1
  O  O309  1  0.24088254  0.74948862  0.37700179  1
  O  O310  1  0.24215924  0.74178405  0.87978255  1
  O  O311  1  0.74204202  0.24662926  0.37973400  1
  O  O312  1  0.74812625  0.24189640  0.88365227  1
  O  O313  1  0.74847857  0.74288340  0.38567617  1
  O  O314  1  0.74146834  0.74266700  0.88348262  1
  O  O315  1  -0.00261480  0.11970805  0.00483120  1
  O  O316  1  0.00751948  0.11546268  0.49306237  1
  O  O317  1  0.00709305  0.61827560  0.00636207  1
  O  O318  1  0.00638247  0.62351113  0.51518971  1
  O  O319  1  0.49999429  0.11372010  -0.00422438  1
  O  O320  1  0.49515759  0.12987601  0.50315590  1
  O  O321  1  0.50648254  0.61723069  0.00694591  1
  O  O322  1  0.50547314  0.62099924  0.50605698  1
  O  O323  1  0.49916958  0.38042287  0.48913180  1
  O  O324  1  0.50494520  0.37877824  0.98604105  1
  O  O325  1  0.50761122  0.87263724  0.48982851  1
  O  O326  1  0.49241946  0.88380635  0.99725961  1
  O  O327  1  0.98837677  0.37169612  0.50062164  1
  O  O328  1  0.98495409  0.37165596  0.99744073  1
  O  O329  1  1.00052462  0.88948526  0.48700699  1
  O  O330  1  0.99302650  0.88268997  0.98910463  1
  O  O331  1  0.49668945  0.49389807  0.37969450  1
  O  O332  1  0.50278760  0.48626789  0.88358979  1
  O  O333  1  0.49065110  0.98927236  0.38101233  1
  O  O334  1  0.49822410  0.99565656  0.88257544  1
  O  O335  1  0.99346705  0.50149306  0.37287073  1
  O  O336  1  0.99764665  0.50026556  0.89674808  1
  O  O337  1  0.99672746  0.99137158  0.38307463  1
  O  O338  1  0.99192659  0.99596869  0.88050626  1
  O  O339  1  0.00037883  0.00438546  0.11636369  1
  O  O340  1  0.00111790  -0.00519622  0.60726048  1
  O  O341  1  -0.00279773  0.49008843  0.09985314  1
  O  O342  1  0.00215455  0.50866072  0.62499395  1
  O  O343  1  0.51573493  -0.00761346  0.11343251  1
  O  O344  1  0.49777998  0.00398503  0.62396458  1
  O  O345  1  0.50947956  0.50186093  0.12101053  1
  O  O346  1  0.49726481  0.51112521  0.61821159  1
  O  O347  1  0.24343627  0.37110595  0.23716650  1
  O  O348  1  0.24548376  0.38332427  0.74095404  1
  O  O349  1  0.24419739  0.88982099  0.23754729  1
  O  O350  1  0.23685381  0.87999636  0.75188212  1
  O  O351  1  0.74657211  0.37926377  0.24461720  1
  O  O352  1  0.73462240  0.37073647  0.75051618  1
  O  O353  1  0.74240077  0.88008718  0.24944747  1
  O  O354  1  0.74063674  0.86218761  0.74222770  1
  O  O355  1  0.24051324  0.11286460  0.24687666  1
  O  O356  1  0.23533122  0.10995681  0.76164033  1
  O  O357  1  0.25084711  0.61798189  0.25024172  1
  O  O358  1  0.25322042  0.61911644  0.75463638  1
  O  O359  1  0.74936204  0.11720110  0.25681320  1
  O  O360  1  0.76106914  0.13472270  0.76601197  1
  O  O361  1  0.75704963  0.62089025  0.25960383  1
  O  O362  1  0.76961326  0.62443421  0.74972221  1
  O  O363  1  0.37028430  0.10745187  0.36862788  1
  O  O364  1  0.35757999  0.12444701  0.87675682  1
  O  O365  1  0.36788910  0.62307759  0.36791119  1
  O  O366  1  0.36420635  0.63178115  0.86624013  1
  O  O367  1  0.86141811  0.13253458  0.36804481  1
  O  O368  1  0.87163760  0.11744925  0.86738344  1
  O  O369  1  0.86277369  0.62484732  0.36908991  1
  O  O370  1  0.87980428  0.63346562  0.85957787  1
  O  O371  1  0.13524452  0.37714973  0.13640367  1
  O  O372  1  0.13450930  0.37384829  0.63677121  1
  O  O373  1  0.12340799  0.88234417  0.13077746  1
  O  O374  1  0.11865407  0.86739011  0.63938012  1
  O  O375  1  0.63241174  0.38313686  0.12946668  1
  O  O376  1  0.62244334  0.37657064  0.63896260  1
  O  O377  1  0.63226873  0.87958412  0.13353175  1
  O  O378  1  0.63545285  0.87348993  0.63622071  1
  O  O379  1  0.11426244  0.25748673  0.25063779  1
  O  O380  1  0.11591528  0.25689499  0.75643133  1
  O  O381  1  0.11916015  0.76325548  0.25846246  1
  O  O382  1  0.12857133  0.75708034  0.76336838  1
  O  O383  1  0.62043926  0.25636464  0.25872597  1
  O  O384  1  0.61309450  0.26159211  0.75346128  1
  O  O385  1  0.62121346  0.75594999  0.25837063  1
  O  O386  1  0.62456191  0.75110266  0.76059835  1
  O  O387  1  0.39213991  0.24928276  0.25471202  1
  O  O388  1  0.38703325  0.25370194  0.75200131  1
  O  O389  1  0.37881547  0.74749260  0.24389412  1
  O  O390  1  0.37493963  0.73756086  0.74265391  1
  O  O391  1  0.88500277  0.25399137  0.24786843  1
  O  O392  1  0.88294080  0.24598370  0.74335080  1
  O  O393  1  0.87763007  0.74143290  0.24408827  1
  O  O394  1  0.87715866  0.73711657  0.73753580  1
  O  O395  1  0.38432852  0.50426172  0.48860367  1
  O  O396  1  0.39160975  0.50066357  1.00316710  1
  O  O397  1  0.37109570  0.99189409  0.48546828  1
  O  O398  1  0.38282305  0.99302117  0.99396580  1
  O  O399  1  0.87048220  0.48887908  0.50682455  1
  O  O400  1  0.87673955  0.48589258  0.99931296  1
  O  O401  1  0.88339055  1.01393450  0.50445595  1
  O  O402  1  0.88329697  0.99326571  0.99351837  1
  O  O403  1  0.10875103  -0.00095467  0.00515494  1
  O  O404  1  0.12080100  0.01370846  0.50070076  1
  O  O405  1  0.11821051  0.50544744  -0.00193713  1
  O  O406  1  0.13280796  0.51630660  0.49202938  1
  O  O407  1  0.61939745  -0.00010781  0.00729702  1
  O  O408  1  0.62041690  0.00901090  0.50745173  1
  O  O409  1  0.61944649  0.50252006  0.01026090  1
  O  O410  1  0.61600767  0.50656391  0.50178819  1
  O  O411  1  0.36107779  0.37499325  0.13197147  1
  O  O412  1  0.36005460  0.38473758  0.62129212  1
  O  O413  1  0.37007047  0.87364601  0.11186955  1
  O  O414  1  0.37154249  0.85721123  0.63255804  1
  O  O415  1  0.86386527  0.37771778  0.12313724  1
  O  O416  1  0.87416237  0.36795545  0.61507876  1
  O  O417  1  0.86844804  0.86616076  0.11924741  1
  O  O418  1  0.87253056  0.85653143  0.63280697  1
  O  O419  1  0.12510945  0.12917753  0.38440431  1
  O  O420  1  0.13235383  0.13702158  0.87944907  1
  O  O421  1  0.12985264  0.63827388  0.37989141  1
  O  O422  1  0.13216079  0.63276039  0.87355400  1
  O  O423  1  0.63213004  0.13719407  0.37697519  1
  O  O424  1  0.63620979  0.12550534  0.87905509  1
  O  O425  1  0.63530557  0.63268393  0.37975190  1
  O  O426  1  0.62351373  0.63164444  0.88420529  1
