# generated using pymatgen
data_V85Zn86O256
_symmetry_space_group_name_H-M   'P 1'
_cell_length_a   16.93948968
_cell_length_b   16.92549848
_cell_length_c   16.93632579
_cell_angle_alpha   89.96665146
_cell_angle_beta   89.98363468
_cell_angle_gamma   89.99796783
_symmetry_Int_Tables_number   1
_chemical_formula_structural   V85Zn86O256
_chemical_formula_sum   'V85 Zn86 O256'
_cell_volume   4855.80120595
_cell_formula_units_Z   1
loop_
 _symmetry_equiv_pos_site_id
 _symmetry_equiv_pos_as_xyz
  1  'x, y, z'
loop_
 _atom_site_type_symbol
 _atom_site_label
 _atom_site_symmetry_multiplicity
 _atom_site_fract_x
 _atom_site_fract_y
 _atom_site_fract_z
 _atom_site_occupancy
  V  V0  1  0.25517881  0.00577405  0.75978002  1
  V  V1  1  0.62564955  0.12907351  0.49482001  1
  V  V2  1  0.24920697  0.12398300  0.36779494  1
  V  V3  1  0.87802871  0.87271778  0.49904986  1
  V  V4  1  0.10954086  0.37191433  0.25636300  1
  V  V5  1  0.49715240  0.12499247  0.62560668  1
  V  V6  1  0.50043795  0.00012523  0.49859682  1
  V  V7  1  0.01101455  0.75130783  0.24813708  1
  V  V8  1  0.00450761  0.26399067  0.74767749  1
  V  V9  1  0.23820877  0.88587756  0.62376246  1
  V  V10  1  0.49989785  0.50097722  0.50050490  1
  V  V11  1  0.75024225  0.12497354  0.37566172  1
  V  V12  1  0.87246662  0.49053248  0.88052559  1
  V  V13  1  0.86686929  0.62940653  0.75781442  1
  V  V14  1  0.00483280  0.00191681  0.50113014  1
  V  V15  1  0.49801547  0.50595946  0.00463417  1
  V  V16  1  0.24338449  0.74890643  0.49551975  1
  V  V17  1  0.37492833  0.88044261  -0.00730623  1
  V  V18  1  0.00776619  0.87130415  0.37426677  1
  V  V19  1  0.12871975  0.88528957  0.24671450  1
  V  V20  1  0.50126623  0.87363839  0.37480752  1
  V  V21  1  0.00743851  0.63001036  0.63931076  1
  V  V22  1  0.37882413  0.25013032  0.62459283  1
  V  V23  1  0.62517686  -0.00171598  0.62436853  1
  V  V24  1  0.37424731  0.74963632  0.12228604  1
  V  V25  1  0.74775797  0.25528936  0.49416211  1
  V  V26  1  0.62298495  0.24414406  0.87172238  1
  V  V27  1  0.37325032  0.87450924  0.50083277  1
  V  V28  1  0.50588429  -0.00154489  0.01339924  1
  V  V29  1  0.00412155  0.12652653  0.12474947  1
  V  V30  1  0.00122729  0.62028077  0.12470059  1
  V  V31  1  0.12313451  0.23842976  0.87537732  1
  V  V32  1  0.50034020  0.63023579  0.62685414  1
  V  V33  1  0.24254674  0.49608094  0.74791907  1
  V  V34  1  0.37670810  0.62732912  0.75152446  1
  V  V35  1  0.24904309  0.74828088  -0.00818946  1
  V  V36  1  0.10959878  0.25131055  0.37404863  1
  V  V37  1  0.12586488  0.12083928  0.50279705  1
  V  V38  1  0.87863041  0.25383436  0.61296355  1
  V  V39  1  0.37380776  0.75272563  0.62889498  1
  V  V40  1  0.87513055  0.87800548  -0.00318659  1
  V  V41  1  0.49975819  0.87775033  0.87026376  1
  V  V42  1  0.74372576  0.00165173  0.24376336  1
  V  V43  1  0.00713295  0.12099537  0.62596150  1
  V  V44  1  0.24445424  0.24203501  0.00323921  1
  V  V45  1  0.75245949  0.87075892  0.62272476  1
  V  V46  1  0.50918301  0.24426039  0.24977815  1
  V  V47  1  0.00667235  0.00591000  -0.00722611  1
  V  V48  1  0.67470018  0.55933410  0.06398564  1
  V  V49  1  0.00558698  0.37824024  0.89141707  1
  V  V50  1  0.87895629  0.12967460  0.25007554  1
  V  V51  1  0.62217456  0.86427201  0.74922598  1
  V  V52  1  0.49862661  0.74877021  0.25148357  1
  V  V53  1  0.75437841  0.25202241  -0.00290969  1
  V  V54  1  0.74228982  0.87913588  0.12156680  1
  V  V55  1  0.37274067  0.50210523  0.87572714  1
  V  V56  1  0.12375448  0.62357032  -0.00432303  1
  V  V57  1  0.37265175  0.62334319  0.24946300  1
  V  V58  1  0.74339161  0.37510737  0.12080263  1
  V  V59  1  0.62672248  0.12008316  0.01424285  1
  V  V60  1  0.87126075  0.62842888  0.26114570  1
  V  V61  1  0.75000185  0.12404040  0.87282238  1
  V  V62  1  0.75375814  0.37840681  0.62498150  1
  V  V63  1  0.87848255  0.12681982  0.74873759  1
  V  V64  1  0.75194349  -0.00113034  0.74816133  1
  V  V65  1  0.12378648  0.86956037  0.76108664  1
  V  V66  1  0.43998230  0.18753260  0.79405487  1
  V  V67  1  0.61823623  0.36893742  0.74618787  1
  V  V68  1  0.87488841  0.75302523  0.12435816  1
  V  V69  1  0.11981115  0.49620237  0.12129988  1
  V  V70  1  0.63275832  0.62751437  0.49400236  1
  V  V71  1  0.24626657  0.88213954  0.12514904  1
  V  V72  1  0.37240737  0.49851249  0.37652894  1
  V  V73  1  0.24679047  0.49575178  0.25198321  1
  V  V74  1  0.37121354  0.00058855  0.36845360  1
  V  V75  1  0.25256480  0.25217911  0.49668157  1
  V  V76  1  0.49734148  0.37117425  0.87286504  1
  V  V77  1  0.37659879  0.12500504  0.24238203  1
  V  V78  1  0.11821560  0.62124545  0.49235265  1
  V  V79  1  0.62405280  0.73704353  0.88142661  1
  V  V80  1  0.62328299  0.38099140  0.25696279  1
  V  V81  1  0.74468997  0.50813090  0.26234539  1
  V  V82  1  0.87650284  0.00246951  0.37280312  1
  V  V83  1  0.87942467  0.25698879  0.12406641  1
  V  V84  1  0.37356970  0.37393701  0.00458656  1
  Zn  Zn85  1  0.26102195  0.12397792  0.87455485  1
  Zn  Zn86  1  0.76072571  0.74352117  0.48953854  1
  Zn  Zn87  1  0.88176990  0.75301282  0.63543703  1
  Zn  Zn88  1  0.62050704  0.88019599  0.24330663  1
  Zn  Zn89  1  0.50222703  0.62324272  0.12236881  1
  Zn  Zn90  1  -0.00973583  0.83921066  0.85472995  1
  Zn  Zn91  1  0.62540536  0.50190710  0.62853327  1
  Zn  Zn92  1  0.12872005  0.00756352  0.12253744  1
  Zn  Zn93  1  0.24748951  0.37172609  0.12664515  1
  Zn  Zn94  1  0.24374400  0.62819377  0.87083300  1
  Zn  Zn95  1  0.37672433  0.24886373  0.12765272  1
  Zn  Zn96  1  0.63346508  0.74908821  0.37155588  1
  Zn  Zn97  1  0.87650888  0.48894146  0.38282959  1
  Zn  Zn98  1  0.24466124  0.62998010  0.37248400  1
  Zn  Zn99  1  0.50337938  0.37114143  0.37771920  1
  Zn  Zn100  1  0.24983167  0.37096862  0.63116896  1
  Zn  Zn101  1  0.74628939  0.73922853  -0.00048060  1
  Zn  Zn102  1  -0.01315631  0.48515762  0.50177356  1
  Zn  Zn103  1  0.11680993  0.48553738  0.62755646  1
  Zn  Zn104  1  0.74734651  0.50125242  0.75413557  1
  Zn  Zn105  1  0.87880682  -0.00404430  0.87080255  1
  Zn  Zn106  1  0.37516038  0.37671899  0.50093882  1
  Zn  Zn107  1  0.18750422  0.19055031  0.18996740  1
  Zn  Zn108  1  0.18801124  0.18955515  0.68916762  1
  Zn  Zn109  1  0.18848426  0.68808085  0.18243700  1
  Zn  Zn110  1  0.18941584  0.68895167  0.68523133  1
  Zn  Zn111  1  0.68968464  0.19163242  0.18920645  1
  Zn  Zn112  1  0.68775101  0.18978174  0.68366287  1
  Zn  Zn113  1  0.68996662  0.69643796  0.19336334  1
  Zn  Zn114  1  0.68935766  0.68839276  0.68480838  1
  Zn  Zn115  1  0.31370207  0.31236603  0.31252281  1
  Zn  Zn116  1  0.30572968  0.31537165  0.82003668  1
  Zn  Zn117  1  0.31103416  0.81411522  0.31125135  1
  Zn  Zn118  1  0.31045230  0.81514185  0.81007247  1
  Zn  Zn119  1  0.80283239  0.31064929  0.30501856  1
  Zn  Zn120  1  0.81511473  0.31366471  0.80804683  1
  Zn  Zn121  1  0.81479025  0.81475230  0.31053853  1
  Zn  Zn122  1  0.80519892  0.80808789  0.81658450  1
  Zn  Zn123  1  0.18171085  0.43714780  0.43899316  1
  Zn  Zn124  1  0.18674662  0.43449750  0.93571695  1
  Zn  Zn125  1  0.18795603  0.93804714  0.43416260  1
  Zn  Zn126  1  0.18660169  0.93887886  0.93574856  1
  Zn  Zn127  1  0.68958828  0.44047714  0.44031142  1
  Zn  Zn128  1  0.68833032  0.43003321  0.92976944  1
  Zn  Zn129  1  0.68909237  0.93528374  0.43517070  1
  Zn  Zn130  1  0.68712002  0.93655743  0.93483942  1
  Zn  Zn131  1  0.31628402  0.05988450  0.05847165  1
  Zn  Zn132  1  0.31367903  0.06400598  0.56057359  1
  Zn  Zn133  1  0.30896502  0.56105921  0.06490251  1
  Zn  Zn134  1  0.30921246  0.56432380  0.56349295  1
  Zn  Zn135  1  0.81635958  0.06387102  0.06150764  1
  Zn  Zn136  1  0.81616874  0.06221425  0.56198351  1
  Zn  Zn137  1  0.83721857  0.55563832  0.06645352  1
  Zn  Zn138  1  0.81822537  0.56217483  0.56917142  1
  Zn  Zn139  1  0.43942270  0.43586983  0.18720931  1
  Zn  Zn140  1  0.43466846  0.43820532  0.68707550  1
  Zn  Zn141  1  0.43369694  0.93537556  0.18661499  1
  Zn  Zn142  1  0.43534145  0.93834661  0.68884468  1
  Zn  Zn143  1  0.93035816  0.43715596  0.19548617  1
  Zn  Zn144  1  0.93481058  0.44402882  0.68526152  1
  Zn  Zn145  1  0.93705981  0.94042603  0.18388262  1
  Zn  Zn146  1  0.94145908  0.93826897  0.68729383  1
  Zn  Zn147  1  0.06058057  0.06480883  0.31221700  1
  Zn  Zn148  1  0.06961468  0.05660965  0.80652321  1
  Zn  Zn149  1  0.05671866  0.55823235  0.31482665  1
  Zn  Zn150  1  0.05872086  0.55992743  0.81540623  1
  Zn  Zn151  1  0.56244542  0.06294624  0.31159586  1
  Zn  Zn152  1  0.56798274  0.05120761  0.81821015  1
  Zn  Zn153  1  0.56083556  0.56205924  0.31255236  1
  Zn  Zn154  1  0.55774649  0.55606558  0.81047000  1
  Zn  Zn155  1  0.43917536  0.18902637  0.43252466  1
  Zn  Zn156  1  0.43882311  0.18314734  0.95903924  1
  Zn  Zn157  1  0.43508627  0.68547814  0.43895002  1
  Zn  Zn158  1  0.44124767  0.69060508  0.93411589  1
  Zn  Zn159  1  0.93853213  0.32357467  0.43081865  1
  Zn  Zn160  1  0.93742497  0.18822606  0.93635144  1
  Zn  Zn161  1  0.94489193  0.68703977  0.43764159  1
  Zn  Zn162  1  0.93616537  0.68067938  0.93936572  1
  Zn  Zn163  1  0.06528619  0.31007648  0.06436522  1
  Zn  Zn164  1  0.07247315  0.31055047  0.56784667  1
  Zn  Zn165  1  0.04899116  0.79921577  0.03117087  1
  Zn  Zn166  1  0.06355423  0.80758202  0.56452886  1
  Zn  Zn167  1  0.56322790  0.31075899  0.06536130  1
  Zn  Zn168  1  0.56205706  0.31216256  0.56282718  1
  Zn  Zn169  1  0.56118528  0.80913427  0.05894187  1
  Zn  Zn170  1  0.56183365  0.80921513  0.56198630  1
  O  O171  1  0.10905384  0.12760531  0.13387876  1
  O  O172  1  0.11863793  0.13083797  0.61564041  1
  O  O173  1  0.11918631  0.61457971  0.12298666  1
  O  O174  1  0.11586430  0.62302078  0.62273852  1
  O  O175  1  0.63293141  0.12752489  0.11320318  1
  O  O176  1  0.61575148  0.12011643  0.61783433  1
  O  O177  1  0.62342222  0.62468791  0.12399597  1
  O  O178  1  0.61533101  0.62501928  0.61988035  1
  O  O179  1  0.37656253  0.38810849  0.37741729  1
  O  O180  1  0.37912815  0.37905078  0.88657129  1
  O  O181  1  0.38208124  0.88213157  0.37806189  1
  O  O182  1  0.38268202  0.86751273  0.88527381  1
  O  O183  1  0.87048683  0.37517554  0.36189346  1
  O  O184  1  0.88725933  0.38245963  0.86875495  1
  O  O185  1  0.88773546  0.88227832  0.38045083  1
  O  O186  1  0.87823828  0.87357500  0.88137031  1
  O  O187  1  0.26056242  0.00887916  0.37839593  1
  O  O188  1  0.25159321  0.00367954  0.86605238  1
  O  O189  1  0.25490440  0.50249281  0.36929138  1
  O  O190  1  0.25540184  0.50358019  0.86665581  1
  O  O191  1  0.75714102  0.00339069  0.36800049  1
  O  O192  1  0.75256029  0.00607209  0.86541710  1
  O  O193  1  0.74998068  0.50342214  0.36422236  1
  O  O194  1  0.76639849  0.48863391  0.87122825  1
  O  O195  1  0.23971862  0.49685631  0.13543198  1
  O  O196  1  0.25316049  0.49969070  0.64021171  1
  O  O197  1  0.24869384  0.98724600  0.11746601  1
  O  O198  1  0.25400740  0.98854976  0.62534819  1
  O  O199  1  0.74316226  0.49793244  0.12006651  1
  O  O200  1  0.74666195  0.48986009  0.63118798  1
  O  O201  1  0.75683544  0.99278681  0.13232960  1
  O  O202  1  0.74643464  0.99011471  0.62746541  1
  O  O203  1  0.01117238  0.37555932  0.25013746  1
  O  O204  1  -0.00393266  0.36500113  0.75071054  1
  O  O205  1  0.00588745  0.87099286  0.25438421  1
  O  O206  1  0.01557074  0.87780850  0.74974546  1
  O  O207  1  0.50805932  0.36912173  0.25164689  1
  O  O208  1  0.50576405  0.37859279  0.75793337  1
  O  O209  1  0.49867091  0.86811003  0.25702708  1
  O  O210  1  0.50980557  0.88079525  0.75602325  1
  O  O211  1  0.49495342  0.13600114  0.25407749  1
  O  O212  1  0.50507886  0.11951303  0.74320095  1
  O  O213  1  0.49251569  0.63242707  0.24680525  1
  O  O214  1  0.48605664  0.61902202  0.74082629  1
  O  O215  1  0.98631143  0.12022603  0.24252218  1
  O  O216  1  0.99520799  0.12835453  0.74415296  1
  O  O217  1  0.99640467  0.63466702  0.24268404  1
  O  O218  1  0.99570154  0.62430150  0.74315984  1
  O  O219  1  0.36947049  0.25843803  0.00650525  1
  O  O220  1  0.37001320  0.25003902  0.50535418  1
  O  O221  1  0.37019588  0.75602474  0.00655990  1
  O  O222  1  0.36884346  0.75434742  0.50998800  1
  O  O223  1  0.86139070  0.24382708  0.00641787  1
  O  O224  1  0.86687423  0.25030476  0.50987729  1
  O  O225  1  0.86761731  0.75507375  0.01093407  1
  O  O226  1  0.87974634  0.76333043  0.50185062  1
  O  O227  1  0.13487391  0.23802387  0.49184762  1
  O  O228  1  0.13478408  0.25253872  0.99295223  1
  O  O229  1  0.13265521  0.73667477  0.50478468  1
  O  O230  1  0.14243641  0.73446044  1.02019432  1
  O  O231  1  0.63347649  0.23912658  0.50676227  1
  O  O232  1  0.63072013  0.24004726  0.99341019  1
  O  O233  1  0.62266563  0.73599854  0.49794089  1
  O  O234  1  0.62615021  0.74683069  0.98776351  1
  O  O235  1  0.49636746  0.25443654  0.14259823  1
  O  O236  1  0.48836974  0.24239956  0.62306025  1
  O  O237  1  0.48885178  0.75032120  0.13075058  1
  O  O238  1  0.49004054  0.73878497  0.62065073  1
  O  O239  1  0.98637833  0.24471557  0.11720328  1
  O  O240  1  0.99465658  0.23988200  0.63147766  1
  O  O241  1  0.99268705  0.74512946  0.12867359  1
  O  O242  1  0.99889974  0.73523867  0.62622923  1
  O  O243  1  0.01154141  0.24230208  0.37946995  1
  O  O244  1  0.00333456  0.25897140  0.86898337  1
  O  O245  1  -0.00256006  0.76079236  0.36208717  1
  O  O246  1  0.01328891  0.75851006  0.92506677  1
  O  O247  1  0.49584192  0.25511120  0.35794753  1
  O  O248  1  0.49946161  0.24647438  0.86920488  1
  O  O249  1  0.49571881  0.75749655  0.36768873  1
  O  O250  1  0.51220964  0.76447556  0.87953054  1
  O  O251  1  0.24713470  0.13206918  0.49046689  1
  O  O252  1  0.26083305  0.13738076  0.99500439  1
  O  O253  1  0.23859710  0.63297148  0.50118099  1
  O  O254  1  0.24423801  0.63124466  0.99889386  1
  O  O255  1  0.74401133  0.13032335  0.49800123  1
  O  O256  1  0.74473217  0.12943620  0.99327377  1
  O  O257  1  0.73496403  0.62718990  0.51115981  1
  O  O258  1  0.74332861  0.61482050  1.01353456  1
  O  O259  1  0.25809473  0.36472243  -0.00055389  1
  O  O260  1  0.25077714  0.36039854  0.49779131  1
  O  O261  1  0.25665446  0.86912488  0.00330134  1
  O  O262  1  0.25217049  0.87123193  0.50744064  1
  O  O263  1  0.74229001  0.36319163  0.00663476  1
  O  O264  1  0.73882666  0.36571962  0.51256102  1
  O  O265  1  0.76119239  0.87908501  0.00510764  1
  O  O266  1  0.76143498  0.87818221  0.50718444  1
  O  O267  1  0.12900929  0.49066264  0.24711654  1
  O  O268  1  0.14039223  0.50870074  0.75064156  1
  O  O269  1  0.12037478  0.98895993  0.24543144  1
  O  O270  1  0.14065500  0.98582424  0.74935207  1
  O  O271  1  0.63089062  0.49622172  0.24852740  1
  O  O272  1  0.62698456  0.48541556  0.75139494  1
  O  O273  1  0.63856103  0.99932311  0.25349937  1
  O  O274  1  0.63291461  0.98911479  0.74209859  1
  O  O275  1  0.38220526  0.00713078  0.26097383  1
  O  O276  1  0.35482449  -0.00654814  0.74633376  1
  O  O277  1  0.36739393  0.50254260  0.25538118  1
  O  O278  1  0.36838465  0.50856852  0.75653193  1
  O  O279  1  0.86621405  0.00678490  0.25299998  1
  O  O280  1  0.87101257  0.00844676  0.74926601  1
  O  O281  1  0.86208245  0.51345329  0.24856190  1
  O  O282  1  0.87350004  0.51059349  0.75952744  1
  O  O283  1  0.12694262  0.36736813  0.36455433  1
  O  O284  1  0.11099864  0.36647056  0.87801607  1
  O  O285  1  0.11561970  0.87888171  0.36602227  1
  O  O286  1  0.12368294  0.87420259  0.86364808  1
  O  O287  1  0.62590649  0.37998705  0.36177167  1
  O  O288  1  0.61608679  0.36330157  0.86887297  1
  O  O289  1  0.60931923  0.87564605  0.37513903  1
  O  O290  1  0.61984996  0.86916794  0.86563796  1
  O  O291  1  0.37198327  0.12156275  0.13950776  1
  O  O292  1  0.38953012  0.12877573  0.62127967  1
  O  O293  1  0.37406537  0.63352691  0.13142139  1
  O  O294  1  0.37925856  0.63345385  0.62979885  1
  O  O295  1  0.88210822  0.13278761  0.13078749  1
  O  O296  1  0.88169120  0.13273387  0.63170287  1
  O  O297  1  0.88409334  0.63352601  0.13343378  1
  O  O298  1  0.88466113  0.62867240  0.64177864  1
  O  O299  1  0.25205857  0.25228799  0.11762473  1
  O  O300  1  0.26414237  0.24297472  0.61696273  1
  O  O301  1  0.26213587  0.75840531  0.12019365  1
  O  O302  1  0.25615823  0.76004760  0.61507118  1
  O  O303  1  0.75636662  0.25711862  0.11678059  1
  O  O304  1  0.75872609  0.25375222  0.61516862  1
  O  O305  1  0.75780802  0.75916598  0.12263083  1
  O  O306  1  0.75504766  0.76222499  0.62006257  1
  O  O307  1  0.24791930  0.24174801  0.38125432  1
  O  O308  1  0.23968940  0.24583475  0.88100302  1
  O  O309  1  0.25782682  0.75037071  0.39076683  1
  O  O310  1  0.25318857  0.74873462  0.88775537  1
  O  O311  1  0.75159649  0.24257413  0.38808233  1
  O  O312  1  0.74666577  0.24551234  0.88058547  1
  O  O313  1  0.74583971  0.76169460  0.37840698  1
  O  O314  1  0.73113018  0.75066194  0.88129477  1
  O  O315  1  -0.00710633  0.11331347  0.00733109  1
  O  O316  1  0.01168543  0.11967195  0.50999413  1
  O  O317  1  0.00786559  0.62259745  0.01737225  1
  O  O318  1  0.01228885  0.62899600  0.51148576  1
  O  O319  1  0.51023004  0.10788378  0.00160144  1
  O  O320  1  0.50763761  0.12182904  0.50430164  1
  O  O321  1  0.49412219  0.61342367  0.00187241  1
  O  O322  1  0.50528510  0.61765343  0.50658079  1
  O  O323  1  0.50100257  0.38857313  0.49934883  1
  O  O324  1  0.49309747  0.37768053  0.99462478  1
  O  O325  1  0.49301775  0.87807838  0.49398677  1
  O  O326  1  0.49421450  0.88121864  0.99511176  1
  O  O327  1  1.00334326  0.37083833  0.50643653  1
  O  O328  1  0.99874403  0.37086705  0.98963607  1
  O  O329  1  0.99923981  0.87867719  0.49346608  1
  O  O330  1  0.98427581  0.89395466  1.01152877  1
  O  O331  1  0.49074291  0.49994185  0.38352828  1
  O  O332  1  0.49215446  0.49279934  0.88525142  1
  O  O333  1  0.49344998  0.99376807  0.37978721  1
  O  O334  1  0.50495613  0.98372577  0.88619801  1
  O  O335  1  0.99083631  0.50956972  0.38708620  1
  O  O336  1  0.99449855  0.48280095  0.87086083  1
  O  O337  1  0.99542427  0.99450073  0.38088269  1
  O  O338  1  0.99975367  1.00405783  0.88748037  1
  O  O339  1  -0.00074835  0.01126185  0.11530610  1
  O  O340  1  -0.00326423  0.01343241  0.61865976  1
  O  O341  1  0.00716291  0.50746700  0.13552848  1
  O  O342  1  0.00125259  0.51504571  0.62320711  1
  O  O343  1  0.50410688  -0.01094875  0.11256100  1
  O  O344  1  0.50396288  0.00537620  0.61856148  1
  O  O345  1  0.49817051  0.49938355  0.11038223  1
  O  O346  1  0.49796731  0.51135244  0.61724586  1
  O  O347  1  0.24494020  0.38566944  0.25016214  1
  O  O348  1  0.25702577  0.39297979  0.75311661  1
  O  O349  1  0.24053673  0.86941757  0.24004248  1
  O  O350  1  0.24444515  0.88250992  0.74051717  1
  O  O351  1  0.74015407  0.38842936  0.24037510  1
  O  O352  1  0.74064229  0.37104892  0.73897252  1
  O  O353  1  0.74936204  0.88461350  0.23923217  1
  O  O354  1  0.74499631  0.87808614  0.74128899  1
  O  O355  1  0.25814227  0.12968070  0.26097962  1
  O  O356  1  0.24582092  0.11018292  0.75125675  1
  O  O357  1  0.25235070  0.61503044  0.25124857  1
  O  O358  1  0.26027932  0.61879841  0.75020966  1
  O  O359  1  0.75537846  0.11960723  0.25369687  1
  O  O360  1  0.75826208  0.12118113  0.75003158  1
  O  O361  1  0.75780114  0.61899209  0.24286754  1
  O  O362  1  0.76326943  0.62297063  0.74727461  1
  O  O363  1  0.36909674  0.11806611  0.36763588  1
  O  O364  1  0.38311584  0.13658026  0.86564159  1
  O  O365  1  0.37141279  0.61470888  0.36880595  1
  O  O366  1  0.37436200  0.62269110  0.86608441  1
  O  O367  1  0.86659908  0.11656468  0.36406459  1
  O  O368  1  0.87026198  0.12675928  0.86089996  1
  O  O369  1  0.87592455  0.63471479  0.36173168  1
  O  O370  1  0.88446724  0.61117548  0.86458702  1
  O  O371  1  0.12448227  0.37962552  0.13744754  1
  O  O372  1  0.13708324  0.37346988  0.63185770  1
  O  O373  1  0.13382022  0.87636735  0.13060338  1
  O  O374  1  0.13605283  0.87547596  0.62652251  1
  O  O375  1  0.63690990  0.36960282  0.13450078  1
  O  O376  1  0.62890083  0.37543684  0.63314279  1
  O  O377  1  0.63851494  0.86907407  0.12259522  1
  O  O378  1  0.63159357  0.87657610  0.62891096  1
  O  O379  1  0.12861255  0.26444038  0.25869284  1
  O  O380  1  0.11502606  0.24599122  0.75945765  1
  O  O381  1  0.11477545  0.75863823  0.24150598  1
  O  O382  1  0.13681839  0.76981087  0.74700312  1
  O  O383  1  0.61577985  0.25745720  0.24941236  1
  O  O384  1  0.62677495  0.25866613  0.75520913  1
  O  O385  1  0.60986244  0.75419641  0.25190744  1
  O  O386  1  0.62915257  0.76008173  0.75551863  1
  O  O387  1  0.38272698  0.24214360  0.24873175  1
  O  O388  1  0.37261939  0.25221645  0.74342014  1
  O  O389  1  0.38180038  0.74717811  0.24346903  1
  O  O390  1  0.36759631  0.74454989  0.73708860  1
  O  O391  1  0.86385446  0.23847635  0.23637961  1
  O  O392  1  0.88340971  0.24216437  0.74145223  1
  O  O393  1  0.88341622  0.74909249  0.23840045  1
  O  O394  1  0.87519475  0.73595266  0.75791246  1
  O  O395  1  0.38025550  0.50194939  0.49337613  1
  O  O396  1  0.37844888  0.49386750  0.99533544  1
  O  O397  1  0.38107717  0.99501599  0.48999733  1
  O  O398  1  0.39004517  0.99127991  1.00116772  1
  O  O399  1  0.87151140  0.49964695  0.49746903  1
  O  O400  1  0.87993038  0.50029989  0.98018800  1
  O  O401  1  0.88283761  0.99076397  0.49490101  1
  O  O402  1  0.88139535  0.99459945  0.99371409  1
  O  O403  1  0.11022419  -0.00372162  0.00260584  1
  O  O404  1  0.12315240  0.01324446  0.49362092  1
  O  O405  1  0.13272871  0.50451425  0.01477448  1
  O  O406  1  0.12914113  0.51438615  0.50695651  1
  O  O407  1  0.61589658  0.00498582  -0.00250090  1
  O  O408  1  0.62035670  0.00529063  0.50641177  1
  O  O409  1  0.61967215  0.50138963  -0.00317696  1
  O  O410  1  0.61771578  0.51124345  0.50318391  1
  O  O411  1  0.37113116  0.37701052  0.11368280  1
  O  O412  1  0.37139078  0.36505591  0.62113422  1
  O  O413  1  0.36865325  0.86883628  0.11492789  1
  O  O414  1  0.36779714  0.86882837  0.61988984  1
  O  O415  1  0.86018268  0.36768212  0.13205596  1
  O  O416  1  0.86488566  0.36479455  0.63408422  1
  O  O417  1  0.86725234  0.86908022  0.11938455  1
  O  O418  1  0.87070296  0.87444260  0.61835008  1
  O  O419  1  0.13268708  0.13109504  0.37716583  1
  O  O420  1  0.12240142  0.13612967  0.87468981  1
  O  O421  1  0.12515909  0.62501274  0.38902633  1
  O  O422  1  0.12306224  0.61767361  0.89198825  1
  O  O423  1  0.63124372  0.11799570  0.38842031  1
  O  O424  1  0.63229770  0.12779746  0.87949170  1
  O  O425  1  0.61938396  0.62661060  0.39068456  1
  O  O426  1  0.61437502  0.63933385  0.86597526  1
