# generated using pymatgen
data_V85Zn86O256
_symmetry_space_group_name_H-M   'P 1'
_cell_length_a   16.92876867
_cell_length_b   16.92051698
_cell_length_c   16.91991606
_cell_angle_alpha   90.02019844
_cell_angle_beta   90.09205427
_cell_angle_gamma   89.97301400
_symmetry_Int_Tables_number   1
_chemical_formula_structural   V85Zn86O256
_chemical_formula_sum   'V85 Zn86 O256'
_cell_volume   4846.59318166
_cell_formula_units_Z   1
loop_
 _symmetry_equiv_pos_site_id
 _symmetry_equiv_pos_as_xyz
  1  'x, y, z'
loop_
 _atom_site_type_symbol
 _atom_site_label
 _atom_site_symmetry_multiplicity
 _atom_site_fract_x
 _atom_site_fract_y
 _atom_site_fract_z
 _atom_site_occupancy
  V  V0  1  0.25289188  0.12510209  0.37603381  1
  V  V1  1  0.87414017  0.50761706  0.37420553  1
  V  V2  1  0.87394513  0.37284581  0.00128413  1
  V  V3  1  0.12400250  0.37796937  0.74617054  1
  V  V4  1  0.50302959  0.36682374  0.37547510  1
  V  V5  1  0.50088408  0.50361763  0.49895437  1
  V  V6  1  0.61559736  0.74626050  0.86894048  1
  V  V7  1  0.88544133  0.87165525  -0.00104823  1
  V  V8  1  0.75511434  0.75022436  0.00315008  1
  V  V9  1  0.87207065  0.75277770  0.62130609  1
  V  V10  1  -0.01369895  -0.00821822  0.49898755  1
  V  V11  1  0.62467003  0.87694777  0.74823728  1
  V  V12  1  0.74948459  0.62487546  0.87759642  1
  V  V13  1  0.87426804  0.63616818  0.24451691  1
  V  V14  1  0.00196407  0.50124976  0.50093902  1
  V  V15  1  0.38303301  0.74948867  0.63110577  1
  V  V16  1  0.12461649  0.62313488  0.50211073  1
  V  V17  1  0.00573847  0.49906322  0.01353405  1
  V  V18  1  -0.00286726  0.12420751  0.62443508  1
  V  V19  1  0.25111872  0.75386345  0.50122055  1
  V  V20  1  0.12434817  0.12012637  0.50095625  1
  V  V21  1  0.37740031  0.87663304  0.50062608  1
  V  V22  1  0.38455299  0.13066168  0.24761384  1
  V  V23  1  0.74974645  0.50382734  0.25392157  1
  V  V24  1  0.11946873  0.24826315  0.36782721  1
  V  V25  1  0.62036360  0.00307609  0.10996713  1
  V  V26  1  0.87781083  0.24299850  0.13164078  1
  V  V27  1  0.00184299  0.62321746  0.62563245  1
  V  V28  1  -0.01552092  0.87534558  0.37083682  1
  V  V29  1  0.75385197  0.87620254  0.12361765  1
  V  V30  1  0.37533241  0.37307596  0.00491934  1
  V  V31  1  0.87914579  -0.00607763  0.87278931  1
  V  V32  1  0.74491477  0.11779369  0.87698945  1
  V  V33  1  0.87252657  0.36786615  0.49637578  1
  V  V34  1  0.37812448  0.62468038  0.24390580  1
  V  V35  1  0.74937691  0.75370695  0.48804079  1
  V  V36  1  0.24521149  0.50482083  0.74556210  1
  V  V37  1  0.24549515  -0.00099485  0.24336258  1
  V  V38  1  0.62529340  0.14243373  0.50770880  1
  V  V39  1  0.37504325  0.50099740  0.37362031  1
  V  V40  1  0.37373573  0.37606474  0.50086597  1
  V  V41  1  0.75197029  0.87891770  0.62723541  1
  V  V42  1  -0.00308816  0.24890727  0.74961196  1
  V  V43  1  0.50569121  0.74480520  0.25193471  1
  V  V44  1  0.50855623  0.87287312  0.37601239  1
  V  V45  1  0.73822489  0.13349860  0.37672272  1
  V  V46  1  0.38019550  0.00212952  0.37501536  1
  V  V47  1  0.12063020  0.75694598  0.37038406  1
  V  V48  1  0.50037778  0.12860213  0.10670281  1
  V  V49  1  0.63119273  0.62811532  0.48562575  1
  V  V50  1  0.62206898  0.62727464  0.01013867  1
  V  V51  1  0.87646169  0.50004914  0.87714475  1
  V  V52  1  0.00195800  0.00994252  0.01323383  1
  V  V53  1  0.38041239  0.75309293  0.12509099  1
  V  V54  1  0.75146546  0.37145560  0.62056127  1
  V  V55  1  0.49918157  0.88197648  0.87769730  1
  V  V56  1  0.24315428  0.37966253  0.62324653  1
  V  V57  1  0.62435799  0.87699042  0.25008965  1
  V  V58  1  -0.00211260  0.75553494  0.75424209  1
  V  V59  1  0.24475201  0.11363887  0.86523432  1
  V  V60  1  0.12935199  0.87971093  0.75395178  1
  V  V61  1  0.62515049  0.50443395  0.62700260  1
  V  V62  1  0.25325830  0.24737519  -0.00006860  1
  V  V63  1  0.24509006  0.50053101  0.24528075  1
  V  V64  1  0.74798853  0.37498679  0.12544383  1
  V  V65  1  0.49946426  0.50439189  0.00674541  1
  V  V66  1  0.38170676  0.11612989  0.74363930  1
  V  V67  1  0.24854154  0.25096710  0.50043000  1
  V  V68  1  0.87678959  0.11943416  0.25925161  1
  V  V69  1  0.75180111  0.49949287  0.75069807  1
  V  V70  1  0.24956291  0.37733002  0.12366283  1
  V  V71  1  0.00408309  0.64215666  0.12967025  1
  V  V72  1  -0.00088984  0.37678838  0.87428810  1
  V  V73  1  0.11982711  0.37505922  0.24303257  1
  V  V74  1  0.50185783  0.37258581  0.87243958  1
  V  V75  1  0.12050012  0.74905045  0.87850233  1
  V  V76  1  0.25181569  0.75148686  0.00057855  1
  V  V77  1  0.24937869  0.62666409  0.37324810  1
  V  V78  1  0.86652889  0.11918131  0.74895790  1
  V  V79  1  0.74432349  0.24245562  -0.00079519  1
  V  V80  1  0.37304503  0.50134763  0.87367529  1
  V  V81  1  0.62700363  0.36689146  0.25459068  1
  V  V82  1  0.12453160  0.24833645  0.87564527  1
  V  V83  1  0.50628756  0.00502935  0.51183702  1
  V  V84  1  -0.00014899  0.37447443  0.37130563  1
  Zn  Zn85  1  0.62107043  0.50350527  0.12901780  1
  Zn  Zn86  1  0.11581959  0.87796815  0.24629214  1
  Zn  Zn87  1  0.50617720  0.63018012  0.63161462  1
  Zn  Zn88  1  0.38083514  0.62789616  0.75232367  1
  Zn  Zn89  1  0.24743358  0.87969120  0.12238869  1
  Zn  Zn90  1  0.12875256  0.62085388  0.00640561  1
  Zn  Zn91  1  0.50295922  0.24391187  0.74420317  1
  Zn  Zn92  1  0.03970685  0.17597431  0.18058755  1
  Zn  Zn93  1  0.63033846  0.00622550  0.62917255  1
  Zn  Zn94  1  0.62167125  0.24339522  0.87582902  1
  Zn  Zn95  1  0.37584571  0.24707956  0.62772574  1
  Zn  Zn96  1  0.74900075  -0.00024632  0.25807605  1
  Zn  Zn97  1  0.86991598  0.24655912  0.62019559  1
  Zn  Zn98  1  0.37369017  -0.00148410  0.87733516  1
  Zn  Zn99  1  0.87669111  0.62627775  0.75121489  1
  Zn  Zn100  1  0.24865529  0.62549834  0.87505132  1
  Zn  Zn101  1  0.38269107  0.88288455  0.00653054  1
  Zn  Zn102  1  0.62489822  0.37294976  0.75175895  1
  Zn  Zn103  1  0.12764993  0.11821704  0.01538439  1
  Zn  Zn104  1  0.25357112  0.88108995  0.63211219  1
  Zn  Zn105  1  0.50342057  0.24726335  0.24654693  1
  Zn  Zn106  1  0.12731927  -0.00034228  0.63104602  1
  Zn  Zn107  1  0.20683658  0.19094027  0.18727845  1
  Zn  Zn108  1  0.18813533  0.18859176  0.68679645  1
  Zn  Zn109  1  0.18774391  0.69295288  0.18534307  1
  Zn  Zn110  1  0.18852059  0.69114190  0.68692856  1
  Zn  Zn111  1  0.68827550  0.18350083  0.18574756  1
  Zn  Zn112  1  0.68539751  0.19143349  0.69073137  1
  Zn  Zn113  1  0.69049218  0.69105182  0.18936517  1
  Zn  Zn114  1  0.68911840  0.68847301  0.68751931  1
  Zn  Zn115  1  0.31288771  0.31151934  0.31253377  1
  Zn  Zn116  1  0.31394285  0.30966452  0.81104702  1
  Zn  Zn117  1  0.31627271  0.81429530  0.31428042  1
  Zn  Zn118  1  0.31074719  0.81185208  0.81570472  1
  Zn  Zn119  1  0.81217012  0.30926135  0.31304945  1
  Zn  Zn120  1  0.81122242  0.30894223  0.81144094  1
  Zn  Zn121  1  0.80930269  0.81428645  0.31146772  1
  Zn  Zn122  1  0.81007765  0.81223651  0.81303556  1
  Zn  Zn123  1  0.18522410  0.43959278  0.43356896  1
  Zn  Zn124  1  0.18615099  0.43851966  0.93525447  1
  Zn  Zn125  1  0.18721709  0.93850195  0.43626100  1
  Zn  Zn126  1  0.18142959  0.93231422  0.94076392  1
  Zn  Zn127  1  0.68826379  0.43878765  0.43658969  1
  Zn  Zn128  1  0.68543913  0.43745291  0.93983597  1
  Zn  Zn129  1  0.69224697  0.94358433  0.43899163  1
  Zn  Zn130  1  0.69134020  0.93464618  0.93341452  1
  Zn  Zn131  1  0.31890104  0.06390248  0.05829380  1
  Zn  Zn132  1  0.31022234  0.05752677  0.56497660  1
  Zn  Zn133  1  0.31237039  0.56400981  0.06335965  1
  Zn  Zn134  1  0.31122295  0.56395999  0.56441191  1
  Zn  Zn135  1  0.81340240  0.05947452  0.06551435  1
  Zn  Zn136  1  0.80662093  0.06506147  0.55712950  1
  Zn  Zn137  1  0.81496865  0.56248805  0.06631108  1
  Zn  Zn138  1  0.81285079  0.56542784  0.56126663  1
  Zn  Zn139  1  0.43702502  0.43528776  0.18739816  1
  Zn  Zn140  1  0.43511506  0.43779399  0.68576045  1
  Zn  Zn141  1  0.43936835  0.94099919  0.18586046  1
  Zn  Zn142  1  0.43904617  0.93376998  0.69481611  1
  Zn  Zn143  1  0.93402050  0.43597376  0.18916295  1
  Zn  Zn144  1  0.93627488  0.43955160  0.68562547  1
  Zn  Zn145  1  0.93379433  0.93902566  0.18747315  1
  Zn  Zn146  1  0.93826531  0.93605612  0.68613023  1
  Zn  Zn147  1  0.06100441  0.05596270  0.31967091  1
  Zn  Zn148  1  0.05528866  0.06088576  0.81850635  1
  Zn  Zn149  1  0.06131839  0.56364682  0.31030567  1
  Zn  Zn150  1  0.06316330  0.56532802  0.81446486  1
  Zn  Zn151  1  0.56660000  0.06129200  0.31497690  1
  Zn  Zn152  1  0.56506496  0.05734468  0.80999048  1
  Zn  Zn153  1  0.56221280  0.55837005  0.31105857  1
  Zn  Zn154  1  0.56025248  0.56229707  0.81399436  1
  Zn  Zn155  1  0.44089054  0.18808239  0.44278575  1
  Zn  Zn156  1  0.43091775  0.18687612  0.92899915  1
  Zn  Zn157  1  0.44074775  0.68795325  0.43750058  1
  Zn  Zn158  1  0.43785721  0.68722286  0.93838513  1
  Zn  Zn159  1  0.93698875  0.18496429  0.43247637  1
  Zn  Zn160  1  0.93282791  0.18480957  0.93843526  1
  Zn  Zn161  1  0.93483969  0.69120469  0.43526194  1
  Zn  Zn162  1  0.93878002  0.68545212  0.94068036  1
  Zn  Zn163  1  0.06447163  0.31258584  0.05977600  1
  Zn  Zn164  1  0.06065533  0.31003983  0.55968695  1
  Zn  Zn165  1  0.06722395  0.81744290  0.06605996  1
  Zn  Zn166  1  0.06303098  0.81205107  0.56437703  1
  Zn  Zn167  1  0.56320571  0.31124732  0.06167218  1
  Zn  Zn168  1  0.55965876  0.31718551  0.56807205  1
  Zn  Zn169  1  0.56435994  0.81134328  0.06300179  1
  Zn  Zn170  1  0.56673892  0.81334198  0.56060105  1
  O  O171  1  0.12793076  0.13976601  0.12636571  1
  O  O172  1  0.11559464  0.12577686  0.61747517  1
  O  O173  1  0.10943505  0.62894031  0.12752190  1
  O  O174  1  0.11752599  0.63472560  0.61075710  1
  O  O175  1  0.61579955  0.11209724  0.12580320  1
  O  O176  1  0.63365528  0.12437035  0.61257763  1
  O  O177  1  0.62927914  0.62467483  0.11399847  1
  O  O178  1  0.62801439  0.61438222  0.61915101  1
  O  O179  1  0.37959599  0.38146738  0.37992205  1
  O  O180  1  0.37782186  0.38425428  0.88397601  1
  O  O181  1  0.38653339  0.88387646  0.37990255  1
  O  O182  1  0.39101744  0.87189952  0.87033949  1
  O  O183  1  0.87880383  0.38379201  0.37869890  1
  O  O184  1  0.88034387  0.37911328  0.88002819  1
  O  O185  1  0.88550926  0.87095203  0.37695764  1
  O  O186  1  0.86833200  0.88222988  0.88524440  1
  O  O187  1  0.26269380  0.00717116  0.37274518  1
  O  O188  1  0.23998218  0.01291834  0.87695849  1
  O  O189  1  0.25631692  0.50702162  0.36783849  1
  O  O190  1  0.25733764  0.50098570  0.86823455  1
  O  O191  1  0.74681289  0.01843156  0.37403155  1
  O  O192  1  0.76432756  0.00698848  0.88179781  1
  O  O193  1  0.75886606  0.49738126  0.36250841  1
  O  O194  1  0.75572803  0.50256497  0.86988726  1
  O  O195  1  0.25330763  0.48747656  0.12894691  1
  O  O196  1  0.24886798  0.49380873  0.63307980  1
  O  O197  1  0.25729409  1.00377077  0.14122259  1
  O  O198  1  0.23855557  0.99191577  0.61626459  1
  O  O199  1  0.75075268  0.49106383  0.13515113  1
  O  O200  1  0.74751738  0.49617664  0.63303147  1
  O  O201  1  0.73704513  0.99397156  0.12798082  1
  O  O202  1  0.75258765  0.98240167  0.61625369  1
  O  O203  1  0.00968351  0.37979419  0.25590326  1
  O  O204  1  0.00353899  0.37043509  0.75285740  1
  O  O205  1  -0.00290229  0.88327236  0.26607131  1
  O  O206  1  0.00677290  0.86025396  0.74531281  1
  O  O207  1  0.50805860  0.37393896  0.25590638  1
  O  O208  1  0.49770198  0.38288021  0.76570236  1
  O  O209  1  0.50562270  0.86920261  0.25631031  1
  O  O210  1  0.51086729  0.87090860  0.76272796  1
  O  O211  1  0.49692306  0.12643725  0.24823535  1
  O  O212  1  0.48541241  0.12352658  0.75721576  1
  O  O213  1  0.49420211  0.63504850  0.25606625  1
  O  O214  1  0.49411570  0.61692681  0.74412341  1
  O  O215  1  0.98495614  0.12261376  0.26320845  1
  O  O216  1  0.99273996  0.12815957  0.74152561  1
  O  O217  1  0.98996741  0.62115342  0.23798149  1
  O  O218  1  1.00172647  0.63376304  0.74074120  1
  O  O219  1  0.36123497  0.25940228  -0.01031752  1
  O  O220  1  0.36515820  0.25758363  0.49871346  1
  O  O221  1  0.37076220  0.75156546  0.00886112  1
  O  O222  1  0.36903368  0.75527343  0.50448698  1
  O  O223  1  0.86629110  0.25535604  0.00707145  1
  O  O224  1  0.88098040  0.26431009  0.49883842  1
  O  O225  1  0.86583594  0.75760272  -0.00558571  1
  O  O226  1  0.85849528  0.74253945  0.50639085  1
  O  O227  1  0.12874354  0.23939556  0.49272386  1
  O  O228  1  0.13340620  0.25227285  0.98748092  1
  O  O229  1  0.13367988  0.74703754  0.49241917  1
  O  O230  1  0.13155174  0.74854140  0.99366820  1
  O  O231  1  0.62010407  0.24110909  0.50370462  1
  O  O232  1  0.64057269  0.25380034  0.99752505  1
  O  O233  1  0.63439251  0.73607810  0.50390546  1
  O  O234  1  0.63157803  0.74280302  0.99316383  1
  O  O235  1  0.50784233  0.23311508  0.12602179  1
  O  O236  1  0.48729506  0.26748202  0.63328051  1
  O  O237  1  0.48966813  0.75437028  0.13544114  1
  O  O238  1  0.48607699  0.75077430  0.61770078  1
  O  O239  1  0.98312796  0.25732614  0.12082331  1
  O  O240  1  0.99674452  0.23774189  0.62763391  1
  O  O241  1  0.99634714  0.74000634  0.12215593  1
  O  O242  1  0.99181918  0.74173847  0.62780942  1
  O  O243  1  0.01281535  0.25673219  0.38033525  1
  O  O244  1  0.00557032  0.25418676  0.87198335  1
  O  O245  1  0.00657789  0.76680263  0.38534656  1
  O  O246  1  0.00612004  0.74266467  0.86583264  1
  O  O247  1  0.49544143  0.26426618  0.37248237  1
  O  O248  1  0.50067816  0.25929121  0.87379687  1
  O  O249  1  0.49566302  0.76105558  0.36492152  1
  O  O250  1  0.51232681  0.75213422  0.87620307  1
  O  O251  1  0.24255972  0.12979974  0.49469409  1
  O  O252  1  0.24744479  0.13365505  0.99040994  1
  O  O253  1  0.24264630  0.63134458  0.49416562  1
  O  O254  1  0.24833306  0.63620248  1.00118960  1
  O  O255  1  0.73631733  0.12697843  0.49108948  1
  O  O256  1  0.75882107  0.13198232  0.99104957  1
  O  O257  1  0.73886657  0.63376298  0.50168601  1
  O  O258  1  0.74591136  0.63075196  0.99828715  1
  O  O259  1  0.25482755  0.37194581  0.00422981  1
  O  O260  1  0.25019712  0.37251128  0.50460447  1
  O  O261  1  0.25207940  0.86203183  0.00009616  1
  O  O262  1  0.25934066  0.86696851  0.49467504  1
  O  O263  1  0.75526753  0.37062748  0.00839205  1
  O  O264  1  0.76098821  0.38467545  0.50761685  1
  O  O265  1  0.75664712  0.86759984  0.00552202  1
  O  O266  1  0.73938408  0.85916062  0.50729585  1
  O  O267  1  0.13456795  0.48936785  0.25694296  1
  O  O268  1  0.13636726  0.49375218  0.75667708  1
  O  O269  1  0.14304378  1.00207179  0.25959197  1
  O  O270  1  0.11147361  0.98203026  0.75390897  1
  O  O271  1  0.63336486  0.49310992  0.24735544  1
  O  O272  1  0.63410472  0.49690781  0.74336880  1
  O  O273  1  0.62394918  0.98747266  0.24197590  1
  O  O274  1  0.62577460  0.98471240  0.74551171  1
  O  O275  1  0.37301134  0.00880581  0.25927791  1
  O  O276  1  0.37533690  0.01046314  0.75670290  1
  O  O277  1  0.36933944  0.50683530  0.25271919  1
  O  O278  1  0.36183144  0.49787829  0.75781012  1
  O  O279  1  0.86836297  0.01623319  0.24511949  1
  O  O280  1  0.88270427  0.00716320  0.75822350  1
  O  O281  1  0.86826771  0.50604476  0.25649390  1
  O  O282  1  0.86889871  0.50267782  0.75773764  1
  O  O283  1  0.12276435  0.36676701  0.36439199  1
  O  O284  1  0.11810509  0.36777491  0.86795538  1
  O  O285  1  0.11623253  0.87052429  0.37242190  1
  O  O286  1  0.12441276  0.86129980  0.86523608  1
  O  O287  1  0.61562453  0.38255228  0.36690569  1
  O  O288  1  0.61390539  0.37522224  0.87585649  1
  O  O289  1  0.61562279  0.88104800  0.36741108  1
  O  O290  1  0.62029294  0.86650367  0.86914404  1
  O  O291  1  0.39314973  0.11904584  0.13246320  1
  O  O292  1  0.36763092  0.12441539  0.64063111  1
  O  O293  1  0.37424849  0.63056032  0.13851860  1
  O  O294  1  0.37632344  0.64041769  0.62087356  1
  O  O295  1  0.86749776  0.13282421  0.13992462  1
  O  O296  1  0.87865659  0.12472412  0.63000756  1
  O  O297  1  0.88501775  0.62189498  0.13739725  1
  O  O298  1  0.88189424  0.63525600  0.62681439  1
  O  O299  1  0.25380916  0.26526780  0.11263633  1
  O  O300  1  0.25111295  0.25899777  0.61723688  1
  O  O301  1  0.26426322  0.74964256  0.12014201  1
  O  O302  1  0.25762144  0.75394313  0.61243325  1
  O  O303  1  0.75658999  0.25494901  0.11895748  1
  O  O304  1  0.75207760  0.26770186  0.63002617  1
  O  O305  1  0.74342922  0.76039708  0.11192999  1
  O  O306  1  0.75703508  0.75460960  0.61812790  1
  O  O307  1  0.23999463  0.24514458  0.37957675  1
  O  O308  1  0.24020002  0.24437597  0.87890980  1
  O  O309  1  0.24715792  0.74577961  0.38396879  1
  O  O310  1  0.24362614  0.74628167  0.88343199  1
  O  O311  1  0.75207998  0.23446674  0.37437813  1
  O  O312  1  0.75213381  0.23974484  0.88338559  1
  O  O313  1  0.74976784  0.75288018  0.38894390  1
  O  O314  1  0.74174994  0.74429837  0.88505474  1
  O  O315  1  0.00051933  0.11455883  0.00079264  1
  O  O316  1  0.00381477  0.11769153  0.50453341  1
  O  O317  1  -0.00223659  0.61753672  0.01624018  1
  O  O318  1  0.00565007  0.62333925  0.50483744  1
  O  O319  1  0.49536515  0.12946563  0.00787250  1
  O  O320  1  0.51509308  0.11847107  0.49616637  1
  O  O321  1  0.50948046  0.61662505  -0.00363253  1
  O  O322  1  0.51330222  0.62128637  0.50238994  1
  O  O323  1  0.49598327  0.38443013  0.49153574  1
  O  O324  1  0.49241307  0.37907495  0.99381090  1
  O  O325  1  0.49845822  0.88154175  0.49231860  1
  O  O326  1  0.50190479  0.86529808  0.98239670  1
  O  O327  1  0.99460536  0.38273097  0.49422337  1
  O  O328  1  0.99476989  0.38188469  0.99464413  1
  O  O329  1  1.00313475  0.88702668  0.49692014  1
  O  O330  1  0.98826981  0.88039412  1.00585741  1
  O  O331  1  0.49267585  0.49308759  0.37928518  1
  O  O332  1  0.49230989  0.49323582  0.88677847  1
  O  O333  1  0.49427581  0.99394485  0.38133564  1
  O  O334  1  0.50338206  0.98432402  0.87587194  1
  O  O335  1  0.99292345  0.49433582  0.37907799  1
  O  O336  1  0.99219543  0.49670058  0.88070649  1
  O  O337  1  0.99918302  0.98770933  0.38887218  1
  O  O338  1  0.98452005  1.00262685  0.88767031  1
  O  O339  1  -0.00529890  0.00201662  0.11265747  1
  O  O340  1  0.00435548  0.00742446  0.61502650  1
  O  O341  1  -0.00467614  0.50041319  0.11568426  1
  O  O342  1  -0.00478324  0.51576578  0.61999408  1
  O  O343  1  0.51238142  0.00913296  0.12487399  1
  O  O344  1  0.50045853  -0.00641785  0.61373300  1
  O  O345  1  0.50066102  0.49450638  0.11136088  1
  O  O346  1  0.50991503  0.49799547  0.61611630  1
  O  O347  1  0.24567178  0.37821926  0.24146838  1
  O  O348  1  0.24478999  0.37993751  0.74153437  1
  O  O349  1  0.25604183  0.89361911  0.25563583  1
  O  O350  1  0.23351829  0.87008587  0.75180157  1
  O  O351  1  0.74568566  0.38129329  0.24508621  1
  O  O352  1  0.75247161  0.38649920  0.74383912  1
  O  O353  1  0.74245494  0.87560334  0.24194374  1
  O  O354  1  0.74186785  0.86813430  0.73866597  1
  O  O355  1  0.26219275  0.11629825  0.25807485  1
  O  O356  1  0.25170702  0.12621436  0.76112856  1
  O  O357  1  0.25659399  0.62081971  0.25408093  1
  O  O358  1  0.25338679  0.61720893  0.74956058  1
  O  O359  1  0.75310342  0.12402920  0.26044045  1
  O  O360  1  0.76177174  0.12777786  0.75536689  1
  O  O361  1  0.76252008  0.61773993  0.24291076  1
  O  O362  1  0.75117496  0.61344013  0.75622426  1
  O  O363  1  0.37543831  0.11831501  0.37113030  1
  O  O364  1  0.35861248  0.12237787  0.86526983  1
  O  O365  1  0.37054974  0.62189950  0.36542418  1
  O  O366  1  0.37298617  0.61220369  0.87576730  1
  O  O367  1  0.86414012  0.12822712  0.36479129  1
  O  O368  1  0.86843922  0.11771591  0.86651106  1
  O  O369  1  0.88378779  0.61475234  0.36199078  1
  O  O370  1  0.86811609  0.61676955  0.87581669  1
  O  O371  1  0.13211852  0.37034333  0.13536797  1
  O  O372  1  0.13421644  0.37059212  0.62820135  1
  O  O373  1  0.13518971  0.86774866  0.13650620  1
  O  O374  1  0.12543238  0.87070172  0.64171198  1
  O  O375  1  0.63570356  0.37729805  0.13007211  1
  O  O376  1  0.63535839  0.38986827  0.62274335  1
  O  O377  1  0.63026811  0.88374879  0.12908478  1
  O  O378  1  0.63290420  0.87202415  0.63342488  1
  O  O379  1  0.12682752  0.25574174  0.25613396  1
  O  O380  1  0.11852178  0.25535428  0.75853058  1
  O  O381  1  0.13115881  0.74972933  0.26804347  1
  O  O382  1  0.11807466  0.75476070  0.75716375  1
  O  O383  1  0.62747159  0.26375255  0.24602696  1
  O  O384  1  0.62102932  0.25594469  0.75686496  1
  O  O385  1  0.61630278  0.76185986  0.24363667  1
  O  O386  1  0.63199382  0.75652534  0.76067515  1
  O  O387  1  0.37577917  0.23504799  0.25313333  1
  O  O388  1  0.37404920  0.23334658  0.75141550  1
  O  O389  1  0.38184037  0.74368963  0.24570114  1
  O  O390  1  0.36700509  0.74968655  0.73357249  1
  O  O391  1  0.87131267  0.23806014  0.24256177  1
  O  O392  1  0.88210806  0.24046584  0.74725256  1
  O  O393  1  0.87017529  0.73475437  0.25376769  1
  O  O394  1  0.88161367  0.74697076  0.74444857  1
  O  O395  1  0.37931976  0.49690580  0.49453352  1
  O  O396  1  0.37976437  0.49463304  0.99403398  1
  O  O397  1  0.38428551  0.99887562  0.49195850  1
  O  O398  1  0.36995575  0.99367530  0.99044567  1
  O  O399  1  0.88093508  0.49786093  0.49059334  1
  O  O400  1  0.88076571  0.49254513  0.99588406  1
  O  O401  1  0.88841750  1.00272895  0.50316449  1
  O  O402  1  0.88317591  0.99275332  0.99645808  1
  O  O403  1  0.10628434  -0.00025911  -0.00447057  1
  O  O404  1  0.11655991  0.01289899  0.49538983  1
  O  O405  1  0.11127140  0.50257983  -0.00629584  1
  O  O406  1  0.11673748  0.51199303  0.49287664  1
  O  O407  1  0.62744894  -0.00607642  0.01178211  1
  O  O408  1  0.61829739  0.00733497  0.50500823  1
  O  O409  1  0.61757968  0.50895514  0.00245217  1
  O  O410  1  0.62417895  0.51126591  0.50566918  1
  O  O411  1  0.36980804  0.37699638  0.11160255  1
  O  O412  1  0.35922141  0.37992761  0.61610357  1
  O  O413  1  0.37166121  0.86714752  0.12646045  1
  O  O414  1  0.37491456  0.86562294  0.61977863  1
  O  O415  1  0.86277955  0.36781662  0.12416568  1
  O  O416  1  0.86939319  0.37694163  0.61378619  1
  O  O417  1  0.86101007  0.88059394  0.11771509  1
  O  O418  1  0.86964707  0.86117774  0.62852994  1
  O  O419  1  0.12911852  0.13167344  0.38052912  1
  O  O420  1  0.13136139  0.13249756  0.87432065  1
  O  O421  1  0.12646821  0.63316392  0.38407318  1
  O  O422  1  0.12683865  0.63645277  0.87931474  1
  O  O423  1  0.63094229  0.12873059  0.38447423  1
  O  O424  1  0.64067967  0.12134812  0.86959149  1
  O  O425  1  0.62509201  0.62026985  0.38703081  1
  O  O426  1  0.63108972  0.62950897  0.88384368  1
