# generated using pymatgen
data_V85Zn86O256
_symmetry_space_group_name_H-M   'P 1'
_cell_length_a   16.96615549
_cell_length_b   16.93792029
_cell_length_c   16.94522890
_cell_angle_alpha   89.96097696
_cell_angle_beta   90.07137788
_cell_angle_gamma   89.86112489
_symmetry_Int_Tables_number   1
_chemical_formula_structural   V85Zn86O256
_chemical_formula_sum   'V85 Zn86 O256'
_cell_volume   4869.55474965
_cell_formula_units_Z   1
loop_
 _symmetry_equiv_pos_site_id
 _symmetry_equiv_pos_as_xyz
  1  'x, y, z'
loop_
 _atom_site_type_symbol
 _atom_site_label
 _atom_site_symmetry_multiplicity
 _atom_site_fract_x
 _atom_site_fract_y
 _atom_site_fract_z
 _atom_site_occupancy
  V  V0  1  0.12321474  0.74765177  0.37340676  1
  V  V1  1  0.25135873  0.36259819  0.62357872  1
  V  V2  1  -0.00804213  0.13079346  0.62376651  1
  V  V3  1  0.49500341  0.88231431  0.37620299  1
  V  V4  1  0.62453370  0.62348447  0.50715636  1
  V  V5  1  0.61901518  0.63793358  -0.00607758  1
  V  V6  1  0.12628039  0.75203605  0.87276412  1
  V  V7  1  -0.00928223  0.25432245  0.74934925  1
  V  V8  1  0.87853942  0.50096781  0.37176010  1
  V  V9  1  0.49993367  0.37723849  0.37717574  1
  V  V10  1  0.37414774  0.50520604  0.36402485  1
  V  V11  1  0.74723985  0.75224440  0.49952221  1
  V  V12  1  0.75464469  0.25122349  0.00491658  1
  V  V13  1  0.50597336  0.23002284  0.74851942  1
  V  V14  1  0.74609655  0.87841362  0.62549355  1
  V  V15  1  0.75584114  0.24779668  0.50615219  1
  V  V16  1  0.62506560  0.87099176  0.76060649  1
  V  V17  1  0.74916735  0.50082786  0.74208218  1
  V  V18  1  0.37216760  0.74436898  0.12791327  1
  V  V19  1  0.37633896  0.37461582  -0.01838446  1
  V  V20  1  0.00167272  0.50018639  0.49814680  1
  V  V21  1  0.11475867  0.49969919  0.12568507  1
  V  V22  1  0.50143523  0.50153583  0.50729758  1
  V  V23  1  0.12568361  0.24664423  0.87436267  1
  V  V24  1  0.50472840  0.12285313  0.12931298  1
  V  V25  1  0.62556558  0.37657248  0.25175701  1
  V  V26  1  0.75007925  0.00080199  0.74952093  1
  V  V27  1  0.49945581  0.00075922  0.00222626  1
  V  V28  1  0.00213335  0.62575132  0.62573965  1
  V  V29  1  0.87312873  -0.00364336  0.88048938  1
  V  V30  1  0.11990940  0.61691212  -0.00284805  1
  V  V31  1  0.13238023  0.37400675  0.25223536  1
  V  V32  1  0.87531344  0.75206579  0.62605709  1
  V  V33  1  0.12262487  0.01070602  0.12918536  1
  V  V34  1  0.87241766  0.87799746  0.49815445  1
  V  V35  1  0.76893056  0.75248247  0.00190579  1
  V  V36  1  0.62730253  0.12234997  0.00296222  1
  V  V37  1  0.12584412  0.12666353  -0.00186367  1
  V  V38  1  0.62574210  0.25027385  0.37681078  1
  V  V39  1  0.62153055  0.11917545  0.50485736  1
  V  V40  1  0.37510995  0.62102388  0.74981513  1
  V  V41  1  0.00300064  0.38045106  0.87784028  1
  V  V42  1  -0.00288515  0.74808193  0.23727299  1
  V  V43  1  0.37227152  0.25200913  0.12633248  1
  V  V44  1  0.37609259  0.11962046  0.25690606  1
  V  V45  1  0.74870446  0.37533299  0.12291810  1
  V  V46  1  0.25348422  0.62220174  0.36180286  1
  V  V47  1  0.75366753  0.12788013  0.87621088  1
  V  V48  1  0.50168451  0.75071103  0.75805493  1
  V  V49  1  0.61439137  0.38433848  0.74568341  1
  V  V50  1  0.74773137  0.50237154  0.25079631  1
  V  V51  1  0.12558918  0.13830213  0.49728812  1
  V  V52  1  0.38678771  0.23828817  0.61951914  1
  V  V53  1  0.62031516  0.50209161  0.12098008  1
  V  V54  1  0.87406472  0.50451137  0.87709404  1
  V  V55  1  0.75954651  0.87732254  0.12539010  1
  V  V56  1  0.37185353  0.75594133  0.62814734  1
  V  V57  1  0.87363234  0.62732926  0.24059798  1
  V  V58  1  0.12420600  0.87440808  0.24756396  1
  V  V59  1  0.75016374  0.62690542  0.37495099  1
  V  V60  1  0.25022855  0.75041297  -0.00089836  1
  V  V61  1  0.24830438  0.14130122  0.37963398  1
  V  V62  1  0.13214406  -0.00443154  0.62579715  1
  V  V63  1  -0.00092610  0.00055208  0.50050414  1
  V  V64  1  0.25397566  0.61922853  0.87374352  1
  V  V65  1  0.26166422  0.00492504  0.76214863  1
  V  V66  1  0.37131355  0.87929080  0.49882300  1
  V  V67  1  -0.00201751  0.00079642  0.00486202  1
  V  V68  1  0.24891832  0.75062311  0.50425388  1
  V  V69  1  0.87752547  0.37175155  0.50509169  1
  V  V70  1  0.25371685  0.49261256  0.75100527  1
  V  V71  1  0.62382483  0.88545543  0.24064036  1
  V  V72  1  0.49857789  0.49388648  -0.01611778  1
  V  V73  1  0.49648145  0.74237041  0.25119552  1
  V  V74  1  0.36995923  0.37591277  0.49920225  1
  V  V75  1  -0.00245575  0.87597516  0.87596967  1
  V  V76  1  0.87267271  0.00238084  0.36383606  1
  V  V77  1  0.75179145  0.12227049  0.36476925  1
  V  V78  1  0.00585227  0.36497471  0.36939920  1
  V  V79  1  0.25893549  0.38934184  0.12477429  1
  V  V80  1  0.62331698  0.75249240  0.37448676  1
  V  V81  1  0.37122508  0.87806836  -0.00608054  1
  V  V82  1  0.25198675  -0.00169485  0.26218848  1
  V  V83  1  0.87867697  0.37686898  0.00053757  1
  V  V84  1  0.12949879  0.49950849  0.62426881  1
  Zn  Zn85  1  0.12786892  0.62352085  0.49769376  1
  Zn  Zn86  1  0.37186335  0.04143685  0.87778460  1
  Zn  Zn87  1  0.61109492  0.00402973  0.63293164  1
  Zn  Zn88  1  -0.00354226  0.87243630  0.37391033  1
  Zn  Zn89  1  0.48685316  0.00806204  0.50376218  1
  Zn  Zn90  1  0.74574550  0.63234003  0.87110079  1
  Zn  Zn91  1  0.87269904  0.62680266  0.75038064  1
  Zn  Zn92  1  0.50013235  0.24973176  0.25189008  1
  Zn  Zn93  1  0.50185955  0.62592778  0.62741911  1
  Zn  Zn94  1  -0.00990566  0.62237373  0.11456004  1
  Zn  Zn95  1  0.25127111  0.87642627  0.12642956  1
  Zn  Zn96  1  0.12877780  0.87593566  0.74607411  1
  Zn  Zn97  1  0.02364555  0.22495076  0.23668131  1
  Zn  Zn98  1  0.87788435  0.14294473  0.22966654  1
  Zn  Zn99  1  0.62413014  0.25810250  0.87550753  1
  Zn  Zn100  1  0.00106542  0.75297642  0.74872397  1
  Zn  Zn101  1  0.49362769  0.62177190  0.12663692  1
  Zn  Zn102  1  0.28428931  0.20658145  -0.03499669  1
  Zn  Zn103  1  0.12552392  0.37226574  0.75075769  1
  Zn  Zn104  1  0.87122993  0.13023336  0.74617097  1
  Zn  Zn105  1  0.75115931  0.37383042  0.62611764  1
  Zn  Zn106  1  0.49667222  0.87961033  0.87463444  1
  Zn  Zn107  1  0.19599127  0.18955705  0.18476532  1
  Zn  Zn108  1  0.18223996  0.18328816  0.68779791  1
  Zn  Zn109  1  0.18641771  0.68554530  0.18403617  1
  Zn  Zn110  1  0.18841164  0.68684536  0.68767557  1
  Zn  Zn111  1  0.68841701  0.18816699  0.18747089  1
  Zn  Zn112  1  0.68732019  0.19016467  0.68589603  1
  Zn  Zn113  1  0.68346848  0.69162330  0.18276301  1
  Zn  Zn114  1  0.68736293  0.68966747  0.68843967  1
  Zn  Zn115  1  0.31373466  0.31464556  0.30834677  1
  Zn  Zn116  1  0.33215165  0.25894758  0.82209543  1
  Zn  Zn117  1  0.31184734  0.81026885  0.31421156  1
  Zn  Zn118  1  0.30788423  0.81825291  0.80862418  1
  Zn  Zn119  1  0.81249814  0.31210351  0.31798176  1
  Zn  Zn120  1  0.80977814  0.31692802  0.81552536  1
  Zn  Zn121  1  0.81116565  0.81455740  0.30745641  1
  Zn  Zn122  1  0.81190715  0.81205237  0.81592669  1
  Zn  Zn123  1  0.18981572  0.43828240  0.43698972  1
  Zn  Zn124  1  0.19290469  0.43373950  0.93843127  1
  Zn  Zn125  1  0.18532940  0.93636698  0.43825553  1
  Zn  Zn126  1  0.18758014  0.94005564  0.93581014  1
  Zn  Zn127  1  0.68934444  0.43861625  0.44165853  1
  Zn  Zn128  1  0.68664223  0.43963518  0.92951436  1
  Zn  Zn129  1  0.68668472  0.93921177  0.43107822  1
  Zn  Zn130  1  0.68759106  0.93557464  0.94382399  1
  Zn  Zn131  1  0.31297823  0.05699644  0.07236792  1
  Zn  Zn132  1  0.30682643  0.06194530  0.55993341  1
  Zn  Zn133  1  0.31514262  0.56129513  0.05690827  1
  Zn  Zn134  1  0.31359350  0.56521201  0.56045141  1
  Zn  Zn135  1  0.80868289  0.05279187  0.06433403  1
  Zn  Zn136  1  0.80998241  0.06332237  0.55950570  1
  Zn  Zn137  1  0.80584202  0.56185605  0.05830866  1
  Zn  Zn138  1  0.81456846  0.56355890  0.56147422  1
  Zn  Zn139  1  0.44153657  0.43705462  0.18695678  1
  Zn  Zn140  1  0.43480812  0.43672564  0.68610305  1
  Zn  Zn141  1  0.43649787  0.93455582  0.18488023  1
  Zn  Zn142  1  0.43553331  0.94095238  0.68649547  1
  Zn  Zn143  1  0.93206345  0.34089782  0.18328223  1
  Zn  Zn144  1  0.93707107  0.44030294  0.68940129  1
  Zn  Zn145  1  0.93871696  0.93781232  0.18713552  1
  Zn  Zn146  1  0.93823875  0.93914685  0.68977825  1
  Zn  Zn147  1  0.06238028  0.06243049  0.31747078  1
  Zn  Zn148  1  0.06037986  0.06614740  0.81113347  1
  Zn  Zn149  1  0.06373129  0.55934753  0.30584284  1
  Zn  Zn150  1  0.06343858  0.56102083  0.80931182  1
  Zn  Zn151  1  0.56276506  0.06071803  0.31791788  1
  Zn  Zn152  1  0.56735443  0.05892097  0.82090973  1
  Zn  Zn153  1  0.56168002  0.56369460  0.31744455  1
  Zn  Zn154  1  0.56457842  0.56293797  0.81101138  1
  Zn  Zn155  1  0.43595087  0.18938782  0.43611992  1
  Zn  Zn156  1  0.45248146  0.19532242  0.93945946  1
  Zn  Zn157  1  0.43577850  0.69043038  0.43745418  1
  Zn  Zn158  1  0.43546267  0.68649079  0.93748656  1
  Zn  Zn159  1  0.93920863  0.18716772  0.42929194  1
  Zn  Zn160  1  0.93952340  0.18828123  1.05773830  1
  Zn  Zn161  1  0.93812282  0.68746155  0.43739902  1
  Zn  Zn162  1  0.93893245  0.68763013  0.93446451  1
  Zn  Zn163  1  0.07018947  0.31809043  0.05786644  1
  Zn  Zn164  1  0.06056016  0.31439492  0.56508183  1
  Zn  Zn165  1  0.06405807  0.81536380  0.05921237  1
  Zn  Zn166  1  0.06192836  0.81417589  0.55944435  1
  Zn  Zn167  1  0.56104575  0.31099334  0.06266463  1
  Zn  Zn168  1  0.56535498  0.31464792  0.56507370  1
  Zn  Zn169  1  0.55566378  0.81427552  0.06532887  1
  Zn  Zn170  1  0.55792998  0.81717123  0.56887206  1
  O  O171  1  0.12499865  0.11510091  0.12648484  1
  O  O172  1  0.11439690  0.11516072  0.61552632  1
  O  O173  1  0.12766309  0.61288108  0.11641415  1
  O  O174  1  0.11846123  0.61931614  0.62228092  1
  O  O175  1  0.61260420  0.12933704  0.12168070  1
  O  O176  1  0.63107928  0.12392535  0.60762275  1
  O  O177  1  0.62044263  0.61802214  0.11239005  1
  O  O178  1  0.62304507  0.63187498  0.61060118  1
  O  O179  1  0.37806001  0.38158491  0.38183205  1
  O  O180  1  0.36945848  0.35879604  0.88422129  1
  O  O181  1  0.38390631  0.86644752  0.38455227  1
  O  O182  1  0.37468106  0.87006112  0.88911418  1
  O  O183  1  0.88475459  0.38530635  0.38212370  1
  O  O184  1  0.88063539  0.38275507  0.88336213  1
  O  O185  1  0.87276579  0.88272477  0.38004702  1
  O  O186  1  0.88427248  0.88405358  0.87069267  1
  O  O187  1  0.24481519  0.00542734  0.36468020  1
  O  O188  1  0.25325997  0.00613502  0.86670610  1
  O  O189  1  0.25789466  0.51511101  0.37969212  1
  O  O190  1  0.24548117  0.50792775  0.86405902  1
  O  O191  1  0.75852793  0.01055135  0.37681891  1
  O  O192  1  0.75522918  0.00306287  0.87193130  1
  O  O193  1  0.75676847  0.50699927  0.37219574  1
  O  O194  1  0.75779622  0.50458275  0.86325952  1
  O  O195  1  0.25069226  0.49221798  0.12324653  1
  O  O196  1  0.24662014  0.49493584  0.62911623  1
  O  O197  1  0.23989984  0.99735636  0.14095855  1
  O  O198  1  0.23391417  0.99956383  0.62421804  1
  O  O199  1  0.73510297  0.49682582  0.12745299  1
  O  O200  1  0.75791230  0.50044246  0.63771181  1
  O  O201  1  0.74120190  0.97628387  0.11360830  1
  O  O202  1  0.74906215  0.99601724  0.63496144  1
  O  O203  1  0.01385867  0.37964395  0.25844973  1
  O  O204  1  0.00248025  0.36990815  0.75351462  1
  O  O205  1  0.00659809  0.86562942  0.25272710  1
  O  O206  1  0.00464719  0.87502463  0.76172723  1
  O  O207  1  0.50908240  0.37376166  0.25880065  1
  O  O208  1  0.51268278  0.37541077  0.74348362  1
  O  O209  1  0.50683587  0.86962879  0.25573674  1
  O  O210  1  0.50683749  0.86931247  0.75319357  1
  O  O211  1  0.49387805  0.12275605  0.24706337  1
  O  O212  1  0.51190237  0.13146893  0.74685180  1
  O  O213  1  0.50330019  0.63828253  0.25049130  1
  O  O214  1  0.49203218  0.62981224  0.74986801  1
  O  O215  1  0.98780835  0.12523734  0.26561214  1
  O  O216  1  0.99570882  0.13365936  0.74090713  1
  O  O217  1  0.99098129  0.63023207  0.24551666  1
  O  O218  1  0.99851993  0.62775638  0.73635279  1
  O  O219  1  0.38119950  0.26023375  0.01078041  1
  O  O220  1  0.38423300  0.26266801  0.50981626  1
  O  O221  1  0.36887402  0.75616987  0.00546551  1
  O  O222  1  0.36743236  0.75474047  0.50821115  1
  O  O223  1  0.86480136  0.26288181  -0.00042603  1
  O  O224  1  0.86803280  0.26005728  0.48986291  1
  O  O225  1  0.86714367  0.74331456  0.00723238  1
  O  O226  1  0.87022349  0.75631881  0.50815421  1
  O  O227  1  0.12206308  0.23756023  0.50562762  1
  O  O228  1  0.12022101  0.23872294  0.99123224  1
  O  O229  1  0.13035409  0.74936528  0.49054807  1
  O  O230  1  0.13127965  0.74357536  0.98982558  1
  O  O231  1  0.63157303  0.24374814  0.49193456  1
  O  O232  1  0.62840853  0.24008461  0.99728478  1
  O  O233  1  0.62802422  0.74679474  0.49447602  1
  O  O234  1  0.61310558  0.73785491  0.99942760  1
  O  O235  1  0.49133883  0.24262596  0.12998296  1
  O  O236  1  0.49425055  0.24815205  0.62928788  1
  O  O237  1  0.49057177  0.74758588  0.13397959  1
  O  O238  1  0.49000091  0.74808257  0.63746597  1
  O  O239  1  0.99911845  0.26180644  0.12584575  1
  O  O240  1  1.00343998  0.24284740  0.63502428  1
  O  O241  1  1.00701253  0.74573588  0.13433103  1
  O  O242  1  0.99365466  0.74418935  0.62375233  1
  O  O243  1  0.00492978  0.26399477  0.37463878  1
  O  O244  1  0.01170107  0.26660485  0.86421353  1
  O  O245  1  0.01278825  0.74657360  0.36878039  1
  O  O246  1  0.00753007  0.75810762  0.87339988  1
  O  O247  1  0.50929119  0.25789349  0.37465565  1
  O  O248  1  0.50647984  0.24832281  0.85325063  1
  O  O249  1  0.50400201  0.75767317  0.36857286  1
  O  O250  1  0.49272223  0.75187898  0.86155445  1
  O  O251  1  0.24233379  0.12343337  0.48654097  1
  O  O252  1  0.23291971  0.11843675  1.01273630  1
  O  O253  1  0.24880544  0.63701623  0.49153833  1
  O  O254  1  0.24340470  0.62843316  0.98976111  1
  O  O255  1  0.74148101  0.13162309  0.49139442  1
  O  O256  1  0.74331037  0.13086760  0.99615173  1
  O  O257  1  0.74344062  0.63107338  0.49559326  1
  O  O258  1  0.73651250  0.63886946  1.00129688  1
  O  O259  1  0.26596750  0.37912442  0.00938542  1
  O  O260  1  0.26158856  0.37966739  0.50783852  1
  O  O261  1  0.25472283  0.87037340  0.00233291  1
  O  O262  1  0.25573387  0.85984123  0.49000837  1
  O  O263  1  0.75257805  0.36863677  0.00058508  1
  O  O264  1  0.75949901  0.36739633  0.50003141  1
  O  O265  1  0.74541842  0.86012779  0.00964857  1
  O  O266  1  0.75209291  0.87169787  0.50470441  1
  O  O267  1  0.12732943  0.49342743  0.23337272  1
  O  O268  1  0.13501137  0.49818331  0.74039507  1
  O  O269  1  0.12836969  0.99224634  0.24724408  1
  O  O270  1  0.12251560  1.00189884  0.73480986  1
  O  O271  1  0.62827633  0.49849720  0.24367450  1
  O  O272  1  0.63114958  0.49225308  0.74878963  1
  O  O273  1  0.62202884  0.98388439  0.25448181  1
  O  O274  1  0.63626184  0.99472571  0.75123698  1
  O  O275  1  0.36690298  0.01064023  0.24434296  1
  O  O276  1  0.36597448  0.00050679  0.75874899  1
  O  O277  1  0.38356050  0.49848285  0.26489620  1
  O  O278  1  0.36919325  0.51258509  0.74393328  1
  O  O279  1  0.87820833  -0.00149952  0.26309468  1
  O  O280  1  0.86335144  0.00124693  0.75804689  1
  O  O281  1  0.86625022  0.51021365  0.26372464  1
  O  O282  1  0.86772148  0.50148272  0.75923120  1
  O  O283  1  0.11963326  0.38627390  0.36319457  1
  O  O284  1  0.11715982  0.37333916  0.87495743  1
  O  O285  1  0.12322609  0.86575868  0.36416367  1
  O  O286  1  0.12009452  0.86668999  0.87339429  1
  O  O287  1  0.62255937  0.36833507  0.37330654  1
  O  O288  1  0.63219423  0.37282646  0.85296571  1
  O  O289  1  0.61879014  0.86883146  0.36684714  1
  O  O290  1  0.62117765  0.88186804  0.86411865  1
  O  O291  1  0.38340679  0.13201462  0.13303600  1
  O  O292  1  0.37178478  0.14075348  0.61142229  1
  O  O293  1  0.37515004  0.63917788  0.11755202  1
  O  O294  1  0.37538090  0.63581417  0.63317761  1
  O  O295  1  0.87101922  0.12425438  0.11837703  1
  O  O296  1  0.88793887  0.12069615  0.62390074  1
  O  O297  1  0.87292986  0.61545298  0.13669284  1
  O  O298  1  0.88340889  0.63515557  0.62364177  1
  O  O299  1  0.26606144  0.25808249  0.12386891  1
  O  O300  1  0.26090659  0.25989764  0.63480989  1
  O  O301  1  0.25451343  0.75260701  0.11845595  1
  O  O302  1  0.25579972  0.74666219  0.61592908  1
  O  O303  1  0.74125423  0.25936958  0.11261533  1
  O  O304  1  0.75228617  0.24923545  0.61027002  1
  O  O305  1  0.74138868  0.75869423  0.10993414  1
  O  O306  1  0.75739722  0.75667599  0.61872462  1
  O  O307  1  0.25126022  0.23982333  0.37297211  1
  O  O308  1  0.23047395  0.25950022  0.87382473  1
  O  O309  1  0.24038906  0.74012136  0.37815901  1
  O  O310  1  0.24253482  0.74304598  0.87717063  1
  O  O311  1  0.74282331  0.24449650  0.38456785  1
  O  O312  1  0.74890515  0.24327442  0.88567598  1
  O  O313  1  0.74442293  0.74680241  0.38062259  1
  O  O314  1  0.75461344  0.75009629  0.89412706  1
  O  O315  1  0.01184405  0.10944290  0.00349482  1
  O  O316  1  0.00570095  0.12000988  0.50262563  1
  O  O317  1  0.01565521  0.62907542  -0.00104169  1
  O  O318  1  0.00191920  0.61945457  0.50958299  1
  O  O319  1  0.50787185  0.12210752  0.00965825  1
  O  O320  1  0.51801471  0.12428403  0.48713786  1
  O  O321  1  0.50611310  0.61395409  -0.00030485  1
  O  O322  1  0.50749751  0.62002906  0.49846470  1
  O  O323  1  0.49540129  0.38343137  0.49599583  1
  O  O324  1  0.49457320  0.38633155  1.00179649  1
  O  O325  1  0.48911423  0.87007480  0.49123153  1
  O  O326  1  0.49292611  0.88547234  0.99806405  1
  O  O327  1  0.99631917  0.38149082  0.49273161  1
  O  O328  1  0.99016525  0.37437815  0.98994249  1
  O  O329  1  0.99171387  0.88304902  0.49668177  1
  O  O330  1  1.00738281  0.88581656  0.98650713  1
  O  O331  1  0.49295448  0.49690908  0.38452883  1
  O  O332  1  0.50218462  0.49838221  0.88551985  1
  O  O333  1  0.50131434  0.98610051  0.38182724  1
  O  O334  1  0.48945405  1.00643760  0.88846174  1
  O  O335  1  0.99333712  0.49814035  0.37877143  1
  O  O336  1  0.99203564  0.48951545  0.86631341  1
  O  O337  1  0.99333728  0.99696666  0.38859754  1
  O  O338  1  0.99240338  0.99586718  0.87946088  1
  O  O339  1  0.01015540  -0.01005642  0.11595469  1
  O  O340  1  0.00349195  0.00642695  0.61499976  1
  O  O341  1  0.01666887  0.50126630  0.12132002  1
  O  O342  1  0.00691810  0.50728444  0.62041759  1
  O  O343  1  0.49267513  0.00967161  0.11294849  1
  O  O344  1  0.50070434  -0.00553377  0.61507039  1
  O  O345  1  0.51013934  0.50201497  0.11991465  1
  O  O346  1  0.49380871  0.50499241  0.61090666  1
  O  O347  1  0.24622342  0.37616917  0.23919950  1
  O  O348  1  0.25289951  0.38736005  0.74052343  1
  O  O349  1  0.24259416  0.88109879  0.25154034  1
  O  O350  1  0.24455856  0.89571984  0.75137417  1
  O  O351  1  0.74400121  0.38410553  0.24642920  1
  O  O352  1  0.74578105  0.38337815  0.74556569  1
  O  O353  1  0.73429441  0.86511070  0.23686071  1
  O  O354  1  0.74382709  0.88077151  0.74728135  1
  O  O355  1  0.25602776  0.12006709  0.26054244  1
  O  O356  1  0.24499247  0.10339613  0.74003308  1
  O  O357  1  0.25027560  0.63010915  0.26311917  1
  O  O358  1  0.25616925  0.61606282  0.75442719  1
  O  O359  1  0.75657444  0.13337830  0.26132792  1
  O  O360  1  0.74879393  0.11930275  0.75679642  1
  O  O361  1  0.75378474  0.62343401  0.25361056  1
  O  O362  1  0.75023387  0.61875448  0.75182773  1
  O  O363  1  0.36295221  0.12697876  0.36961844  1
  O  O364  1  0.36005511  0.15717428  0.88508579  1
  O  O365  1  0.36253746  0.62071615  0.37840386  1
  O  O366  1  0.36144925  0.62955123  0.86660483  1
  O  O367  1  0.86397227  0.11594602  0.38200345  1
  O  O368  1  0.85905673  0.11380665  0.87199978  1
  O  O369  1  0.86928007  0.61970280  0.37029860  1
  O  O370  1  0.87409959  0.61815229  0.87123922  1
  O  O371  1  0.13701623  0.38714495  0.12534530  1
  O  O372  1  0.13590447  0.38042619  0.62532113  1
  O  O373  1  0.12665966  0.88010248  0.13713165  1
  O  O374  1  0.11671279  0.89126310  0.62462244  1
  O  O375  1  0.62761960  0.38227356  0.13091666  1
  O  O376  1  0.63192811  0.37268526  0.63873128  1
  O  O377  1  0.62188590  0.87253420  0.13824907  1
  O  O378  1  0.63273231  0.87727915  0.63619866  1
  O  O379  1  0.13120827  0.26729266  0.24112366  1
  O  O380  1  0.11547684  0.25011410  0.75548559  1
  O  O381  1  0.11957368  0.75474990  0.25434363  1
  O  O382  1  0.12500686  0.75106484  0.76107089  1
  O  O383  1  0.62608659  0.25547559  0.26321366  1
  O  O384  1  0.61495293  0.25735433  0.74546222  1
  O  O385  1  0.61503588  0.75615551  0.25583557  1
  O  O386  1  0.61526178  0.75847424  0.74705078  1
  O  O387  1  0.37792216  0.23786499  0.24574369  1
  O  O388  1  0.39655508  0.25200605  0.73172498  1
  O  O389  1  0.38348442  0.75816965  0.24018164  1
  O  O390  1  0.37590035  0.74324458  0.74454350  1
  O  O391  1  0.88307603  0.26073384  0.24932638  1
  O  O392  1  0.88654274  0.25026972  0.75730716  1
  O  O393  1  0.88546107  0.73891379  0.25801101  1
  O  O394  1  0.87564611  0.75093906  0.73648702  1
  O  O395  1  0.38195106  0.49385875  0.49275535  1
  O  O396  1  0.39077278  0.49228111  1.00040202  1
  O  O397  1  0.36774874  0.98344925  0.50240955  1
  O  O398  1  0.37808907  0.99558811  0.99755778  1
  O  O399  1  0.87968970  0.49639280  0.48891054  1
  O  O400  1  0.86611754  0.49533889  0.98511342  1
  O  O401  1  0.88114209  0.99526489  0.49469577  1
  O  O402  1  0.88361339  0.99992133  0.98848446  1
  O  O403  1  0.11978411  0.00323115  0.00958463  1
  O  O404  1  0.11697456  0.00476418  0.50696853  1
  O  O405  1  0.13391293  0.50710908  0.01026689  1
  O  O406  1  0.11987798  0.50133332  0.50757946  1
  O  O407  1  0.61583940  0.01366436  -0.00405157  1
  O  O408  1  0.62892262  0.01445415  0.49827798  1
  O  O409  1  0.61581827  0.50269867  0.00421948  1
  O  O410  1  0.61571950  0.51134420  0.49308053  1
  O  O411  1  0.37294176  0.36938525  0.12413378  1
  O  O412  1  0.36956783  0.36879474  0.61632967  1
  O  O413  1  0.37344759  0.86607634  0.11311466  1
  O  O414  1  0.37568825  0.86186888  0.61794068  1
  O  O415  1  0.86294768  0.39044167  0.10836245  1
  O  O416  1  0.87727863  0.38183372  0.60806892  1
  O  O417  1  0.85877095  0.87279431  0.13556050  1
  O  O418  1  0.86873043  0.87032506  0.62007461  1
  O  O419  1  0.13880473  0.12294220  0.38279824  1
  O  O420  1  0.11902622  0.13352301  0.88495868  1
  O  O421  1  0.13493293  0.62881286  0.37371331  1
  O  O422  1  0.13225148  0.62945031  0.87856137  1
  O  O423  1  0.63389194  0.13176736  0.37891374  1
  O  O424  1  0.63719059  0.12766915  0.88449867  1
  O  O425  1  0.63117855  0.63325171  0.38331074  1
  O  O426  1  0.62684478  0.62014401  0.89073393  1
