# generated using pymatgen
data_V85Zn86O256
_symmetry_space_group_name_H-M   'P 1'
_cell_length_a   16.92149447
_cell_length_b   16.92658141
_cell_length_c   16.92780555
_cell_angle_alpha   90.03296911
_cell_angle_beta   90.01389376
_cell_angle_gamma   90.07597277
_symmetry_Int_Tables_number   1
_chemical_formula_structural   V85Zn86O256
_chemical_formula_sum   'V85 Zn86 O256'
_cell_volume   4848.50854641
_cell_formula_units_Z   1
loop_
 _symmetry_equiv_pos_site_id
 _symmetry_equiv_pos_as_xyz
  1  'x, y, z'
loop_
 _atom_site_type_symbol
 _atom_site_label
 _atom_site_symmetry_multiplicity
 _atom_site_fract_x
 _atom_site_fract_y
 _atom_site_fract_z
 _atom_site_occupancy
  V  V0  1  0.63040466  0.00934282  0.12523323  1
  V  V1  1  0.62485094  0.75701971  0.37947073  1
  V  V2  1  0.62305943  0.75177974  0.87812102  1
  V  V3  1  0.37125085  0.12601579  0.75054531  1
  V  V4  1  0.62753011  0.88283722  0.25274045  1
  V  V5  1  -0.00371910  0.13254117  0.63914429  1
  V  V6  1  0.00361019  0.50465315  0.49570805  1
  V  V7  1  0.74509493  0.49820972  0.23676824  1
  V  V8  1  0.75522506  0.87657896  0.62138563  1
  V  V9  1  0.87700708  0.87641257  -0.01122193  1
  V  V10  1  0.87608294  0.75203870  0.12443086  1
  V  V11  1  0.38026529  0.37608791  0.00725856  1
  V  V12  1  0.74989201  0.63010851  0.36976552  1
  V  V13  1  -0.00213861  0.36678477  0.87117025  1
  V  V14  1  0.63485017  0.24155553  0.88101155  1
  V  V15  1  0.62345572  0.36335506  0.24147741  1
  V  V16  1  0.11433401  0.87044898  0.75388646  1
  V  V17  1  0.49851213  0.12599379  0.62257509  1
  V  V18  1  0.37417835  0.50121082  0.87785853  1
  V  V19  1  0.88855519  0.11994844  0.24200026  1
  V  V20  1  0.87894097  0.01639823  0.87375384  1
  V  V21  1  0.25612684  0.25403713  0.49889223  1
  V  V22  1  0.74914648  0.36971928  0.61713440  1
  V  V23  1  0.37461311  0.49453211  0.37786623  1
  V  V24  1  0.00601739  0.62642092  0.11833417  1
  V  V25  1  0.50420937  0.00713396  0.00322360  1
  V  V26  1  0.00239163  0.74778430  0.24808423  1
  V  V27  1  0.26251408  -0.00411479  0.25116263  1
  V  V28  1  0.37341875  0.75036060  0.62676474  1
  V  V29  1  0.00149837  0.87354109  0.37653710  1
  V  V30  1  0.75806431  0.62701886  0.87183055  1
  V  V31  1  0.25378640  0.37694506  0.62310790  1
  V  V32  1  -0.01058840  0.73926269  0.74813996  1
  V  V33  1  0.12167087  0.00366234  0.12657314  1
  V  V34  1  0.87044084  0.49305327  0.37261632  1
  V  V35  1  0.25482889  0.24914963  0.00046817  1
  V  V36  1  0.25522848  0.11748227  0.37532371  1
  V  V37  1  0.75240261  0.01398009  0.75592206  1
  V  V38  1  0.37756926  0.62848231  0.25067649  1
  V  V39  1  0.24751065  0.87416447  0.62874770  1
  V  V40  1  0.12931017  0.87460306  0.25015221  1
  V  V41  1  0.25044998  0.12594421  0.87696235  1
  V  V42  1  0.74870974  0.75291400  0.00090421  1
  V  V43  1  0.37147511  0.87662126  0.49386422  1
  V  V44  1  0.11727650  0.12737720  0.00324894  1
  V  V45  1  0.12684969  0.50371639  0.12171064  1
  V  V46  1  0.62401926  0.00031053  0.62418952  1
  V  V47  1  0.62660540  0.37697526  0.75051097  1
  V  V48  1  0.12431790  0.50988222  0.62192689  1
  V  V49  1  0.12539499  0.12434744  0.50089272  1
  V  V50  1  0.62335696  0.87609777  0.75522237  1
  V  V51  1  0.00371640  0.50042461  -0.00397724  1
  V  V52  1  0.25279482  0.36955215  0.12584396  1
  V  V53  1  -0.00428588  0.36978155  0.37830424  1
  V  V54  1  0.88693242  0.25573018  0.13043829  1
  V  V55  1  0.12446482  0.74396129  0.38292011  1
  V  V56  1  0.80732604  0.69737747  0.55898959  1
  V  V57  1  0.12054439  0.36999953  0.74687789  1
  V  V58  1  0.24446859  0.62860028  0.88752901  1
  V  V59  1  0.25353350  0.87261055  0.11024550  1
  V  V60  1  0.86838760  -0.00106486  0.37050169  1
  V  V61  1  0.12223539  -0.00059283  0.62875405  1
  V  V62  1  0.50058525  0.38021735  0.87905064  1
  V  V63  1  0.12204969  0.74969457  0.88552246  1
  V  V64  1  0.75925693  0.50214675  0.74907475  1
  V  V65  1  0.61960179  0.61740603  0.00128167  1
  V  V66  1  0.49767672  0.62518490  0.62635494  1
  V  V67  1  0.49468718  0.00013068  0.49222333  1
  V  V68  1  -0.00196260  -0.00164702  0.50128484  1
  V  V69  1  0.49616047  0.49314109  0.50024141  1
  V  V70  1  0.37310391  -0.00303703  0.88351850  1
  V  V71  1  0.24623836  0.62234817  0.38226028  1
  V  V72  1  0.49953648  0.13572721  0.12819477  1
  V  V73  1  0.49937105  0.25114388  0.75227149  1
  V  V74  1  0.37339227  0.75421161  0.11358360  1
  V  V75  1  0.86529140  0.37567670  0.00121496  1
  V  V76  1  0.75173116  0.88098471  0.12852244  1
  V  V77  1  0.11790428  0.37024646  0.24704368  1
  V  V78  1  0.49754499  0.87568594  0.88403594  1
  V  V79  1  0.87442121  0.25147233  0.63061170  1
  V  V80  1  0.37874908  0.13882803  0.24758264  1
  V  V81  1  0.25040940  0.49905709  0.24955572  1
  V  V82  1  0.62267180  0.62899590  0.49947465  1
  V  V83  1  0.49836405  0.36591346  0.37056545  1
  V  V84  1  0.12115897  0.24668979  0.37063894  1
  Zn  Zn85  1  0.75435697  0.13242640  0.37459833  1
  Zn  Zn86  1  0.37129474  0.62481616  0.75235994  1
  Zn  Zn87  1  0.49717021  0.75150851  0.75158280  1
  Zn  Zn88  1  0.62176202  0.49940993  0.62493504  1
  Zn  Zn89  1  0.87368798  0.87032941  0.50333188  1
  Zn  Zn90  1  0.87465445  0.62240785  0.24503065  1
  Zn  Zn91  1  0.37587893  0.25511428  0.62127125  1
  Zn  Zn92  1  0.61471004  0.49428909  0.12068391  1
  Zn  Zn93  1  0.81178081  0.31032603  0.45904976  1
  Zn  Zn94  1  -0.00930090  0.62550020  0.62277647  1
  Zn  Zn95  1  0.00195882  -0.00272409  -0.00248223  1
  Zn  Zn96  1  0.24740814  -0.00129198  0.75336694  1
  Zn  Zn97  1  0.12270808  0.24771358  0.86994722  1
  Zn  Zn98  1  0.24667179  0.50212987  0.75186231  1
  Zn  Zn99  1  0.88041146  0.50337846  0.87036489  1
  Zn  Zn100  1  0.24321141  0.74419923  0.50563777  1
  Zn  Zn101  1  0.75075585  0.23846205  0.00998979  1
  Zn  Zn102  1  0.49958120  0.75337205  0.24949710  1
  Zn  Zn103  1  0.49463097  0.87768353  0.37218272  1
  Zn  Zn104  1  0.63780641  0.13483162  0.49895354  1
  Zn  Zn105  1  0.49637736  0.62361896  0.12012760  1
  Zn  Zn106  1  0.63567432  0.25194039  0.38057964  1
  Zn  Zn107  1  0.18947101  0.18681153  0.18787088  1
  Zn  Zn108  1  0.18607970  0.18920081  0.68652643  1
  Zn  Zn109  1  0.19101259  0.68805871  0.18848201  1
  Zn  Zn110  1  0.18780084  0.68617547  0.69634139  1
  Zn  Zn111  1  0.70291658  0.18377591  0.18877477  1
  Zn  Zn112  1  0.68518580  0.19193902  0.68464964  1
  Zn  Zn113  1  0.68556445  0.69172173  0.18845777  1
  Zn  Zn114  1  0.67968323  0.68530861  0.69389996  1
  Zn  Zn115  1  0.30924021  0.31223922  0.31367458  1
  Zn  Zn116  1  0.30952871  0.31457832  0.81239908  1
  Zn  Zn117  1  0.31020796  0.80820925  0.31111256  1
  Zn  Zn118  1  0.30926942  0.81094759  0.81460466  1
  Zn  Zn119  1  0.80894877  0.30684359  0.29011537  1
  Zn  Zn120  1  0.81585153  0.31205274  0.80862560  1
  Zn  Zn121  1  0.81382780  0.81357827  0.31213373  1
  Zn  Zn122  1  0.80795171  0.81716154  0.81081867  1
  Zn  Zn123  1  0.18490738  0.43539439  0.43876077  1
  Zn  Zn124  1  0.18654785  0.43740496  0.93619314  1
  Zn  Zn125  1  0.18683264  0.93586614  0.43930596  1
  Zn  Zn126  1  0.18488205  0.93714593  0.93622273  1
  Zn  Zn127  1  0.67818310  0.44147938  0.43076657  1
  Zn  Zn128  1  0.68921296  0.43831530  0.93328143  1
  Zn  Zn129  1  0.69153748  0.95201835  0.44305928  1
  Zn  Zn130  1  0.68700367  1.06326161  0.93795065  1
  Zn  Zn131  1  0.31306326  0.06208745  0.06539805  1
  Zn  Zn132  1  0.31140489  0.06070443  0.56459978  1
  Zn  Zn133  1  0.31647221  0.56077439  0.06257068  1
  Zn  Zn134  1  0.31268570  0.56065814  0.56204690  1
  Zn  Zn135  1  0.81809368  0.06516660  0.06730610  1
  Zn  Zn136  1  0.81641466  0.06478518  0.56346121  1
  Zn  Zn137  1  0.81494925  0.56566381  0.05797809  1
  Zn  Zn138  1  0.80971434  0.53141228  0.55438562  1
  Zn  Zn139  1  0.44245302  0.44116761  0.18697528  1
  Zn  Zn140  1  0.43509689  0.43888943  0.69148347  1
  Zn  Zn141  1  0.44116986  0.93724929  0.18617120  1
  Zn  Zn142  1  0.43549796  0.93916692  0.68993797  1
  Zn  Zn143  1  0.93826700  0.43737109  0.18692815  1
  Zn  Zn144  1  0.93745570  0.43350222  0.68328473  1
  Zn  Zn145  1  0.94089991  0.93597428  0.18703051  1
  Zn  Zn146  1  0.93507765  0.93730463  0.69104146  1
  Zn  Zn147  1  0.06282934  0.06080594  0.31095367  1
  Zn  Zn148  1  0.06291932  0.06001269  0.81678853  1
  Zn  Zn149  1  0.06192545  0.56032872  0.30760450  1
  Zn  Zn150  1  0.06471465  0.56310659  0.80956571  1
  Zn  Zn151  1  0.56715074  0.06864031  0.31124850  1
  Zn  Zn152  1  0.55738582  0.06142561  0.80869337  1
  Zn  Zn153  1  0.56183423  0.56072750  0.31030382  1
  Zn  Zn154  1  0.56354212  0.56188925  0.81432488  1
  Zn  Zn155  1  0.43679571  0.18405995  0.43591723  1
  Zn  Zn156  1  0.43979308  0.19015547  0.93994109  1
  Zn  Zn157  1  0.43714491  0.68927923  0.43858950  1
  Zn  Zn158  1  0.43554153  0.68816014  0.93639769  1
  Zn  Zn159  1  0.93860159  0.18201626  0.44046438  1
  Zn  Zn160  1  0.93593168  0.19088776  0.94275868  1
  Zn  Zn161  1  0.94095096  0.67956332  0.42959881  1
  Zn  Zn162  1  0.94102264  0.69022136  0.93744683  1
  Zn  Zn163  1  0.06227571  0.31410294  0.05720207  1
  Zn  Zn164  1  0.06400661  0.31289458  0.55929275  1
  Zn  Zn165  1  0.06215708  0.81854596  0.06269143  1
  Zn  Zn166  1  0.05798043  0.80876126  0.56716781  1
  Zn  Zn167  1  0.56456598  0.31187818  0.06075364  1
  Zn  Zn168  1  0.56249752  0.31166779  0.56108541  1
  Zn  Zn169  1  0.56115700  0.81443102  0.06456995  1
  Zn  Zn170  1  0.56188352  0.81480424  0.56195574  1
  O  O171  1  0.13563565  0.11545102  0.11636388  1
  O  O172  1  0.11752040  0.11967014  0.62097325  1
  O  O173  1  0.11942642  0.61706894  0.13011838  1
  O  O174  1  0.12522656  0.61212458  0.62865004  1
  O  O175  1  0.61859824  0.11440773  0.14150099  1
  O  O176  1  0.61544790  0.11776573  0.62453992  1
  O  O177  1  0.62522089  0.63040098  0.10898887  1
  O  O178  1  0.61483958  0.62499254  0.61825397  1
  O  O179  1  0.38021312  0.38674864  0.36628078  1
  O  O180  1  0.38095948  0.38052698  0.88187936  1
  O  O181  1  0.37103612  0.86881037  0.39031681  1
  O  O182  1  0.38388312  0.88496983  0.86656418  1
  O  O183  1  0.88117148  0.37603154  0.37029690  1
  O  O184  1  0.88180872  0.37856262  0.88081478  1
  O  O185  1  0.88588472  0.87834704  0.37706967  1
  O  O186  1  0.86596415  0.88268479  0.88681904  1
  O  O187  1  0.24395938  0.00957832  0.36794687  1
  O  O188  1  0.25783201  0.00510482  0.87433121  1
  O  O189  1  0.25489623  0.50318446  0.37109893  1
  O  O190  1  0.25452101  0.50963829  0.87585843  1
  O  O191  1  0.76870268  -0.01443447  0.36484735  1
  O  O192  1  0.75503138  0.00276172  0.86210076  1
  O  O193  1  0.75461143  0.50967712  0.36941727  1
  O  O194  1  0.75250258  0.50867848  0.86603817  1
  O  O195  1  0.24626930  0.49042261  0.12827472  1
  O  O196  1  0.24210550  0.49361243  0.62364076  1
  O  O197  1  0.24573363  0.99096725  0.13278986  1
  O  O198  1  0.24130059  0.99188967  0.62925326  1
  O  O199  1  0.74779511  0.50783990  0.13500681  1
  O  O200  1  0.74192950  0.49127185  0.63375174  1
  O  O201  1  0.74252215  0.99244466  0.12292958  1
  O  O202  1  0.74349849  0.99390174  0.63662175  1
  O  O203  1  0.01169402  0.38019982  0.26026222  1
  O  O204  1  0.00682665  0.38184817  0.75901326  1
  O  O205  1  0.00937477  0.86776422  0.25524360  1
  O  O206  1  0.01037746  0.86593014  0.74513552  1
  O  O207  1  0.51278254  0.37843089  0.25698678  1
  O  O208  1  0.50602560  0.37070107  0.75703544  1
  O  O209  1  0.51035688  0.87467496  0.25410924  1
  O  O210  1  0.50992639  0.87939375  0.75748460  1
  O  O211  1  0.48492890  0.11939532  0.24555453  1
  O  O212  1  0.49226002  0.12899066  0.74037644  1
  O  O213  1  0.48626233  0.62793244  0.25309016  1
  O  O214  1  0.49852193  0.62460951  0.73793270  1
  O  O215  1  0.98853275  0.13027878  0.26156247  1
  O  O216  1  1.00745079  0.12322571  0.73692430  1
  O  O217  1  0.99842548  0.62898861  0.23721401  1
  O  O218  1  0.99663111  0.63369192  0.74629038  1
  O  O219  1  0.36301064  0.25972451  -0.00445407  1
  O  O220  1  0.36018352  0.24421973  0.50030913  1
  O  O221  1  0.37507064  0.74754791  0.01465186  1
  O  O222  1  0.37163911  0.75721717  0.51209829  1
  O  O223  1  0.87198436  0.26062771  0.00535802  1
  O  O224  1  0.88409052  0.24729403  0.51676988  1
  O  O225  1  0.87143878  0.75933022  0.00317854  1
  O  O226  1  0.87208288  0.74834917  0.49753202  1
  O  O227  1  0.13456731  0.24301430  0.49235621  1
  O  O228  1  0.13686125  0.24383286  0.99845704  1
  O  O229  1  0.12286725  0.75229971  0.48706803  1
  O  O230  1  0.11852092  0.75550299  0.98462841  1
  O  O231  1  0.62224561  0.24713816  0.49574577  1
  O  O232  1  0.63111584  0.25594608  0.98431343  1
  O  O233  1  0.62205987  0.74690333  0.48821326  1
  O  O234  1  0.63063510  0.74709159  0.99512486  1
  O  O235  1  0.50454103  0.23480770  0.11990956  1
  O  O236  1  0.49537960  0.24318262  0.63236889  1
  O  O237  1  0.48748052  0.74724428  0.12729625  1
  O  O238  1  0.49182833  0.74314791  0.62566044  1
  O  O239  1  0.98691608  0.24773391  0.11014549  1
  O  O240  1  0.99985885  0.23740967  0.62216694  1
  O  O241  1  0.99912642  0.74387659  0.12762871  1
  O  O242  1  1.00065718  0.74269651  0.64028659  1
  O  O243  1  0.01339456  0.25527335  0.38275655  1
  O  O244  1  0.00289605  0.26302316  0.87978335  1
  O  O245  1  0.00668478  0.75167529  0.36832000  1
  O  O246  1  0.01443409  0.74187844  0.86534221  1
  O  O247  1  0.49325409  0.26480723  0.37837112  1
  O  O248  1  0.50817149  0.25897820  0.87094510  1
  O  O249  1  0.50955247  0.75498775  0.37454699  1
  O  O250  1  0.50165476  0.75985246  0.87383829  1
  O  O251  1  0.24547048  0.12699227  0.49219997  1
  O  O252  1  0.24749373  0.13281842  0.99704898  1
  O  O253  1  0.25239271  0.62499173  0.48640158  1
  O  O254  1  0.25157017  0.62146715  0.98684147  1
  O  O255  1  0.74309305  0.09062795  0.48557687  1
  O  O256  1  0.75200913  0.12530274  1.00193260  1
  O  O257  1  0.74904343  0.62892982  0.49791261  1
  O  O258  1  0.74205973  0.63326499  0.99251694  1
  O  O259  1  0.25570526  0.36886082  0.00634923  1
  O  O260  1  0.24454021  0.36530337  0.50810169  1
  O  O261  1  0.25003595  0.87892182  0.01119779  1
  O  O262  1  0.25378238  0.87323428  0.51259457  1
  O  O263  1  0.76328197  0.37698070  -0.00414177  1
  O  O264  1  0.74548077  0.38998325  0.51159893  1
  O  O265  1  0.76260050  0.86707722  0.01399476  1
  O  O266  1  0.74899681  0.87974721  0.51644919  1
  O  O267  1  0.13213293  0.49050227  0.24362010  1
  O  O268  1  0.12465031  0.49047815  0.73903034  1
  O  O269  1  0.13553030  0.99609051  0.24394765  1
  O  O270  1  0.12492521  0.98888664  0.74742405  1
  O  O271  1  0.63190407  0.49454736  0.24738604  1
  O  O272  1  0.63008658  0.48826891  0.75136890  1
  O  O273  1  0.62282910  0.98893205  0.24350223  1
  O  O274  1  0.63219531  0.99601952  0.74433252  1
  O  O275  1  0.36488826  0.00308348  0.24805386  1
  O  O276  1  0.37428800  0.01199279  0.76024270  1
  O  O277  1  0.36848284  0.50752774  0.25782461  1
  O  O278  1  0.37150102  0.50026603  0.76559154  1
  O  O279  1  0.88777298  0.00922910  0.25678781  1
  O  O280  1  0.86233768  -0.00495841  0.76269483  1
  O  O281  1  0.86566608  0.49778125  0.25683542  1
  O  O282  1  0.86268463  0.49747011  0.74846311  1
  O  O283  1  0.12038454  0.36652661  0.36636451  1
  O  O284  1  0.11746427  0.37545378  0.86524272  1
  O  O285  1  0.12148643  0.86635371  0.37015960  1
  O  O286  1  0.13203911  0.86079636  0.86662158  1
  O  O287  1  0.61454444  0.37404252  0.36337697  1
  O  O288  1  0.61783265  0.36963177  0.86978437  1
  O  O289  1  0.62980186  0.87189132  0.37032674  1
  O  O290  1  0.61419310  0.86976351  0.86692895  1
  O  O291  1  0.38156625  0.12100855  0.13900279  1
  O  O292  1  0.37935084  0.12633736  0.63448486  1
  O  O293  1  0.37103177  0.63621828  0.13272154  1
  O  O294  1  0.37962802  0.63253514  0.62639078  1
  O  O295  1  0.88650146  0.12854272  0.13616795  1
  O  O296  1  0.88943705  0.12867939  0.62525154  1
  O  O297  1  0.88380243  0.63423027  0.12439189  1
  O  O298  1  0.86215655  0.62849741  0.60949733  1
  O  O299  1  0.24657920  0.26273098  0.11841758  1
  O  O300  1  0.24965471  0.25728067  0.61591459  1
  O  O301  1  0.26184268  0.75920960  0.13042441  1
  O  O302  1  0.25431667  0.75504892  0.62481937  1
  O  O303  1  0.77472282  0.24643071  0.12468532  1
  O  O304  1  0.75660036  0.25893356  0.62509609  1
  O  O305  1  0.75692367  0.75518038  0.12002119  1
  O  O306  1  0.74949082  0.75313504  0.62533123  1
  O  O307  1  0.24132969  0.24217204  0.38040075  1
  O  O308  1  0.24731195  0.24489270  0.88316529  1
  O  O309  1  0.24130726  0.74042218  0.37741459  1
  O  O310  1  0.23972399  0.73850732  0.87360508  1
  O  O311  1  0.75678643  0.25477210  0.37692774  1
  O  O312  1  0.73546915  0.25437556  0.87074967  1
  O  O313  1  0.74487400  0.73769956  0.37044192  1
  O  O314  1  0.74320391  0.74527582  0.87881391  1
  O  O315  1  0.01465334  0.12203040  -0.00531427  1
  O  O316  1  0.00893835  0.11410914  0.50723739  1
  O  O317  1  -0.00212219  0.61830227  0.01066304  1
  O  O318  1  -0.00245129  0.61015100  0.50003738  1
  O  O319  1  0.49309031  0.11563362  0.01057297  1
  O  O320  1  0.49388084  0.11753831  0.51192817  1
  O  O321  1  0.51703399  0.63040400  -0.00495517  1
  O  O322  1  0.50038532  0.61822263  0.50987244  1
  O  O323  1  0.50229746  0.38847099  0.49317115  1
  O  O324  1  0.48983271  0.36867772  0.99260532  1
  O  O325  1  0.48874867  0.88289724  0.50109514  1
  O  O326  1  0.50369905  0.88607041  0.98985965  1
  O  O327  1  1.00720734  0.38380020  0.48406459  1
  O  O328  1  0.99382208  0.38348861  0.98998982  1
  O  O329  1  0.99901127  0.88082085  0.49702864  1
  O  O330  1  0.98241800  0.87841128  1.00526503  1
  O  O331  1  0.49172917  0.49470152  0.38084188  1
  O  O332  1  0.49345634  0.48805532  0.87273422  1
  O  O333  1  0.50390117  0.99986912  0.38977396  1
  O  O334  1  0.49464557  0.99693070  0.88307848  1
  O  O335  1  0.99317904  0.49277356  0.37595204  1
  O  O336  1  0.99994727  0.49705221  0.88189057  1
  O  O337  1  1.00030194  0.99111189  0.38417086  1
  O  O338  1  0.98329307  0.99917273  0.87411782  1
  O  O339  1  0.01819086  -0.00539348  0.12367396  1
  O  O340  1  0.00220356  0.00705036  0.62047448  1
  O  O341  1  0.00568870  0.50745404  0.11926548  1
  O  O342  1  0.00412767  0.50191058  0.61405604  1
  O  O343  1  0.50780549  0.00530147  0.11838888  1
  O  O344  1  0.50580528  0.00736107  0.62350144  1
  O  O345  1  0.50146616  0.51043016  0.12394705  1
  O  O346  1  0.49747694  0.50565389  0.61798586  1
  O  O347  1  0.24199484  0.37841739  0.24290710  1
  O  O348  1  0.24068481  0.37886010  0.74266187  1
  O  O349  1  0.24621553  0.88164752  0.24734862  1
  O  O350  1  0.24155825  0.87379540  0.74009236  1
  O  O351  1  0.73380718  0.38644650  0.25257961  1
  O  O352  1  0.74249179  0.38153620  0.74313315  1
  O  O353  1  0.74389703  0.86803318  0.23652894  1
  O  O354  1  0.73795444  0.88150723  0.74302951  1
  O  O355  1  0.25960785  0.11791799  0.25522474  1
  O  O356  1  0.25602636  0.12443643  0.75572668  1
  O  O357  1  0.25966452  0.61939931  0.25902946  1
  O  O358  1  0.25288835  0.62063144  0.76369978  1
  O  O359  1  0.77961480  0.13132362  0.25753640  1
  O  O360  1  0.74573668  0.11176955  0.74394411  1
  O  O361  1  0.74885128  0.61826131  0.25629396  1
  O  O362  1  0.74154660  0.61515102  0.75944004  1
  O  O363  1  0.36562049  0.12626325  0.36306523  1
  O  O364  1  0.37111501  0.11961693  0.86986100  1
  O  O365  1  0.36819156  0.61899196  0.36941258  1
  O  O366  1  0.36658461  0.61885211  0.87611169  1
  O  O367  1  0.87918851  0.11195273  0.37139425  1
  O  O368  1  0.87729181  0.11534690  0.87588550  1
  O  O369  1  0.86627931  0.61511926  0.36817149  1
  O  O370  1  0.86162611  0.62455328  0.88213380  1
  O  O371  1  0.13001654  0.37996132  0.13077235  1
  O  O372  1  0.13141738  0.38131823  0.62953144  1
  O  O373  1  0.13538863  0.87970156  0.13064546  1
  O  O374  1  0.13054053  0.87740349  0.63185627  1
  O  O375  1  0.62150345  0.37600072  0.13634061  1
  O  O376  1  0.62936716  0.37502391  0.63529107  1
  O  O377  1  0.63211311  0.88337709  0.13149780  1
  O  O378  1  0.62775895  0.88210244  0.63380142  1
  O  O379  1  0.13109258  0.25769945  0.25833747  1
  O  O380  1  0.12732520  0.26477475  0.74997043  1
  O  O381  1  0.12126409  0.75453714  0.25855285  1
  O  O382  1  0.11635288  0.75441205  0.75816325  1
  O  O383  1  0.63307102  0.26223996  0.24990046  1
  O  O384  1  0.62039076  0.25983132  0.75800998  1
  O  O385  1  0.62313657  0.76038769  0.26063088  1
  O  O386  1  0.61985102  0.75942284  0.75824932  1
  O  O387  1  0.36926387  0.23743306  0.24898603  1
  O  O388  1  0.37929288  0.23948241  0.75211244  1
  O  O389  1  0.37660227  0.74227298  0.24462250  1
  O  O390  1  0.37658707  0.75022988  0.73854863  1
  O  O391  1  0.88897435  0.24677607  0.23637088  1
  O  O392  1  0.87750324  0.25347612  0.73308962  1
  O  O393  1  0.88542782  0.74915854  0.24298133  1
  O  O394  1  0.89186937  0.75628854  0.76073299  1
  O  O395  1  0.38187087  0.50436555  0.48805300  1
  O  O396  1  0.37089914  0.48895662  0.98867997  1
  O  O397  1  0.38195150  0.98904052  0.50841941  1
  O  O398  1  0.38124407  1.00331315  0.98917864  1
  O  O399  1  0.88440463  0.49439100  0.48053230  1
  O  O400  1  0.88655981  0.49337577  1.00020202  1
  O  O401  1  0.88826596  0.99642893  0.49185703  1
  O  O402  1  0.87558328  0.99424324  0.98806359  1
  O  O403  1  0.12532309  0.00757825  0.00690869  1
  O  O404  1  0.11642498  0.00243193  0.50710917  1
  O  O405  1  0.11221827  0.49314598  0.00681767  1
  O  O406  1  0.11622567  0.49621547  0.50785856  1
  O  O407  1  0.61503873  0.00460930  0.01055056  1
  O  O408  1  0.61176281  -0.00442454  0.51572032  1
  O  O409  1  0.63245201  0.51438986  0.00015897  1
  O  O410  1  0.61340178  0.51076420  0.50007240  1
  O  O411  1  0.36703954  0.38014587  0.11691435  1
  O  O412  1  0.35904224  0.37464188  0.63152218  1
  O  O413  1  0.36913196  0.86259875  0.12970666  1
  O  O414  1  0.36659277  0.86926312  0.62223085  1
  O  O415  1  0.88255812  0.36611378  0.11695747  1
  O  O416  1  0.86257407  0.36889349  0.62350632  1
  O  O417  1  0.86956036  0.87177567  0.12101794  1
  O  O418  1  0.86355699  0.87680101  0.62464423  1
  O  O419  1  0.13351482  0.13041008  0.37824515  1
  O  O420  1  0.13342921  0.12499935  0.88311013  1
  O  O421  1  0.13343087  0.63145121  0.36653982  1
  O  O422  1  0.13539550  0.63425262  0.87398486  1
  O  O423  1  0.63229025  0.13162273  0.37516200  1
  O  O424  1  0.61977369  0.13749839  0.87117954  1
  O  O425  1  0.63133030  0.63190158  0.37986759  1
  O  O426  1  0.63144003  0.63073082  0.88395242  1
