# generated using pymatgen
data_V85Zn86O256
_symmetry_space_group_name_H-M   'P 1'
_cell_length_a   16.92858279
_cell_length_b   16.92641208
_cell_length_c   16.93353002
_cell_angle_alpha   90.05245926
_cell_angle_beta   89.96537233
_cell_angle_gamma   90.02082576
_symmetry_Int_Tables_number   1
_chemical_formula_structural   V85Zn86O256
_chemical_formula_sum   'V85 Zn86 O256'
_cell_volume   4852.13329957
_cell_formula_units_Z   1
loop_
 _symmetry_equiv_pos_site_id
 _symmetry_equiv_pos_as_xyz
  1  'x, y, z'
loop_
 _atom_site_type_symbol
 _atom_site_label
 _atom_site_symmetry_multiplicity
 _atom_site_fract_x
 _atom_site_fract_y
 _atom_site_fract_z
 _atom_site_occupancy
  V  V0  1  0.12253822  0.86225998  0.25231964  1
  V  V1  1  -0.00851374  0.87671299  0.87857048  1
  V  V2  1  0.64470061  0.11751006  0.49481860  1
  V  V3  1  0.50200051  0.88017338  0.38245756  1
  V  V4  1  0.62507336  0.87710053  0.24766135  1
  V  V5  1  0.50034647  0.74223698  0.24759517  1
  V  V6  1  0.12415527  0.62478359  0.00083689  1
  V  V7  1  0.37229624  0.75277942  0.62848125  1
  V  V8  1  0.24864200  0.12678826  0.87449677  1
  V  V9  1  0.12960840  0.62840863  0.48713502  1
  V  V10  1  0.12128007  0.24995164  0.87398561  1
  V  V11  1  0.63038811  0.37617963  0.24768143  1
  V  V12  1  0.00043955  0.50651818  0.50540074  1
  V  V13  1  0.75188706  0.00613428  0.25245149  1
  V  V14  1  0.12519341  0.37590850  0.24828180  1
  V  V15  1  0.25324035  0.50172541  0.75093265  1
  V  V16  1  0.37768453  0.25451842  0.12296976  1
  V  V17  1  0.12322179  0.51043679  0.62662704  1
  V  V18  1  -0.00310478  0.24357124  0.73991257  1
  V  V19  1  0.37665491  0.87546536  -0.00028088  1
  V  V20  1  0.24998385  0.25299001  0.00025188  1
  V  V21  1  0.86121352  -0.00210342  0.88177716  1
  V  V22  1  0.63002003  0.38119513  0.75819363  1
  V  V23  1  0.62251113  0.62294749  0.49951721  1
  V  V24  1  0.12391200  0.74920248  0.87516427  1
  V  V25  1  0.49900324  0.62880246  0.62856664  1
  V  V26  1  0.37851625  0.74239661  0.12381226  1
  V  V27  1  0.62367301  0.63236948  0.00724412  1
  V  V28  1  -0.00496020  0.37372183  0.87422864  1
  V  V29  1  0.37951630  0.62926292  0.75514823  1
  V  V30  1  0.24956704  0.87493056  0.12393366  1
  V  V31  1  0.85762588  0.61830419  0.74741574  1
  V  V32  1  -0.00491200  0.12458124  0.12454562  1
  V  V33  1  0.49605409  0.38141990  0.87421013  1
  V  V34  1  0.86794702  0.25523831  0.12246177  1
  V  V35  1  0.12610843  0.25101560  0.37490099  1
  V  V36  1  0.86602488  0.37211295  0.50213299  1
  V  V37  1  0.73667753  0.24137493  -0.00426051  1
  V  V38  1  0.12111418  0.87518333  0.74720841  1
  V  V39  1  0.87576469  0.50115926  0.37350100  1
  V  V40  1  0.86967200  0.11259070  0.74319335  1
  V  V41  1  0.50391429  0.11510423  0.60563092  1
  V  V42  1  0.25705453  0.25574737  0.50020860  1
  V  V43  1  0.62700866  0.00624658  0.12043290  1
  V  V44  1  0.37155396  0.50720316  0.38290921  1
  V  V45  1  0.00367559  0.86199823  0.37136389  1
  V  V46  1  0.12333710  0.00021059  0.12638996  1
  V  V47  1  0.49396766  0.37089147  0.38346206  1
  V  V48  1  0.25630940  0.37660533  0.62404271  1
  V  V49  1  0.62403658  0.74961672  0.37455865  1
  V  V50  1  0.12297391  0.50003616  0.12545159  1
  V  V51  1  0.62307561  0.74305699  0.85954512  1
  V  V52  1  0.25048985  0.12691656  0.37487787  1
  V  V53  1  0.12349951  0.37539990  0.74832493  1
  V  V54  1  0.87605784  0.87443350  0.49993120  1
  V  V55  1  0.24998897  -0.00003181  0.74894415  1
  V  V56  1  0.87669008  0.74647553  0.62377215  1
  V  V57  1  0.50238769  0.00371176  0.00067369  1
  V  V58  1  0.55848514  0.20584905  0.80590868  1
  V  V59  1  0.63237076  0.50263141  0.63189021  1
  V  V60  1  0.12239331  0.12409086  0.00005330  1
  V  V61  1  -0.00102572  0.73682414  0.74639454  1
  V  V62  1  0.64089154  0.25087063  0.38248388  1
  V  V63  1  0.38013212  0.12408081  0.24720954  1
  V  V64  1  0.85920682  0.50162089  0.86949406  1
  V  V65  1  0.86225598  0.24780061  0.62445168  1
  V  V66  1  0.24893990  0.75004715  0.48700431  1
  V  V67  1  0.11916208  0.12712244  0.50758644  1
  V  V68  1  0.76394702  0.86674521  0.11937747  1
  V  V69  1  -0.00141423  0.25147836  0.24829543  1
  V  V70  1  0.74887881  0.62445156  0.37298478  1
  V  V71  1  0.86137255  0.37823042  0.00171621  1
  V  V72  1  0.24962253  -0.00001222  0.25037106  1
  V  V73  1  -0.00310002  0.63973894  0.12913143  1
  V  V74  1  0.00030431  0.37702338  0.37610896  1
  V  V75  1  0.37900278  0.00248731  0.38468414  1
  V  V76  1  0.49157786  0.50079996  0.01243376  1
  V  V77  1  0.37663993  0.13111437  0.74923543  1
  V  V78  1  0.38742006  0.25703015  0.62306510  1
  V  V79  1  0.87960664  0.64128681  0.24977277  1
  V  V80  1  0.87951916  0.00767158  0.37333456  1
  V  V81  1  0.63727486  0.49991674  0.12307799  1
  V  V82  1  -0.00326391  0.49840706  -0.00151099  1
  V  V83  1  0.25448674  0.37763601  0.12132299  1
  V  V84  1  0.62558436  0.88895614  0.74121803  1
  Zn  Zn85  1  0.75121000  0.88652355  0.62843133  1
  Zn  Zn86  1  0.75544799  0.50052500  0.24077447  1
  Zn  Zn87  1  0.75014743  0.75025848  0.50167297  1
  Zn  Zn88  1  0.50655297  0.13036691  0.11991886  1
  Zn  Zn89  1  0.37106661  0.62443150  0.25285181  1
  Zn  Zn90  1  -0.00623044  -0.00570854  0.00196370  1
  Zn  Zn91  1  0.00296689  -0.00027481  0.50317918  1
  Zn  Zn92  1  0.25012053  0.50567371  0.25618692  1
  Zn  Zn93  1  0.37641285  0.87868638  0.50374031  1
  Zn  Zn94  1  0.74789400  0.37669205  0.62959115  1
  Zn  Zn95  1  0.37342019  -0.00115206  0.87593635  1
  Zn  Zn96  1  0.49550150  0.49389075  0.50645970  1
  Zn  Zn97  1  0.73788733  0.12547121  0.87099432  1
  Zn  Zn98  1  0.11851776  0.00797480  0.63038742  1
  Zn  Zn99  1  0.25090364  0.62496823  0.87677969  1
  Zn  Zn100  1  0.50470296  0.25113846  0.24929695  1
  Zn  Zn101  1  0.76193447  0.75029888  -0.00796299  1
  Zn  Zn102  1  0.24943924  0.87702548  0.62239717  1
  Zn  Zn103  1  0.86937853  0.13080714  0.25407659  1
  Zn  Zn104  1  0.37159464  0.49906901  0.88203415  1
  Zn  Zn105  1  0.25133529  0.75001109  -0.00121369  1
  Zn  Zn106  1  0.49786585  0.86902351  0.86806182  1
  Zn  Zn107  1  0.18849781  0.18790404  0.18723274  1
  Zn  Zn108  1  0.19160947  0.19249316  0.68674957  1
  Zn  Zn109  1  0.19274214  0.68537846  0.18818238  1
  Zn  Zn110  1  0.19096588  0.68767073  0.68533253  1
  Zn  Zn111  1  0.68830832  0.19066103  0.18827555  1
  Zn  Zn112  1  0.69090158  0.06970823  0.67711063  1
  Zn  Zn113  1  0.68706981  0.68501163  0.18598866  1
  Zn  Zn114  1  0.68985928  0.69293001  0.68351270  1
  Zn  Zn115  1  0.31434251  0.31618254  0.30835177  1
  Zn  Zn116  1  0.31535455  0.31310623  0.81117110  1
  Zn  Zn117  1  0.31574701  0.81537027  0.31039287  1
  Zn  Zn118  1  0.31019816  0.81196088  0.81314415  1
  Zn  Zn119  1  0.81225647  0.31732906  0.31013486  1
  Zn  Zn120  1  0.80833456  0.30842505  0.81313216  1
  Zn  Zn121  1  0.81072188  0.81742230  0.31321484  1
  Zn  Zn122  1  0.80533382  0.81059327  0.81139400  1
  Zn  Zn123  1  0.18827359  0.43796117  0.43946592  1
  Zn  Zn124  1  0.18700002  0.43673739  0.93702025  1
  Zn  Zn125  1  0.18821608  0.93689009  0.43684712  1
  Zn  Zn126  1  0.18556912  0.93769882  0.93629418  1
  Zn  Zn127  1  0.68501426  0.43999536  0.43706398  1
  Zn  Zn128  1  0.68170747  0.43830514  0.94058699  1
  Zn  Zn129  1  0.69428109  0.93910916  0.43732678  1
  Zn  Zn130  1  0.68432069  0.92736605  0.93666088  1
  Zn  Zn131  1  0.31347457  0.06342170  0.06269365  1
  Zn  Zn132  1  0.30947491  0.06820763  0.56555670  1
  Zn  Zn133  1  0.31020726  0.56401182  0.06593423  1
  Zn  Zn134  1  0.31295102  0.56566787  0.56054305  1
  Zn  Zn135  1  0.80823240  0.06377744  0.06237634  1
  Zn  Zn136  1  0.82241218  0.06229667  0.55890571  1
  Zn  Zn137  1  0.82346509  0.59248329  0.04837839  1
  Zn  Zn138  1  0.81203446  0.56461445  0.56246021  1
  Zn  Zn139  1  0.44004711  0.43695833  0.19576617  1
  Zn  Zn140  1  0.44258187  0.44066501  0.69143296  1
  Zn  Zn141  1  0.44009513  0.93583858  0.18818887  1
  Zn  Zn142  1  0.43886269  0.93759520  0.68874025  1
  Zn  Zn143  1  0.93656611  0.44087370  0.18525812  1
  Zn  Zn144  1  0.93697050  0.43720618  0.68690374  1
  Zn  Zn145  1  0.93819410  0.93575685  0.19085386  1
  Zn  Zn146  1  0.94099486  0.93627064  0.68405333  1
  Zn  Zn147  1  0.06126814  0.06074230  0.31360722  1
  Zn  Zn148  1  0.05606732  0.06157100  0.81223680  1
  Zn  Zn149  1  0.06219438  0.56513761  0.31002883  1
  Zn  Zn150  1  0.05944725  0.56034983  0.81469659  1
  Zn  Zn151  1  0.56473754  0.06531840  0.31627069  1
  Zn  Zn152  1  0.55551169  0.04385346  0.81253074  1
  Zn  Zn153  1  0.55819631  0.55684268  0.31203790  1
  Zn  Zn154  1  0.56219518  0.56330374  0.81601689  1
  Zn  Zn155  1  0.43860789  0.19222274  0.43576721  1
  Zn  Zn156  1  0.43360328  0.18669477  0.94271180  1
  Zn  Zn157  1  0.43799935  0.69004385  0.44101126  1
  Zn  Zn158  1  0.44329612  0.68639611  0.93793313  1
  Zn  Zn159  1  0.93614919  0.19101679  0.43822089  1
  Zn  Zn160  1  0.93122594  0.18557737  0.93485407  1
  Zn  Zn161  1  0.94064049  0.68587509  0.43838687  1
  Zn  Zn162  1  0.93647091  0.68562879  0.93295405  1
  Zn  Zn163  1  0.05840503  0.31293700  0.06072805  1
  Zn  Zn164  1  0.06289920  0.31763725  0.56262156  1
  Zn  Zn165  1  0.06119297  0.81382580  0.06137736  1
  Zn  Zn166  1  0.06181395  0.81116538  0.56227827  1
  Zn  Zn167  1  0.56028758  0.32068352  0.06253291  1
  Zn  Zn168  1  0.57056057  0.30932971  0.56568841  1
  Zn  Zn169  1  0.56212957  0.81659079  0.06424840  1
  Zn  Zn170  1  0.56069985  0.81038620  0.56423915  1
  O  O171  1  0.11718839  0.12124675  0.12068394  1
  O  O172  1  0.13029909  0.13039409  0.61076460  1
  O  O173  1  0.11768409  0.61982087  0.11886739  1
  O  O174  1  0.13001065  0.61352382  0.61815142  1
  O  O175  1  0.62458332  0.11078729  0.13192037  1
  O  O176  1  0.61448257  0.12821830  0.60629106  1
  O  O177  1  0.62090289  0.61832059  0.11593097  1
  O  O178  1  0.61863109  0.62345943  0.61968479  1
  O  O179  1  0.39001008  0.37825589  0.37158122  1
  O  O180  1  0.39001247  0.37627055  0.87072118  1
  O  O181  1  0.38430993  0.88597765  0.37518466  1
  O  O182  1  0.37402227  0.87332593  0.88782519  1
  O  O183  1  0.87973418  0.38202620  0.38252275  1
  O  O184  1  0.87766473  0.38087065  0.87935597  1
  O  O185  1  0.88706599  0.88015578  0.37798564  1
  O  O186  1  0.87727713  0.88805355  0.86524761  1
  O  O187  1  0.25753212  0.00592757  0.36830925  1
  O  O188  1  0.25003196  0.00737445  0.86475441  1
  O  O189  1  0.26831284  0.48813910  0.37547351  1
  O  O190  1  0.25065243  0.49981626  0.86368049  1
  O  O191  1  0.76596034  -0.00859545  0.36302968  1
  O  O192  1  0.75764932  0.00166587  0.87927939  1
  O  O193  1  0.75746090  0.51167081  0.37617639  1
  O  O194  1  0.76036254  0.49528606  0.87737751  1
  O  O195  1  0.24066749  0.49157515  0.12358096  1
  O  O196  1  0.24615321  0.49743592  0.63412567  1
  O  O197  1  0.24454984  0.99506959  0.13046969  1
  O  O198  1  0.24472681  1.00112527  0.63740291  1
  O  O199  1  0.73899343  0.50744917  0.12092816  1
  O  O200  1  0.73614970  0.50053523  0.62193238  1
  O  O201  1  0.74460408  0.99053051  0.12950227  1
  O  O202  1  0.75327089  0.99898773  0.61820546  1
  O  O203  1  0.00494608  0.37062933  0.25498439  1
  O  O204  1  0.00462810  0.36863948  0.75623765  1
  O  O205  1  0.00801075  0.87805342  0.26199737  1
  O  O206  1  0.00509253  0.86487533  0.75988068  1
  O  O207  1  0.51323025  0.37430083  0.26388872  1
  O  O208  1  0.50880667  0.38014913  0.76518981  1
  O  O209  1  0.50883492  0.86935118  0.25905868  1
  O  O210  1  0.51613135  0.88142848  0.75066395  1
  O  O211  1  0.48909804  0.12743896  0.24861293  1
  O  O212  1  0.49832723  0.13462296  0.75001139  1
  O  O213  1  0.49828084  0.63922199  0.25563875  1
  O  O214  1  0.48765471  0.62091447  0.74402093  1
  O  O215  1  1.00001621  0.13226436  0.23865684  1
  O  O216  1  0.98628776  0.13450168  0.75565220  1
  O  O217  1  0.99323954  0.62464104  0.24205812  1
  O  O218  1  1.00010029  0.63499545  0.74924055  1
  O  O219  1  0.36666419  0.24656063  0.01462479  1
  O  O220  1  0.36717507  0.24760162  0.50827768  1
  O  O221  1  0.37604177  0.75672250  0.00651868  1
  O  O222  1  0.36407111  0.75193077  0.50683952  1
  O  O223  1  0.86875682  0.25833703  0.00542394  1
  O  O224  1  0.88458162  0.26139870  0.51070666  1
  O  O225  1  0.86031169  0.69917601  0.01036525  1
  O  O226  1  0.87744466  0.75387591  0.50739194  1
  O  O227  1  0.13094904  0.24394810  0.49557074  1
  O  O228  1  0.12844800  0.24448203  0.99412705  1
  O  O229  1  0.13813021  0.74261451  0.50583113  1
  O  O230  1  0.12420228  0.74251549  0.99184894  1
  O  O231  1  0.62547305  0.24291711  0.48752597  1
  O  O232  1  0.63911259  0.25442597  1.00934388  1
  O  O233  1  0.62531775  0.73883393  0.49361487  1
  O  O234  1  0.62402551  0.73836993  1.00504337  1
  O  O235  1  0.49242378  0.25036481  0.12665924  1
  O  O236  1  0.49159833  0.24036180  0.61821866  1
  O  O237  1  0.49083510  0.75997920  0.13616571  1
  O  O238  1  0.48713121  0.73740803  0.61900464  1
  O  O239  1  0.99017868  0.24450804  0.12851519  1
  O  O240  1  0.99609584  0.25825845  0.63754289  1
  O  O241  1  0.99998892  0.73882518  0.12116969  1
  O  O242  1  0.98809762  0.75488028  0.63413191  1
  O  O243  1  0.00503330  0.25730627  0.36795759  1
  O  O244  1  0.00107450  0.25544799  0.86704401  1
  O  O245  1  -0.00054945  0.76285164  0.37498819  1
  O  O246  1  0.00644608  0.75346035  0.86833258  1
  O  O247  1  0.50571937  0.26088135  0.37213048  1
  O  O248  1  0.50105683  0.25750308  0.87687764  1
  O  O249  1  0.50476091  0.75843168  0.36870687  1
  O  O250  1  0.51821110  0.75549737  0.88449429  1
  O  O251  1  0.24336106  0.13783878  0.49459684  1
  O  O252  1  0.24328991  0.13107810  0.99452546  1
  O  O253  1  0.24397324  0.63910720  0.50223071  1
  O  O254  1  0.23620893  0.62588583  0.99922598  1
  O  O255  1  0.74312506  0.12643995  0.49845106  1
  O  O256  1  0.74812382  0.13678191  0.99571304  1
  O  O257  1  0.74258146  0.62717494  0.49133864  1
  O  O258  1  0.72342507  0.61805129  0.99557169  1
  O  O259  1  0.24425048  0.36907591  0.01242365  1
  O  O260  1  0.24435748  0.36296999  0.50789140  1
  O  O261  1  0.25617801  0.87520199  0.00566937  1
  O  O262  1  0.25006046  0.86436789  0.50270349  1
  O  O263  1  0.75843157  0.36702426  -0.00321864  1
  O  O264  1  0.76355739  0.38306478  0.50143967  1
  O  O265  1  0.74799792  0.86972840  0.01495738  1
  O  O266  1  0.76617656  0.86955506  0.49508689  1
  O  O267  1  0.12457763  0.49172290  0.24311426  1
  O  O268  1  0.13109213  0.49773870  0.74408568  1
  O  O269  1  0.13135645  0.99631657  0.24352098  1
  O  O270  1  0.13008537  0.99275131  0.75227318  1
  O  O271  1  0.62573524  0.49583588  0.24061483  1
  O  O272  1  0.62124048  0.49525218  0.74390062  1
  O  O273  1  0.63198808  0.99378969  0.24758938  1
  O  O274  1  0.63031415  0.99428025  0.74484599  1
  O  O275  1  0.36970053  0.00749729  0.25429644  1
  O  O276  1  0.36750356  0.01156888  0.75058904  1
  O  O277  1  0.37729160  0.50177930  0.26578725  1
  O  O278  1  0.36675685  0.50848397  0.75194368  1
  O  O279  1  0.86959275  0.00294445  0.25607465  1
  O  O280  1  0.87995815  0.00963811  0.75628140  1
  O  O281  1  0.87545486  0.49990410  0.26483699  1
  O  O282  1  0.87649773  0.51050734  0.75252114  1
  O  O283  1  0.12063772  0.37068301  0.36968897  1
  O  O284  1  0.11743930  0.36901880  0.86872664  1
  O  O285  1  0.11256537  0.87992189  0.36778326  1
  O  O286  1  0.11750150  0.86807583  0.86601520  1
  O  O287  1  0.61944204  0.36647080  0.37324373  1
  O  O288  1  0.61227947  0.37900319  0.86997726  1
  O  O289  1  0.62174955  0.87218240  0.36618278  1
  O  O290  1  0.62210094  0.86741129  0.85956633  1
  O  O291  1  0.37561795  0.13270763  0.13328271  1
  O  O292  1  0.38653094  0.13174365  0.62973828  1
  O  O293  1  0.37548719  0.63948167  0.12368611  1
  O  O294  1  0.38118234  0.63027629  0.63197542  1
  O  O295  1  0.88170704  0.13280896  0.12589302  1
  O  O296  1  0.87760490  0.13157519  0.63621857  1
  O  O297  1  0.88827161  0.60895903  0.14276195  1
  O  O298  1  0.87393893  0.62919369  0.63723259  1
  O  O299  1  0.25514366  0.25761866  0.12080224  1
  O  O300  1  0.26193726  0.25510931  0.61787632  1
  O  O301  1  0.25932730  0.75955136  0.12130516  1
  O  O302  1  0.26137166  0.75197924  0.61927243  1
  O  O303  1  0.76182559  0.24516753  0.11560515  1
  O  O304  1  0.76367526  0.25513062  0.62491671  1
  O  O305  1  0.74584543  0.76587538  0.12916952  1
  O  O306  1  0.76464400  0.75303818  0.62150496  1
  O  O307  1  0.24767770  0.24905527  0.38119656  1
  O  O308  1  0.24355178  0.24717030  0.87936793  1
  O  O309  1  0.25557731  0.75450974  0.38811658  1
  O  O310  1  0.23445238  0.74865359  0.87636129  1
  O  O311  1  0.73971896  0.25418679  0.37502826  1
  O  O312  1  0.75132863  0.24559721  0.89084142  1
  O  O313  1  0.74304060  0.73964669  0.37442768  1
  O  O314  1  0.72944514  0.75522377  0.87957457  1
  O  O315  1  0.00308292  0.12660630  0.01071896  1
  O  O316  1  0.01743470  0.12794466  0.49381776  1
  O  O317  1  0.01046433  0.61754048  0.00571419  1
  O  O318  1  0.00799775  0.61331118  0.49817549  1
  O  O319  1  0.49403080  0.10954157  0.00225172  1
  O  O320  1  0.49960839  0.12159009  0.50430157  1
  O  O321  1  0.50949130  0.60887919  -0.00307507  1
  O  O322  1  0.50748055  0.62289412  0.50821323  1
  O  O323  1  0.50813828  0.37451204  0.48682540  1
  O  O324  1  0.50337697  0.38947337  0.98893207  1
  O  O325  1  0.49979224  0.87150032  0.48651946  1
  O  O326  1  0.49024075  0.88470041  1.00272694  1
  O  O327  1  0.99541331  0.38704295  0.49425127  1
  O  O328  1  0.98930743  0.37861506  0.99241891  1
  O  O329  1  0.99377925  0.87313169  0.48854170  1
  O  O330  1  1.00154067  0.87336708  0.98331481  1
  O  O331  1  0.49254524  0.48807460  0.38043339  1
  O  O332  1  0.49558918  0.49296320  0.88425628  1
  O  O333  1  0.49014365  0.99309969  0.36747909  1
  O  O334  1  0.49228849  0.99068130  0.88578949  1
  O  O335  1  0.99342626  0.49613552  0.38179497  1
  O  O336  1  0.99293087  0.49095625  0.87968515  1
  O  O337  1  0.99368383  0.99166707  0.37806621  1
  O  O338  1  0.98864361  0.99100723  0.87641211  1
  O  O339  1  0.00254425  0.00792479  0.12318370  1
  O  O340  1  0.00714068  -0.00437394  0.61742649  1
  O  O341  1  0.00896156  0.50215493  0.11704761  1
  O  O342  1  0.01107999  0.49382329  0.61681975  1
  O  O343  1  0.50931843  0.00053397  0.12002242  1
  O  O344  1  0.49644286  0.01842513  0.62748373  1
  O  O345  1  0.50429194  0.49314544  0.11450235  1
  O  O346  1  0.50768662  0.51216861  0.62409370  1
  O  O347  1  0.24228595  0.37706486  0.23798245  1
  O  O348  1  0.24404784  0.38187994  0.74543931  1
  O  O349  1  0.24350575  0.88108878  0.24489435  1
  O  O350  1  0.24140832  0.88442677  0.75106756  1
  O  O351  1  0.73657232  0.38371261  0.25642354  1
  O  O352  1  0.73479537  0.37181076  0.75149259  1
  O  O353  1  0.74319177  0.88341617  0.24254327  1
  O  O354  1  0.73095317  0.86782483  0.74597656  1
  O  O355  1  0.25953601  0.12206636  0.25520472  1
  O  O356  1  0.25683505  0.12068797  0.75309751  1
  O  O357  1  0.25677034  0.61846771  0.24577895  1
  O  O358  1  0.25811485  0.61733388  0.75150207  1
  O  O359  1  0.75120768  0.11088225  0.24522846  1
  O  O360  1  0.76542712  0.12592564  0.75222073  1
  O  O361  1  0.75812527  0.62181864  0.25684033  1
  O  O362  1  0.75953034  0.62541030  0.74945261  1
  O  O363  1  0.37100948  0.12113234  0.36748001  1
  O  O364  1  0.36773800  0.12666240  0.86589389  1
  O  O365  1  0.38208342  0.61025478  0.37720680  1
  O  O366  1  0.37184162  0.62508156  0.86887139  1
  O  O367  1  0.88259533  0.11324271  0.37316243  1
  O  O368  1  0.87206740  0.11129244  0.86518235  1
  O  O369  1  0.86996099  0.61917811  0.37032543  1
  O  O370  1  0.88126693  0.61412107  0.85538124  1
  O  O371  1  0.12874302  0.37953510  0.12886228  1
  O  O372  1  0.13360189  0.38445631  0.63109336  1
  O  O373  1  0.12796111  0.88171055  0.13020856  1
  O  O374  1  0.12682611  0.87182635  0.63949720  1
  O  O375  1  0.62227901  0.38507085  0.13602415  1
  O  O376  1  0.62331372  0.38568454  0.63392919  1
  O  O377  1  0.62852176  0.88425919  0.13714827  1
  O  O378  1  0.62680650  0.86649924  0.63733687  1
  O  O379  1  0.12047015  0.25685458  0.25431777  1
  O  O380  1  0.11711728  0.25317368  0.75408451  1
  O  O381  1  0.12817599  0.76366008  0.24317074  1
  O  O382  1  0.11863579  0.75352744  0.75507323  1
  O  O383  1  0.62606439  0.25699439  0.26018565  1
  O  O384  1  0.61523051  0.26171750  0.74687239  1
  O  O385  1  0.61937929  0.75686160  0.25446531  1
  O  O386  1  0.61992327  0.74555002  0.75786704  1
  O  O387  1  0.37527751  0.24238152  0.23953000  1
  O  O388  1  0.36955771  0.23839727  0.73938153  1
  O  O389  1  0.38392366  0.75245007  0.24211179  1
  O  O390  1  0.36911876  0.74143054  0.74279098  1
  O  O391  1  0.87834547  0.25164730  0.24145783  1
  O  O392  1  0.87998976  0.24245363  0.74423207  1
  O  O393  1  0.87260500  0.74012233  0.25423137  1
  O  O394  1  0.87926851  0.73837952  0.74628575  1
  O  O395  1  0.37675389  0.49954833  0.48963908  1
  O  O396  1  0.38686096  0.50488127  1.00176083  1
  O  O397  1  0.36591291  1.00137614  0.48788555  1
  O  O398  1  0.37961639  0.99173030  1.00053248  1
  O  O399  1  0.88261971  0.49790660  0.49292502  1
  O  O400  1  0.87739459  0.49575433  0.99132192  1
  O  O401  1  0.88083638  0.99099860  0.48920670  1
  O  O402  1  0.87510129  1.00447550  0.98500850  1
  O  O403  1  0.12057263  0.00662517  0.00641653  1
  O  O404  1  0.13107880  0.01852964  0.49870696  1
  O  O405  1  0.11943400  0.50617239  0.00407245  1
  O  O406  1  0.12075639  0.50561763  0.50728487  1
  O  O407  1  0.61631385  -0.00847611  0.00887675  1
  O  O408  1  0.62784759  0.01838776  0.48474259  1
  O  O409  1  0.61388789  0.50491254  0.00796908  1
  O  O410  1  0.62209490  0.51115271  0.50647659  1
  O  O411  1  0.36596556  0.36791135  0.13286066  1
  O  O412  1  0.37209943  0.36738546  0.63314751  1
  O  O413  1  0.36942754  0.87087760  0.11653194  1
  O  O414  1  0.37403503  0.86769534  0.62383912  1
  O  O415  1  0.87933879  0.36792164  0.11420745  1
  O  O416  1  0.87297143  0.36981534  0.61849312  1
  O  O417  1  0.86290376  0.87698247  0.12738160  1
  O  O418  1  0.87492014  0.86652688  0.61552694  1
  O  O419  1  0.13203975  0.13313502  0.37980362  1
  O  O420  1  0.12768808  0.13059884  0.87904756  1
  O  O421  1  0.12576279  0.61826042  0.38782776  1
  O  O422  1  0.12346488  0.63178480  0.88269899  1
  O  O423  1  0.62218205  0.14080852  0.38321163  1
  O  O424  1  0.61685223  0.13716537  0.85582359  1
  O  O425  1  0.63030936  0.62523672  0.38056647  1
  O  O426  1  0.61782283  0.63798107  0.88403238  1
