# generated using pymatgen
data_V85Zn86O256
_symmetry_space_group_name_H-M   'P 1'
_cell_length_a   16.96754486
_cell_length_b   16.99226930
_cell_length_c   16.98802559
_cell_angle_alpha   89.97929122
_cell_angle_beta   90.09193343
_cell_angle_gamma   89.96403776
_symmetry_Int_Tables_number   1
_chemical_formula_structural   V85Zn86O256
_chemical_formula_sum   'V85 Zn86 O256'
_cell_volume   4897.93053981
_cell_formula_units_Z   1
loop_
 _symmetry_equiv_pos_site_id
 _symmetry_equiv_pos_as_xyz
  1  'x, y, z'
loop_
 _atom_site_type_symbol
 _atom_site_label
 _atom_site_symmetry_multiplicity
 _atom_site_fract_x
 _atom_site_fract_y
 _atom_site_fract_z
 _atom_site_occupancy
  V  V0  1  0.37196481  0.74234869  0.61790666  1
  V  V1  1  0.25032975  0.25513969  0.00307285  1
  V  V2  1  0.62544912  0.86741312  0.25981636  1
  V  V3  1  0.12338447  0.85962944  0.75499906  1
  V  V4  1  0.25246782  0.49465675  0.75483496  1
  V  V5  1  0.25200374  0.11193327  0.37550831  1
  V  V6  1  0.87649596  0.73443424  0.12451853  1
  V  V7  1  0.73934335  0.37647796  0.61969679  1
  V  V8  1  0.88055608  0.88031759  0.50548022  1
  V  V9  1  0.75262531  0.50431073  0.24623450  1
  V  V10  1  0.48811212  -0.00392878  0.49175638  1
  V  V11  1  0.49790281  0.75074792  0.74366602  1
  V  V12  1  0.49857940  0.37644513  0.37356381  1
  V  V13  1  0.62105043  0.63228942  0.49748608  1
  V  V14  1  0.00573943  0.50059623  0.00785475  1
  V  V15  1  0.62506967  0.12377012  0.00425029  1
  V  V16  1  0.13473773  -0.00294539  0.12690641  1
  V  V17  1  0.25083769  0.87370043  0.61972462  1
  V  V18  1  0.12879584  0.39242349  0.24707958  1
  V  V19  1  0.70021314  0.29632122  -0.04432235  1
  V  V20  1  0.37400000  0.37228787  0.49811527  1
  V  V21  1  0.24539126  0.65028947  0.37311879  1
  V  V22  1  0.38031363  0.12418919  0.75062225  1
  V  V23  1  0.50419354  0.11625057  0.62686369  1
  V  V24  1  0.36025305  0.50111799  0.37002064  1
  V  V25  1  0.00628988  0.86900280  0.87453850  1
  V  V26  1  0.11475399  0.00059677  0.62711123  1
  V  V27  1  0.25003651  0.24427392  0.49903116  1
  V  V28  1  0.61664210  0.50018630  0.12365316  1
  V  V29  1  0.00440891  0.24887361  0.24771711  1
  V  V30  1  0.87557306  0.74035138  0.63920326  1
  V  V31  1  0.12887250  0.62253668  0.01328659  1
  V  V32  1  0.24750135  -0.00120234  0.75215233  1
  V  V33  1  0.87831356  0.87117734  0.00195611  1
  V  V34  1  0.62617540  0.11348289  0.49935270  1
  V  V35  1  0.61798578  0.62533607  0.00005794  1
  V  V36  1  -0.00443612  0.37512311  0.37360811  1
  V  V37  1  0.01478095  0.36872373  0.88070549  1
  V  V38  1  0.00244225  0.87268917  0.37620412  1
  V  V39  1  0.38100555  0.39260488  0.00010423  1
  V  V40  1  0.75269609  0.00040039  0.24961410  1
  V  V41  1  0.49974212  0.00538716  0.00177855  1
  V  V42  1  0.87978315  0.00133500  0.37948369  1
  V  V43  1  0.75179216  0.62776524  0.37108256  1
  V  V44  1  0.37303626  0.75210586  0.12852871  1
  V  V45  1  0.12711022  0.86619740  0.24736744  1
  V  V46  1  0.75210042  0.87413173  0.12463974  1
  V  V47  1  0.92622626  0.42358501  0.53897127  1
  V  V48  1  0.37617055  0.11601192  0.25169533  1
  V  V49  1  0.37224965  0.87683956  0.00475811  1
  V  V50  1  0.74853226  0.50331984  0.74730372  1
  V  V51  1  0.24700810  0.37450195  0.62852429  1
  V  V52  1  0.37453612  0.00155264  0.87585780  1
  V  V53  1  0.49492067  0.50766987  0.49896824  1
  V  V54  1  0.74320618  0.00083737  0.74580052  1
  V  V55  1  0.62116547  0.00148587  0.12738764  1
  V  V56  1  0.74467957  0.87854023  0.62452833  1
  V  V57  1  0.00043474  -0.00092359  0.00122204  1
  V  V58  1  0.87240553  0.12972552  0.75127364  1
  V  V59  1  0.61839676  0.50253588  0.62289714  1
  V  V60  1  -0.00545110  0.74292476  0.25436745  1
  V  V61  1  0.74486458  0.11991135  0.87988550  1
  V  V62  1  0.11563030  0.11892644  0.49865381  1
  V  V63  1  0.86992927  0.49745428  0.37210001  1
  V  V64  1  0.12568025  0.12917175  -0.00467773  1
  V  V65  1  0.75110017  0.37245006  0.12767781  1
  V  V66  1  0.62425962  0.24938246  0.37472734  1
  V  V67  1  0.87887223  0.37741647  -0.01067771  1
  V  V68  1  0.75159110  0.12605486  0.37364139  1
  V  V69  1  0.37791913  0.62020050  0.75282377  1
  V  V70  1  0.75513361  0.25427428  0.49709587  1
  V  V71  1  0.62467177  0.75262474  0.87204848  1
  V  V72  1  0.49843620  0.24370440  0.24841900  1
  V  V73  1  0.87393778  0.25081404  0.12000609  1
  V  V74  1  0.38278217  0.24663541  0.62521540  1
  V  V75  1  0.00041178  0.12436398  0.12376747  1
  V  V76  1  0.25129964  0.62374707  0.87904738  1
  V  V77  1  0.75069237  0.74951709  -0.00187888  1
  V  V78  1  0.75256507  0.75082298  0.49542156  1
  V  V79  1  0.25060903  0.13555669  0.87405282  1
  V  V80  1  0.49967884  0.87769202  0.87339260  1
  V  V81  1  0.37256313  0.24740596  0.12694617  1
  V  V82  1  0.24631277  0.75572528  -0.00241585  1
  V  V83  1  0.75325233  0.62502851  0.86750291  1
  V  V84  1  0.01424078  0.24432103  0.75667747  1
  Zn  Zn85  1  0.87496177  0.24900230  0.62320562  1
  Zn  Zn86  1  0.50016300  0.62756669  0.12531806  1
  Zn  Zn87  1  0.49054787  0.87026469  0.37343203  1
  Zn  Zn88  1  0.53967300  0.26725210  0.76607846  1
  Zn  Zn89  1  0.62087061  0.88033935  0.74422859  1
  Zn  Zn90  1  0.87539309  -0.00090952  0.87499033  1
  Zn  Zn91  1  0.24883629  0.39026989  0.13033891  1
  Zn  Zn92  1  0.36173335  0.86920921  0.48870196  1
  Zn  Zn93  1  0.37607236  0.61666795  0.24674213  1
  Zn  Zn94  1  0.91503706  0.54126684  0.82890609  1
  Zn  Zn95  1  0.00547582  0.61559644  0.14306777  1
  Zn  Zn96  1  0.25445020  -0.00781891  0.25048464  1
  Zn  Zn97  1  -0.00520322  0.12354073  0.62346075  1
  Zn  Zn98  1  0.48546279  0.38758274  0.86338494  1
  Zn  Zn99  1  0.13436526  0.66097623  0.50225978  1
  Zn  Zn100  1  0.12587124  0.24818762  0.37338122  1
  Zn  Zn101  1  0.02973599  0.68074512  0.70542907  1
  Zn  Zn102  1  0.87600946  0.12493042  0.24843358  1
  Zn  Zn103  1  0.62490590  0.37539991  0.25046184  1
  Zn  Zn104  1  0.50347340  0.74293096  0.25539832  1
  Zn  Zn105  1  0.13615324  0.36838363  0.75740901  1
  Zn  Zn106  1  0.06448448  0.54346466  0.56936993  1
  Zn  Zn107  1  0.18900183  0.18568619  0.18685414  1
  Zn  Zn108  1  0.19109864  0.18405572  0.68460849  1
  Zn  Zn109  1  0.19023160  0.56842119  0.20109348  1
  Zn  Zn110  1  0.19692968  0.67983224  0.68201392  1
  Zn  Zn111  1  0.68696454  0.18747730  0.18745289  1
  Zn  Zn112  1  0.68592968  0.18031255  0.67816836  1
  Zn  Zn113  1  0.68999013  0.68646644  0.18526655  1
  Zn  Zn114  1  0.68546713  0.68868964  0.68252144  1
  Zn  Zn115  1  0.30963906  0.30909524  0.31374290  1
  Zn  Zn116  1  0.34416304  0.30835657  0.81701171  1
  Zn  Zn117  1  0.31571893  0.82055978  0.31060691  1
  Zn  Zn118  1  0.31210526  0.81104840  0.81346261  1
  Zn  Zn119  1  0.81508162  0.31402683  0.30916874  1
  Zn  Zn120  1  0.75367584  0.28844859  0.78387115  1
  Zn  Zn121  1  0.81743368  0.81240932  0.31288820  1
  Zn  Zn122  1  0.81256250  0.81731711  0.81529663  1
  Zn  Zn123  1  0.17732515  0.43175703  0.43838703  1
  Zn  Zn124  1  0.19507438  0.44057737  0.94129769  1
  Zn  Zn125  1  0.18066096  0.93424931  0.43834098  1
  Zn  Zn126  1  0.18865700  0.94038674  0.93724694  1
  Zn  Zn127  1  0.68336500  0.43906721  0.43740409  1
  Zn  Zn128  1  0.64053301  0.46640729  0.91109496  1
  Zn  Zn129  1  0.69217439  0.93825453  0.43754900  1
  Zn  Zn130  1  0.68722918  0.93742112  0.93673682  1
  Zn  Zn131  1  0.31394165  0.06678534  0.06438179  1
  Zn  Zn132  1  0.30927961  0.05995196  0.56507298  1
  Zn  Zn133  1  0.31226011  0.56691814  0.06733131  1
  Zn  Zn134  1  0.26756969  0.54340889  0.54218753  1
  Zn  Zn135  1  0.81232509  0.06174593  0.06279178  1
  Zn  Zn136  1  0.81154742  0.06337085  0.56400456  1
  Zn  Zn137  1  0.80970550  0.55805605  0.05215677  1
  Zn  Zn138  1  0.80911072  0.56922028  0.56362666  1
  Zn  Zn139  1  0.43467849  0.43327387  0.18756887  1
  Zn  Zn140  1  0.43634289  0.43827729  0.68262373  1
  Zn  Zn141  1  0.44148608  0.93585433  0.18554462  1
  Zn  Zn142  1  0.43561407  0.93725853  0.68286885  1
  Zn  Zn143  1  0.93714411  0.43718323  0.18783692  1
  Zn  Zn144  1  0.93049405  0.42083363  0.70360910  1
  Zn  Zn145  1  0.93949501  0.93593563  0.18789750  1
  Zn  Zn146  1  0.93316006  0.93713150  0.69299399  1
  Zn  Zn147  1  0.06283467  0.06015563  0.31166794  1
  Zn  Zn148  1  0.06253342  0.05929010  0.81552883  1
  Zn  Zn149  1  0.04260291  0.58237381  0.36391861  1
  Zn  Zn150  1  0.08361685  0.55188663  0.82609516  1
  Zn  Zn151  1  0.56301387  0.06067674  0.31292832  1
  Zn  Zn152  1  0.56477317  0.06644283  0.81388726  1
  Zn  Zn153  1  0.56364902  0.56588054  0.31232972  1
  Zn  Zn154  1  0.55824699  0.56637282  0.80466341  1
  Zn  Zn155  1  0.43698136  0.18223701  0.43492573  1
  Zn  Zn156  1  0.44191492  0.19399872  0.93790369  1
  Zn  Zn157  1  0.43616884  0.68980018  0.42985655  1
  Zn  Zn158  1  0.43668889  0.69009556  0.93422134  1
  Zn  Zn159  1  0.93728549  0.18882325  0.43481285  1
  Zn  Zn160  1  0.93261175  0.18876168  0.93535903  1
  Zn  Zn161  1  0.97422751  0.71021758  0.46992731  1
  Zn  Zn162  1  0.96347056  0.66981957  0.90541581  1
  Zn  Zn163  1  0.06695418  0.31313516  0.06633266  1
  Zn  Zn164  1  0.06729556  0.30183548  0.56956257  1
  Zn  Zn165  1  0.06424655  0.80595696  0.06829241  1
  Zn  Zn166  1  0.05715182  0.82242616  0.57357064  1
  Zn  Zn167  1  0.55487024  0.31624645  0.06972594  1
  Zn  Zn168  1  0.56282885  0.30971946  0.55926080  1
  Zn  Zn169  1  0.56040865  0.81492650  0.06398910  1
  Zn  Zn170  1  0.56225476  0.81129622  0.56030885  1
  O  O171  1  0.12022442  0.11778297  0.11476854  1
  O  O172  1  0.12355886  0.11664416  0.61768647  1
  O  O173  1  0.12327381  0.62208166  0.11724092  1
  O  O174  1  0.10777224  0.63553974  0.62886227  1
  O  O175  1  0.63325471  0.11108873  0.11901968  1
  O  O176  1  0.61616311  0.12471618  0.61091041  1
  O  O177  1  0.62382926  0.61917712  0.11776544  1
  O  O178  1  0.62916860  0.61868564  0.60624182  1
  O  O179  1  0.38009113  0.37929393  0.37880420  1
  O  O180  1  0.36701603  0.38636881  0.89663013  1
  O  O181  1  0.37626393  0.88282832  0.37858308  1
  O  O182  1  0.38051789  0.88290216  0.88213857  1
  O  O183  1  0.87980744  0.38238090  0.37609871  1
  O  O184  1  0.88750479  0.36900892  0.89040543  1
  O  O185  1  0.87632671  0.88485051  0.38455434  1
  O  O186  1  0.88197303  0.87834310  0.88725392  1
  O  O187  1  0.24407642  0.00960100  0.37374555  1
  O  O188  1  0.25628424  0.01110678  0.87137515  1
  O  O189  1  0.26198378  0.49008526  0.37586724  1
  O  O190  1  0.25432612  0.50962547  0.86855704  1
  O  O191  1  0.75893504  0.00576654  0.36806383  1
  O  O192  1  0.75234368  0.00602065  0.86916872  1
  O  O193  1  0.75168590  0.50029017  0.36472362  1
  O  O194  1  0.73533828  0.50991206  0.85814812  1
  O  O195  1  0.25311400  0.50267247  0.13470038  1
  O  O196  1  0.26674072  0.48232835  0.63840377  1
  O  O197  1  0.23720901  1.00360400  0.12489411  1
  O  O198  1  0.24312017  0.99248426  0.63411776  1
  O  O199  1  0.74832959  0.48996506  0.13021507  1
  O  O200  1  0.73987530  0.49537073  0.62289515  1
  O  O201  1  0.74650816  0.99302289  0.13170348  1
  O  O202  1  0.75278866  0.99211193  0.63404907  1
  O  O203  1  0.00806538  0.36832088  0.25494937  1
  O  O204  1  0.00580487  0.36246209  0.76387248  1
  O  O205  1  0.00360814  0.87093851  0.25811449  1
  O  O206  1  0.01030251  0.88468482  0.76271878  1
  O  O207  1  0.50053250  0.36639449  0.26135241  1
  O  O208  1  0.48925812  0.36799286  0.74822671  1
  O  O209  1  0.51861011  0.88026851  0.25014696  1
  O  O210  1  0.50001290  0.87217710  0.75595313  1
  O  O211  1  0.49050481  0.13286603  0.25902200  1
  O  O212  1  0.49762348  0.12531866  0.74067404  1
  O  O213  1  0.49462134  0.62568412  0.24564764  1
  O  O214  1  0.49057211  0.63842644  0.75120323  1
  O  O215  1  0.99768734  0.13178220  0.24313944  1
  O  O216  1  0.99070814  0.13030148  0.75573756  1
  O  O217  1  1.00326974  0.64009759  0.26288726  1
  O  O218  1  0.99618640  0.62085605  0.79547374  1
  O  O219  1  0.36397291  0.24794654  0.01120615  1
  O  O220  1  0.37012571  0.24875175  0.50661930  1
  O  O221  1  0.37488437  0.76181319  0.00372605  1
  O  O222  1  0.38354109  0.75205697  0.51611867  1
  O  O223  1  0.88225356  0.25749466  0.01447855  1
  O  O224  1  0.85868395  0.24144057  0.50007099  1
  O  O225  1  0.87023773  0.75941882  0.00817417  1
  O  O226  1  0.87211061  0.76176907  0.51164283  1
  O  O227  1  0.13475376  0.23820021  0.49939247  1
  O  O228  1  0.13882115  0.24217067  1.00638190  1
  O  O229  1  0.08177795  0.75972595  0.48767392  1
  O  O230  1  0.13739295  0.74202870  1.00801618  1
  O  O231  1  0.63276376  0.23994070  0.49163829  1
  O  O232  1  0.63083978  0.24337975  1.01381484  1
  O  O233  1  0.63739950  0.74354263  0.50325155  1
  O  O234  1  0.63168216  0.74866004  0.99414894  1
  O  O235  1  0.49114168  0.25279117  0.14142758  1
  O  O236  1  0.49391742  0.23601483  0.61843966  1
  O  O237  1  0.48882604  0.75222139  0.12684844  1
  O  O238  1  0.48751839  0.76062518  0.63645016  1
  O  O239  1  0.99528998  0.24415834  0.12989670  1
  O  O240  1  0.99462850  0.24689154  0.64149959  1
  O  O241  1  0.99195690  0.74162966  0.13483705  1
  O  O242  1  0.98042014  0.76064257  0.63766449  1
  O  O243  1  -0.00267665  0.25899390  0.36458305  1
  O  O244  1  -0.00306086  0.25533540  0.86763986  1
  O  O245  1  -0.02256765  0.76898563  0.36492364  1
  O  O246  1  0.00287382  0.77055331  0.88300826  1
  O  O247  1  0.50229379  0.25621945  0.36897422  1
  O  O248  1  0.46994027  0.26569016  0.85872426  1
  O  O249  1  0.49934599  0.75630405  0.36841904  1
  O  O250  1  0.50467972  0.75868506  0.86449079  1
  O  O251  1  0.24427732  0.12720739  0.49422171  1
  O  O252  1  0.24401269  0.13210708  0.99424880  1
  O  O253  1  0.24963279  0.63782890  0.48415297  1
  O  O254  1  0.24828006  0.63344813  0.99644375  1
  O  O255  1  0.74184612  0.13002965  0.49419233  1
  O  O256  1  0.73845645  0.11863907  0.99375408  1
  O  O257  1  0.74424232  0.63473376  0.49267307  1
  O  O258  1  0.74036552  0.63355592  0.99346476  1
  O  O259  1  0.25851219  0.36855267  0.00723052  1
  O  O260  1  0.25559043  0.36134905  0.50654322  1
  O  O261  1  0.26072859  0.87002732  -0.00744743  1
  O  O262  1  0.24455474  0.87852682  0.51584585  1
  O  O263  1  0.75908592  0.36711726  0.00690131  1
  O  O264  1  0.74330923  0.36577696  0.50523418  1
  O  O265  1  0.75865142  0.87051110  0.00323561  1
  O  O266  1  0.75732366  0.86941585  0.50494346  1
  O  O267  1  0.11953806  0.49140681  0.25672188  1
  O  O268  1  0.14645693  0.49064418  0.75217062  1
  O  O269  1  0.12409732  0.99376906  0.23961437  1
  O  O270  1  0.13284039  0.99974942  0.74392117  1
  O  O271  1  0.63649988  0.49864204  0.24138686  1
  O  O272  1  0.63027753  0.51090076  0.72758690  1
  O  O273  1  0.63296139  0.99529874  0.24357759  1
  O  O274  1  0.63846059  1.00003352  0.75400017  1
  O  O275  1  0.37309219  0.01234098  0.23815783  1
  O  O276  1  0.36831450  0.00591411  0.75434864  1
  O  O277  1  0.38149336  0.49566238  0.26791683  1
  O  O278  1  0.37338498  0.51594920  0.74544328  1
  O  O279  1  0.86679889  -0.00050704  0.25546767  1
  O  O280  1  0.86520285  0.01071655  0.75403764  1
  O  O281  1  0.86145296  0.49437261  0.25590942  1
  O  O282  1  0.85614759  0.49652855  0.74545163  1
  O  O283  1  0.11450678  0.36978914  0.36547969  1
  O  O284  1  0.11851265  0.37279518  0.87928084  1
  O  O285  1  0.11084457  0.88603038  0.36137028  1
  O  O286  1  0.11916400  0.88359591  0.86536666  1
  O  O287  1  0.61481969  0.36833413  0.37363520  1
  O  O288  1  0.64522043  0.35148086  0.89450397  1
  O  O289  1  0.62982205  0.87939152  0.36015829  1
  O  O290  1  0.61834089  0.86885945  0.87249774  1
  O  O291  1  0.36962146  0.13896598  0.13520320  1
  O  O292  1  0.38322673  0.12804747  0.62795338  1
  O  O293  1  0.38091078  0.64156311  0.12381888  1
  O  O294  1  0.36770428  0.64218922  0.63569388  1
  O  O295  1  0.88040844  0.13333464  0.12463330  1
  O  O296  1  0.87634604  0.12608846  0.63510896  1
  O  O297  1  0.87532499  0.63288079  0.11790255  1
  O  O298  1  0.87537420  0.64071299  0.62301408  1
  O  O299  1  0.25570042  0.25324697  0.11914594  1
  O  O300  1  0.25947299  0.24808622  0.61371522  1
  O  O301  1  0.27038057  0.75407699  0.10657084  1
  O  O302  1  0.26362933  0.75952138  0.63183337  1
  O  O303  1  0.75853165  0.26278079  0.13314130  1
  O  O304  1  0.74903908  0.25908939  0.61341098  1
  O  O305  1  0.75764353  0.75544803  0.11868347  1
  O  O306  1  0.75894471  0.75628739  0.61487600  1
  O  O307  1  0.24866468  0.24105574  0.38762654  1
  O  O308  1  0.26054803  0.23907104  0.88274099  1
  O  O309  1  0.25208688  0.74883573  0.37337187  1
  O  O310  1  0.25760294  0.74351726  0.88956131  1
  O  O311  1  0.74589639  0.24634737  0.37752360  1
  O  O312  1  0.75913281  0.24075811  0.89145558  1
  O  O313  1  0.76093350  0.74206838  0.38635976  1
  O  O314  1  0.74362892  0.74647157  0.87797780  1
  O  O315  1  0.00721096  0.11973389  0.00167133  1
  O  O316  1  0.01198547  0.13168028  0.50172155  1
  O  O317  1  0.01286027  0.61526016  -0.00480758  1
  O  O318  1  0.01946848  0.60632330  0.47695931  1
  O  O319  1  0.51604742  0.12277757  -0.00630582  1
  O  O320  1  0.50584398  0.11338252  0.50256287  1
  O  O321  1  0.51480687  0.63341960  -0.00090163  1
  O  O322  1  0.50801207  0.61729269  0.49072405  1
  O  O323  1  0.49360122  0.37797600  0.48855441  1
  O  O324  1  0.48175833  0.36812460  1.00074810  1
  O  O325  1  0.50413448  0.89179699  0.50283569  1
  O  O326  1  0.49353759  0.88389672  0.99176826  1
  O  O327  1  0.99984921  0.36194696  0.49145294  1
  O  O328  1  0.99880320  0.37929385  0.99859452  1
  O  O329  1  0.98481890  0.88428104  0.49358323  1
  O  O330  1  0.99621105  0.88208125  1.00004615  1
  O  O331  1  0.49616279  0.49187982  0.38305330  1
  O  O332  1  0.53505664  0.48796699  0.87776895  1
  O  O333  1  0.50339958  0.99891082  0.38986332  1
  O  O334  1  0.49487636  0.99761295  0.88080304  1
  O  O335  1  0.98551685  0.48279208  0.36903058  1
  O  O336  1  1.00060374  0.48482696  0.88594705  1
  O  O337  1  0.98562525  0.99234183  0.36836328  1
  O  O338  1  0.99900182  0.99518328  0.88997196  1
  O  O339  1  0.00510956  0.00590839  0.11572675  1
  O  O340  1  0.01132351  0.00168464  0.63234740  1
  O  O341  1  -0.00497939  0.50282810  0.11397510  1
  O  O342  1  -0.01663129  0.47568106  0.61296979  1
  O  O343  1  0.51184571  -0.00168499  0.11631411  1
  O  O344  1  0.49780487  0.01075183  0.61543085  1
  O  O345  1  0.51417689  0.49705086  0.13032301  1
  O  O346  1  0.50292361  0.49657556  0.60664373  1
  O  O347  1  0.23073174  0.36837898  0.25397594  1
  O  O348  1  0.26146254  0.37791222  0.74681292  1
  O  O349  1  0.23101286  0.87623534  0.25187657  1
  O  O350  1  0.24159044  0.87971046  0.74676908  1
  O  O351  1  0.74692570  0.38167613  0.24195591  1
  O  O352  1  0.74824533  0.38661604  0.72786462  1
  O  O353  1  0.74270540  0.88034120  0.24563636  1
  O  O354  1  0.74979197  0.88444514  0.74273111  1
  O  O355  1  0.25627229  0.12275285  0.25934366  1
  O  O356  1  0.25556759  0.11996309  0.75865792  1
  O  O357  1  0.26277998  0.62716290  0.26664674  1
  O  O358  1  0.25720455  0.61691361  0.75874818  1
  O  O359  1  0.75301908  0.11881376  0.25602316  1
  O  O360  1  0.75442821  0.11713839  0.75745326  1
  O  O361  1  0.74572105  0.61732362  0.25814910  1
  O  O362  1  0.74422037  0.61872117  0.75575540  1
  O  O363  1  0.36425549  0.12716786  0.36467499  1
  O  O364  1  0.36888712  0.11905183  0.87158495  1
  O  O365  1  0.36523184  0.61115221  0.37821684  1
  O  O366  1  0.36659167  0.63153428  0.86494699  1
  O  O367  1  0.87024919  0.11805579  0.37204481  1
  O  O368  1  0.86241407  0.12147775  0.87191165  1
  O  O369  1  0.85781539  0.60481491  0.37936365  1
  O  O370  1  0.85640655  0.62379483  0.88671757  1
  O  O371  1  0.12436319  0.37493206  0.14382097  1
  O  O372  1  0.14391278  0.36098846  0.63303847  1
  O  O373  1  0.11443350  0.88439288  0.13854487  1
  O  O374  1  0.13023074  0.88304023  0.63734381  1
  O  O375  1  0.63410840  0.38190641  0.12493341  1
  O  O376  1  0.62892040  0.38726623  0.61340468  1
  O  O377  1  0.63300337  0.88599806  0.12908908  1
  O  O378  1  0.64065845  0.86907944  0.62532289  1
  O  O379  1  0.11237428  0.24747471  0.25083220  1
  O  O380  1  0.11699013  0.24432167  0.75148516  1
  O  O381  1  0.11004869  0.76685706  0.24632088  1
  O  O382  1  0.12454854  0.75870621  0.74555799  1
  O  O383  1  0.61543239  0.24953364  0.25576172  1
  O  O384  1  0.64803872  0.24690324  0.75713340  1
  O  O385  1  0.62780625  0.76587556  0.24196588  1
  O  O386  1  0.61552412  0.75233320  0.75277689  1
  O  O387  1  0.37957539  0.24301394  0.24623350  1
  O  O388  1  0.36517871  0.23671744  0.73068648  1
  O  O389  1  0.37526858  0.75908055  0.23231509  1
  O  O390  1  0.38168592  0.74590475  0.74465405  1
  O  O391  1  0.88701713  0.25176198  0.23816591  1
  O  O392  1  0.86597371  0.23606883  0.74945376  1
  O  O393  1  0.88183263  0.75814225  0.23481534  1
  O  O394  1  0.86235679  0.75067277  0.73786525  1
  O  O395  1  0.37822744  0.49280326  0.48911736  1
  O  O396  1  0.38044132  0.49027408  1.01285781  1
  O  O397  1  0.38660521  0.99913882  0.50381727  1
  O  O398  1  0.37922448  0.99675138  0.99782585  1
  O  O399  1  0.86443594  0.49435234  0.49188027  1
  O  O400  1  0.88500303  0.48831504  1.00100931  1
  O  O401  1  0.86622850  0.99418164  0.49029611  1
  O  O402  1  0.88433376  0.99206753  1.00172932  1
  O  O403  1  0.11873086  0.00575532  0.00725914  1
  O  O404  1  0.12837161  0.00848862  0.51256914  1
  O  O405  1  0.11767535  0.50736355  -0.00222934  1
  O  O406  1  0.15713681  0.50443263  0.51743489  1
  O  O407  1  0.62138680  0.00580977  0.00756440  1
  O  O408  1  0.62179283  0.01054243  0.49482011  1
  O  O409  1  0.63885939  0.51492099  0.01473030  1
  O  O410  1  0.61491253  0.50799069  0.50376278  1
  O  O411  1  0.37101949  0.36359927  0.12067335  1
  O  O412  1  0.36968667  0.36173632  0.61553854  1
  O  O413  1  0.38027179  0.87017935  0.11178671  1
  O  O414  1  0.36406534  0.86793835  0.62294175  1
  O  O415  1  0.86849411  0.36937511  0.11850082  1
  O  O416  1  0.86651433  0.37109331  0.61506430  1
  O  O417  1  0.87179163  0.87134803  0.11487054  1
  O  O418  1  0.86499407  0.87365777  0.62035305  1
  O  O419  1  0.13022202  0.12513049  0.38260887  1
  O  O420  1  0.13434675  0.11956559  0.88827250  1
  O  O421  1  0.14596935  0.62846845  0.36897020  1
  O  O422  1  0.14501834  0.62550946  0.89040071  1
  O  O423  1  0.63168591  0.12997640  0.37982768  1
  O  O424  1  0.63706346  0.12387501  0.88496274  1
  O  O425  1  0.64060366  0.61713384  0.38572916  1
  O  O426  1  0.63329199  0.63637950  0.88056319  1
