# generated using pymatgen
data_V85Zn86O256
_symmetry_space_group_name_H-M   'P 1'
_cell_length_a   16.94128006
_cell_length_b   16.94224018
_cell_length_c   16.94193366
_cell_angle_alpha   90.06147052
_cell_angle_beta   89.98330767
_cell_angle_gamma   89.99182901
_symmetry_Int_Tables_number   1
_chemical_formula_structural   V85Zn86O256
_chemical_formula_sum   'V85 Zn86 O256'
_cell_volume   4862.72556219
_cell_formula_units_Z   1
loop_
 _symmetry_equiv_pos_site_id
 _symmetry_equiv_pos_as_xyz
  1  'x, y, z'
loop_
 _atom_site_type_symbol
 _atom_site_label
 _atom_site_symmetry_multiplicity
 _atom_site_fract_x
 _atom_site_fract_y
 _atom_site_fract_z
 _atom_site_occupancy
  V  V0  1  0.50222275  0.25169894  0.74946515  1
  V  V1  1  0.75256353  0.37583107  0.62762261  1
  V  V2  1  0.24980125  0.87492319  0.62613983  1
  V  V3  1  0.87979279  0.24422410  0.62315142  1
  V  V4  1  0.64401607  0.48214014  0.10514729  1
  V  V5  1  0.88540413  0.12107988  0.74661679  1
  V  V6  1  0.75336629  0.62965723  0.37835750  1
  V  V7  1  0.74917871  0.24864984  0.50085547  1
  V  V8  1  0.49152753  0.50080153  -0.00291897  1
  V  V9  1  0.88012541  0.63259684  0.24625528  1
  V  V10  1  0.62353665  0.87610316  0.74730055  1
  V  V11  1  0.12565558  0.87459518  0.75209068  1
  V  V12  1  0.87011880  0.87353796  0.00712002  1
  V  V13  1  0.74613015  0.12519149  0.37866725  1
  V  V14  1  0.00109614  -0.00056126  0.00625669  1
  V  V15  1  0.36826570  0.12376849  0.25017735  1
  V  V16  1  0.14000961  0.49753027  0.62664441  1
  V  V17  1  0.24799002  0.12378933  0.38043793  1
  V  V18  1  0.85365665  0.14488355  0.23336284  1
  V  V19  1  0.24431788  0.25484708  0.01165355  1
  V  V20  1  0.75013593  0.74692260  0.00969569  1
  V  V21  1  -0.00177407  0.87289723  0.87797197  1
  V  V22  1  0.87470739  0.51211091  0.86960188  1
  V  V23  1  0.49618754  0.62049759  0.61968012  1
  V  V24  1  0.13097110  0.62522008  0.00242647  1
  V  V25  1  0.49877750  -0.00165310  0.49408892  1
  V  V26  1  0.74094311  -0.00773977  0.23870582  1
  V  V27  1  0.62577548  0.75638507  0.37459359  1
  V  V28  1  0.37309594  0.74615218  0.62857824  1
  V  V29  1  0.11999324  0.00150879  0.62706349  1
  V  V30  1  0.56113614  -0.04781032  0.06106189  1
  V  V31  1  0.37056957  -0.00320131  0.37330999  1
  V  V32  1  0.62946996  0.62102919  -0.00837281  1
  V  V33  1  0.49828124  0.12628409  0.62600443  1
  V  V34  1  0.25281872  0.62331635  0.85872126  1
  V  V35  1  0.12803107  -0.00349750  0.13889948  1
  V  V36  1  0.62265252  -0.00039078  0.62544109  1
  V  V37  1  0.87341188  0.00352751  0.37260476  1
  V  V38  1  -0.00761878  0.63155854  0.62750931  1
  V  V39  1  0.36947062  0.50134372  0.85886462  1
  V  V40  1  0.12602863  0.74893378  0.87394781  1
  V  V41  1  0.24757280  0.48167746  0.24808983  1
  V  V42  1  0.12179121  0.12635802  0.50548891  1
  V  V43  1  0.12712146  0.62693278  0.50055906  1
  V  V44  1  0.75144629  0.86287828  0.62041281  1
  V  V45  1  0.87008882  0.86414850  0.49753121  1
  V  V46  1  0.87780890  0.50166483  0.38069373  1
  V  V47  1  0.75247396  0.13210583  0.88068331  1
  V  V48  1  0.00520351  0.49858773  0.50239962  1
  V  V49  1  0.24944739  0.62210068  0.36977154  1
  V  V50  1  0.50051606  0.87822089  0.87395296  1
  V  V51  1  0.37873016  0.87255784  0.49700680  1
  V  V52  1  0.00480619  0.24008370  0.25299871  1
  V  V53  1  -0.00201751  0.50028990  -0.00459322  1
  V  V54  1  -0.00581517  0.00206870  0.51269345  1
  V  V55  1  0.38008553  0.00261637  0.88393711  1
  V  V56  1  0.12883856  0.48421928  0.12508704  1
  V  V57  1  0.00254367  0.25482962  0.74427057  1
  V  V58  1  0.24884644  0.12699766  0.87803507  1
  V  V59  1  0.12531047  0.75893178  0.36839666  1
  V  V60  1  0.49555966  0.74383774  0.75104246  1
  V  V61  1  0.63332489  0.74479921  0.86958030  1
  V  V62  1  0.87781272  0.37294967  0.49778587  1
  V  V63  1  0.25109475  0.00125335  0.75254321  1
  V  V64  1  0.75151671  0.00175768  0.74914494  1
  V  V65  1  0.13946553  0.37798783  0.74692027  1
  V  V66  1  0.62247349  0.49798370  0.61809971  1
  V  V67  1  0.62320689  0.12563780  0.50137270  1
  V  V68  1  0.12278664  0.12361067  0.00611398  1
  V  V69  1  0.75516918  0.51890697  0.74889386  1
  V  V70  1  0.49953726  0.75230599  0.25350459  1
  V  V71  1  0.24874521  0.87268243  0.13828512  1
  V  V72  1  0.36145380  0.25122709  0.62058290  1
  V  V73  1  0.77497872  0.47814003  0.23686808  1
  V  V74  1  0.62238214  0.37881278  0.25150730  1
  V  V75  1  0.49945458  0.12737327  0.11753780  1
  V  V76  1  0.62793377  0.25384815  0.88377825  1
  V  V77  1  0.13114379  0.25388552  0.38166630  1
  V  V78  1  0.49868233  0.61815714  0.12565979  1
  V  V79  1  0.00566415  0.37642156  0.36849220  1
  V  V80  1  0.49759633  0.25040369  0.25352940  1
  V  V81  1  0.36772008  0.37652780  0.00517978  1
  V  V82  1  0.38331661  0.49861959  0.37559081  1
  V  V83  1  0.62487728  0.62646647  0.49657252  1
  V  V84  1  0.36975864  0.38075069  0.50597845  1
  Zn  Zn85  1  0.37440948  0.12738199  0.75129367  1
  Zn  Zn86  1  0.25576074  0.75272476  -0.00105607  1
  Zn  Zn87  1  0.00590543  0.62840667  0.12594471  1
  Zn  Zn88  1  0.87573220  0.00122787  0.87757801  1
  Zn  Zn89  1  0.62439752  0.25354757  0.37618203  1
  Zn  Zn90  1  0.00854078  0.76670610  0.23999911  1
  Zn  Zn91  1  0.25129600  0.75102845  0.49816259  1
  Zn  Zn92  1  -0.05208498  0.17541264  0.08866186  1
  Zn  Zn93  1  0.37393490  0.74771491  0.12389090  1
  Zn  Zn94  1  0.50233366  0.37842910  0.38444972  1
  Zn  Zn95  1  -0.00757800  0.37802725  0.86980533  1
  Zn  Zn96  1  0.62425064  0.87332896  0.24258670  1
  Zn  Zn97  1  0.36765804  0.25597344  0.13060350  1
  Zn  Zn98  1  0.37179539  0.87598318  0.00356223  1
  Zn  Zn99  1  -0.02202243  0.73591797  0.75569535  1
  Zn  Zn100  1  0.37518124  0.62105403  0.24839920  1
  Zn  Zn101  1  0.63103094  0.12698035  0.00605648  1
  Zn  Zn102  1  0.87641045  0.75531143  0.12744719  1
  Zn  Zn103  1  0.50000008  0.37606152  0.87371372  1
  Zn  Zn104  1  0.62719170  0.37700267  0.75092848  1
  Zn  Zn105  1  0.00425138  0.88152126  0.37157695  1
  Zn  Zn106  1  0.12398239  0.25319165  0.87487387  1
  Zn  Zn107  1  0.18331988  0.18494629  0.19178619  1
  Zn  Zn108  1  0.18459632  0.18444039  0.68853086  1
  Zn  Zn109  1  0.19002910  0.68490206  0.18791015  1
  Zn  Zn110  1  0.18167940  0.68964183  0.68616745  1
  Zn  Zn111  1  0.68016086  0.18443035  0.18963737  1
  Zn  Zn112  1  0.68917657  0.18794867  0.69180242  1
  Zn  Zn113  1  0.68694625  0.67220721  0.18857127  1
  Zn  Zn114  1  0.68206400  0.68808681  0.68245780  1
  Zn  Zn115  1  0.31335538  0.30969234  0.32182425  1
  Zn  Zn116  1  0.31519206  0.31104194  0.81609035  1
  Zn  Zn117  1  0.31469011  0.80831490  0.31237541  1
  Zn  Zn118  1  0.31391749  0.81302380  0.81531088  1
  Zn  Zn119  1  0.81670712  0.31499822  0.19276550  1
  Zn  Zn120  1  0.81552093  0.31795284  0.81345158  1
  Zn  Zn121  1  0.81031584  0.81428417  0.31399957  1
  Zn  Zn122  1  0.81196320  0.81012692  0.81514234  1
  Zn  Zn123  1  0.19380094  0.43628032  0.44060070  1
  Zn  Zn124  1  0.18509143  0.43746300  0.93243227  1
  Zn  Zn125  1  0.19055038  0.94043699  0.44100304  1
  Zn  Zn126  1  0.19042698  0.93649509  0.94382396  1
  Zn  Zn127  1  0.69093028  0.43867652  0.43427419  1
  Zn  Zn128  1  0.69095091  0.44004666  0.93109552  1
  Zn  Zn129  1  0.68797904  0.93665942  0.43658111  1
  Zn  Zn130  1  0.69426496  0.93250185  0.93101142  1
  Zn  Zn131  1  0.30849244  0.06127007  0.06674352  1
  Zn  Zn132  1  0.30967190  0.06428742  0.56311951  1
  Zn  Zn133  1  0.30730612  0.56137336  0.06146526  1
  Zn  Zn134  1  0.31355969  0.56386429  0.55938528  1
  Zn  Zn135  1  0.80892500  0.05702007  0.06322350  1
  Zn  Zn136  1  0.81226728  0.05856743  0.56516611  1
  Zn  Zn137  1  0.80511197  0.53812924  0.05869648  1
  Zn  Zn138  1  0.81194247  0.56581552  0.56226675  1
  Zn  Zn139  1  0.43828266  0.43743225  0.18709943  1
  Zn  Zn140  1  0.43907594  0.43257341  0.68364068  1
  Zn  Zn141  1  0.43109313  0.93261305  0.19542025  1
  Zn  Zn142  1  0.43515114  0.93701359  0.68922030  1
  Zn  Zn143  1  0.95124025  0.44387834  0.19085778  1
  Zn  Zn144  1  0.94005455  0.44118743  0.68622851  1
  Zn  Zn145  1  0.93457462  0.94406926  0.19010065  1
  Zn  Zn146  1  0.92277987  0.90534789  0.69987191  1
  Zn  Zn147  1  0.05790975  0.06422090  0.31799975  1
  Zn  Zn148  1  0.06230547  0.06056429  0.81734795  1
  Zn  Zn149  1  0.06559625  0.56388734  0.30898094  1
  Zn  Zn150  1  0.06556429  0.56174002  0.80896847  1
  Zn  Zn151  1  0.55972354  0.06267597  0.31074242  1
  Zn  Zn152  1  0.56399539  0.06770818  0.81577850  1
  Zn  Zn153  1  0.56671065  0.56150151  0.30846247  1
  Zn  Zn154  1  0.56061459  0.56064410  0.80686656  1
  Zn  Zn155  1  0.43556871  0.18941577  0.43934441  1
  Zn  Zn156  1  0.43464576  0.19224415  0.93808704  1
  Zn  Zn157  1  0.43914170  0.68498099  0.43752713  1
  Zn  Zn158  1  0.43441210  0.68620829  0.93604803  1
  Zn  Zn159  1  0.93815463  0.18458332  0.43336157  1
  Zn  Zn160  1  0.93667484  0.19460919  0.92766805  1
  Zn  Zn161  1  0.94422090  0.68855095  0.43745858  1
  Zn  Zn162  1  0.93693880  0.68263384  0.93872108  1
  Zn  Zn163  1  0.03976925  0.30694155  0.05053530  1
  Zn  Zn164  1  0.06588576  0.31353293  0.56363485  1
  Zn  Zn165  1  0.06518888  0.81263009  0.06425274  1
  Zn  Zn166  1  0.05968576  0.81368220  0.55755923  1
  Zn  Zn167  1  0.55479080  0.31221771  0.06242096  1
  Zn  Zn168  1  0.55836922  0.31436626  0.56138807  1
  Zn  Zn169  1  0.55774569  0.79153637  0.05977690  1
  Zn  Zn170  1  0.56189851  0.81014811  0.55968496  1
  O  O171  1  0.13173931  0.11155218  0.11506853  1
  O  O172  1  0.12651581  0.11403007  0.61887577  1
  O  O173  1  0.12755622  0.62058714  0.11490701  1
  O  O174  1  0.12198333  0.61855263  0.61570807  1
  O  O175  1  0.61077244  0.12701347  0.12172187  1
  O  O176  1  0.61980675  0.11908542  0.62134122  1
  O  O177  1  0.61403736  0.61330151  0.11183423  1
  O  O178  1  0.61815593  0.61940876  0.61485152  1
  O  O179  1  0.37830125  0.38187683  0.38546212  1
  O  O180  1  0.37463479  0.38660077  0.88328413  1
  O  O181  1  0.36852855  0.88331418  0.38456310  1
  O  O182  1  0.38311692  0.88325777  0.87827705  1
  O  O183  1  0.88822952  0.38834275  0.38317070  1
  O  O184  1  0.87668973  0.39627663  0.86618782  1
  O  O185  1  0.86777052  0.88627461  0.38673119  1
  O  O186  1  0.88370261  0.87737403  0.88786239  1
  O  O187  1  0.25778912  0.01106807  0.37908952  1
  O  O188  1  0.25463291  0.00969110  0.87250475  1
  O  O189  1  0.25538952  0.50490843  0.36708795  1
  O  O190  1  0.26207185  0.50733430  0.87585455  1
  O  O191  1  0.75734316  0.00908367  0.37795844  1
  O  O192  1  0.75165490  0.00697411  0.86224769  1
  O  O193  1  0.76413918  0.50245581  0.36439168  1
  O  O194  1  0.75444229  0.50165145  0.85490530  1
  O  O195  1  0.23829826  0.49918250  0.13239583  1
  O  O196  1  0.23945781  0.50451507  0.62214113  1
  O  O197  1  0.23690825  0.98987543  0.12520532  1
  O  O198  1  0.24534667  0.99394534  0.63320869  1
  O  O199  1  0.73533456  0.53396989  0.15276177  1
  O  O200  1  0.74593023  0.49503322  0.63027091  1
  O  O201  1  0.74261802  1.00293901  0.14002759  1
  O  O202  1  0.74272701  0.99592110  0.63560691  1
  O  O203  1  0.00117457  0.36715781  0.26416214  1
  O  O204  1  0.00679091  0.36718524  0.74579518  1
  O  O205  1  -0.01180919  0.87610214  0.26035419  1
  O  O206  1  0.01359411  0.88953015  0.76968227  1
  O  O207  1  0.50361639  0.36691927  0.25409826  1
  O  O208  1  0.50465918  0.36339693  0.75073609  1
  O  O209  1  0.50386653  0.85745856  0.24531578  1
  O  O210  1  0.50578051  0.86512851  0.75133751  1
  O  O211  1  0.49029196  0.13089776  0.24394111  1
  O  O212  1  0.49797802  0.13468656  0.74451059  1
  O  O213  1  0.50153772  0.62742778  0.23938002  1
  O  O214  1  0.50549933  0.63694333  0.73666677  1
  O  O215  1  0.98845903  0.13745349  0.26028917  1
  O  O216  1  0.99000326  0.12868383  0.75320518  1
  O  O217  1  0.98874358  0.63130152  0.25318103  1
  O  O218  1  1.00473205  0.62498152  0.73314743  1
  O  O219  1  0.36336172  0.25947157  0.00174894  1
  O  O220  1  0.37624336  0.25409680  0.51527036  1
  O  O221  1  0.37652400  0.75529447  0.00452828  1
  O  O222  1  0.37496595  0.75752565  0.50552094  1
  O  O223  1  0.93361169  0.25969781  0.01778289  1
  O  O224  1  0.87058665  0.25053579  0.50591834  1
  O  O225  1  0.86545493  0.75258784  0.00041608  1
  O  O226  1  0.87863278  0.76575419  0.49361312  1
  O  O227  1  0.11907331  0.23938921  0.49311689  1
  O  O228  1  0.12757873  0.24159564  0.99806399  1
  O  O229  1  0.12933830  0.74200325  0.49210891  1
  O  O230  1  0.12618676  0.74332556  0.98774197  1
  O  O231  1  0.63152747  0.24396086  0.50196067  1
  O  O232  1  0.62093677  0.25084185  0.98807418  1
  O  O233  1  0.61885026  0.73534302  0.49129594  1
  O  O234  1  0.63102130  0.74081080  0.98968710  1
  O  O235  1  0.49281633  0.24391006  0.13656396  1
  O  O236  1  0.49565052  0.24341704  0.63288178  1
  O  O237  1  0.49767845  0.73497625  0.13422901  1
  O  O238  1  0.49277695  0.74406909  0.63078020  1
  O  O239  1  1.02123155  0.24816634  0.15156673  1
  O  O240  1  0.98860338  0.25199095  0.62994388  1
  O  O241  1  0.99642560  0.74553916  0.12532057  1
  O  O242  1  1.00928128  0.73430278  0.62404835  1
  O  O243  1  0.00823627  0.25770875  0.37241454  1
  O  O244  1  0.00457389  0.25359450  0.85477192  1
  O  O245  1  0.01845032  0.75241476  0.37640756  1
  O  O246  1  0.00611407  0.75601981  0.87297732  1
  O  O247  1  0.50158263  0.24728044  0.36351175  1
  O  O248  1  0.50715276  0.25085520  0.86717113  1
  O  O249  1  0.51136012  0.73621114  0.36368328  1
  O  O250  1  0.50586286  0.75522247  0.86653718  1
  O  O251  1  0.23430445  0.11828583  0.49431236  1
  O  O252  1  0.24326385  0.13110343  0.99535662  1
  O  O253  1  0.24103532  0.62491061  0.48896462  1
  O  O254  1  0.24122880  0.62771982  0.99081147  1
  O  O255  1  0.74328699  0.12641078  0.49783186  1
  O  O256  1  0.75374973  0.12144023  0.98559151  1
  O  O257  1  0.74264171  0.61913975  0.48771754  1
  O  O258  1  0.73438742  0.62583453  0.99943216  1
  O  O259  1  0.25354588  0.36479487  -0.00798219  1
  O  O260  1  0.26921598  0.36929572  0.49540034  1
  O  O261  1  0.25164611  0.87154354  0.01254782  1
  O  O262  1  0.26244939  0.87566854  0.50879295  1
  O  O263  1  0.72622468  0.44626570  0.03796670  1
  O  O264  1  0.75713282  0.37126907  0.50806686  1
  O  O265  1  0.75803762  0.86175977  -0.00486955  1
  O  O266  1  0.75941632  0.87831009  0.50641866  1
  O  O267  1  0.13023500  0.50096767  0.23474664  1
  O  O268  1  0.12433116  0.48654466  0.74137208  1
  O  O269  1  0.11829039  1.00858414  0.23685172  1
  O  O270  1  0.13246466  0.99695421  0.74691806  1
  O  O271  1  0.62586635  0.48606418  0.24108822  1
  O  O272  1  0.63679644  0.50039554  0.73786784  1
  O  O273  1  0.63612878  0.99335702  0.26010554  1
  O  O274  1  0.63069546  0.99769803  0.74514000  1
  O  O275  1  0.38209080  0.00772805  0.26647781  1
  O  O276  1  0.36590717  0.00134143  0.75918972  1
  O  O277  1  0.36644188  0.49895803  0.25701269  1
  O  O278  1  0.37694864  0.49343703  0.76072288  1
  O  O279  1  0.85788669  0.00655297  0.25883841  1
  O  O280  1  0.86806160  0.00448096  0.75037166  1
  O  O281  1  0.88293889  0.51561616  0.26748573  1
  O  O282  1  0.86099724  0.50186659  0.74673021  1
  O  O283  1  0.11931520  0.36508371  0.38592411  1
  O  O284  1  0.12146164  0.37430696  0.85824287  1
  O  O285  1  0.12959061  0.86157457  0.38250460  1
  O  O286  1  0.12114292  0.86685303  0.87474976  1
  O  O287  1  0.61990609  0.37527803  0.36901766  1
  O  O288  1  0.62511762  0.36897127  0.87113117  1
  O  O289  1  0.62693834  0.85892694  0.37734879  1
  O  O290  1  0.61923071  0.86702928  0.86730862  1
  O  O291  1  0.37790980  0.12451639  0.13562742  1
  O  O292  1  0.37934947  0.13484328  0.62634829  1
  O  O293  1  0.38690809  0.61879134  0.12465502  1
  O  O294  1  0.38135881  0.63675182  0.61780745  1
  O  O295  1  0.88708947  0.09851403  0.14124552  1
  O  O296  1  0.86865821  0.13364843  0.63400280  1
  O  O297  1  0.87585332  0.62121238  0.14297846  1
  O  O298  1  0.89344140  0.62499407  0.61508577  1
  O  O299  1  0.24742931  0.24581306  0.11522749  1
  O  O300  1  0.26370110  0.24430665  0.62922991  1
  O  O301  1  0.25020209  0.76083193  0.12505337  1
  O  O302  1  0.25711816  0.75490956  0.62370592  1
  O  O303  1  0.78720562  0.21180289  0.16277188  1
  O  O304  1  0.75870442  0.25676584  0.62185716  1
  O  O305  1  0.74863642  0.74068863  0.11258559  1
  O  O306  1  0.74427716  0.76381472  0.62560044  1
  O  O307  1  0.24363928  0.23605050  0.37742243  1
  O  O308  1  0.24852600  0.23782229  0.88159201  1
  O  O309  1  0.24230687  0.74076227  0.37597771  1
  O  O310  1  0.24364737  0.74265421  0.87510948  1
  O  O311  1  0.74564229  0.23313503  0.38477772  1
  O  O312  1  0.74290086  0.24373886  0.86788224  1
  O  O313  1  0.74044274  0.74016717  0.37197118  1
  O  O314  1  0.73737018  0.75142724  0.87926546  1
  O  O315  1  0.00778467  0.11399920  -0.00065495  1
  O  O316  1  0.01043852  0.11585535  0.49609803  1
  O  O317  1  0.01578649  0.61811946  -0.00225398  1
  O  O318  1  0.01245658  0.61987820  0.50448282  1
  O  O319  1  0.49603504  0.13050948  0.01447241  1
  O  O320  1  0.50303130  0.11824970  0.50678340  1
  O  O321  1  0.50473390  0.61928377  0.00481095  1
  O  O322  1  0.50722799  0.62472674  0.51158466  1
  O  O323  1  0.48163630  0.36876384  0.49851222  1
  O  O324  1  0.48957882  0.38383993  0.99483493  1
  O  O325  1  0.48742930  0.88331405  0.50626585  1
  O  O326  1  0.50517190  0.88445800  1.00050969  1
  O  O327  1  0.99612533  0.37979013  0.49421666  1
  O  O328  1  1.01390919  0.39844639  0.98778794  1
  O  O329  1  0.98739793  0.88313686  0.49459287  1
  O  O330  1  0.99665322  0.87822938  0.99222552  1
  O  O331  1  0.48626850  0.50282523  0.36918259  1
  O  O332  1  0.48667324  0.50086189  0.87784300  1
  O  O333  1  0.49115188  1.00532195  0.38863079  1
  O  O334  1  0.49123283  0.99390196  0.86682434  1
  O  O335  1  1.00034743  0.49508196  0.38118165  1
  O  O336  1  0.99331093  0.50431784  0.87715446  1
  O  O337  1  0.98592746  1.00235983  0.38438240  1
  O  O338  1  1.00031351  0.99229352  0.88960702  1
  O  O339  1  0.01450440  -0.01017648  0.11387196  1
  O  O340  1  0.00036364  -0.00838805  0.61550243  1
  O  O341  1  0.01249723  0.50678545  0.11700246  1
  O  O342  1  0.00951537  0.50933357  0.61801149  1
  O  O343  1  0.49778599  0.00491982  0.12460362  1
  O  O344  1  0.50092629  0.00621083  0.61771652  1
  O  O345  1  0.50804114  0.50081916  0.11368521  1
  O  O346  1  0.50944556  0.50842883  0.63155622  1
  O  O347  1  0.25149773  0.38236742  0.25632515  1
  O  O348  1  0.23773186  0.36797115  0.75141845  1
  O  O349  1  0.25339314  0.87300303  0.23808671  1
  O  O350  1  0.24410127  0.88091513  0.74737418  1
  O  O351  1  0.73722062  0.37784537  0.25844142  1
  O  O352  1  0.74926604  0.37813731  0.73447006  1
  O  O353  1  0.74593304  0.88748833  0.25148034  1
  O  O354  1  0.74156662  0.88469927  0.74385266  1
  O  O355  1  0.26229828  0.12795975  0.25869749  1
  O  O356  1  0.24991624  0.11955022  0.76092054  1
  O  O357  1  0.25100869  0.61599742  0.26046305  1
  O  O358  1  0.24538216  0.62801144  0.75942056  1
  O  O359  1  0.74525281  0.11089753  0.26350846  1
  O  O360  1  0.75949496  0.11882850  0.75720914  1
  O  O361  1  0.76548861  0.62229402  0.26477371  1
  O  O362  1  0.74998917  0.61721893  0.74082709  1
  O  O363  1  0.36728256  0.11906577  0.37357902  1
  O  O364  1  0.36791040  0.12011286  0.87376055  1
  O  O365  1  0.36552248  0.61603543  0.37745247  1
  O  O366  1  0.36798671  0.61130490  0.87480952  1
  O  O367  1  0.86381679  0.12176882  0.36492485  1
  O  O368  1  0.87014135  0.12500482  0.86541357  1
  O  O369  1  0.87215138  0.62232022  0.37475745  1
  O  O370  1  0.87871729  0.61490728  0.86604085  1
  O  O371  1  0.11800257  0.38744735  0.11647681  1
  O  O372  1  0.12417428  0.38342939  0.63456241  1
  O  O373  1  0.13539689  0.88547055  0.12497905  1
  O  O374  1  0.12891029  0.88034580  0.62987066  1
  O  O375  1  0.61822963  0.38019716  0.13201079  1
  O  O376  1  0.63302933  0.38287595  0.62292021  1
  O  O377  1  0.61256870  0.88342754  0.11586738  1
  O  O378  1  0.62935522  0.88099534  0.62687196  1
  O  O379  1  0.11806160  0.23976233  0.27098517  1
  O  O380  1  0.11824451  0.25992174  0.74450514  1
  O  O381  1  0.12585736  0.74452664  0.26514565  1
  O  O382  1  0.12138407  0.75695567  0.76158352  1
  O  O383  1  0.61601093  0.26040936  0.25080981  1
  O  O384  1  0.61789367  0.25052393  0.75887212  1
  O  O385  1  0.62087243  0.74799807  0.25517220  1
  O  O386  1  0.61783145  0.75442020  0.75412774  1
  O  O387  1  0.37995910  0.24299526  0.25117683  1
  O  O388  1  0.38297961  0.25103011  0.74023969  1
  O  O389  1  0.38444332  0.74164665  0.24836899  1
  O  O390  1  0.38389632  0.75485416  0.74121343  1
  O  O391  1  0.89351399  0.24788896  0.25932761  1
  O  O392  1  0.88177063  0.24317908  0.74138492  1
  O  O393  1  0.87342445  0.74064668  0.25005840  1
  O  O394  1  0.88725083  0.79729850  0.73632384  1
  O  O395  1  0.37220560  0.48909854  0.49367043  1
  O  O396  1  0.37904009  0.49630630  0.99387721  1
  O  O397  1  0.38007049  0.99469949  0.49461943  1
  O  O398  1  0.36996671  1.00048288  0.98712330  1
  O  O399  1  0.88210229  0.49771943  0.49367470  1
  O  O400  1  0.88752718  0.51179144  0.98726241  1
  O  O401  1  0.87974246  1.00049455  0.49200412  1
  O  O402  1  0.88240199  0.99216459  0.99920417  1
  O  O403  1  0.11931612  0.00627492  0.00641964  1
  O  O404  1  0.11474824  0.00329529  0.50670487  1
  O  O405  1  0.12628475  0.50792247  0.00797852  1
  O  O406  1  0.12389715  0.50642613  0.50529474  1
  O  O407  1  0.62486386  0.00225930  -0.00170572  1
  O  O408  1  0.61542983  0.00248839  0.50479735  1
  O  O409  1  0.60420588  0.50688434  -0.00874795  1
  O  O410  1  0.63054802  0.50861861  0.50999173  1
  O  O411  1  0.37654033  0.37626815  0.10994201  1
  O  O412  1  0.37529316  0.36429463  0.61694899  1
  O  O413  1  0.36134203  0.87664291  0.12451796  1
  O  O414  1  0.37093947  0.86480446  0.62017525  1
  O  O415  1  0.84386771  0.41914252  0.16289080  1
  O  O416  1  0.86994351  0.36822151  0.61840162  1
  O  O417  1  0.87726539  0.87555064  0.11118775  1
  O  O418  1  0.86323795  0.88701501  0.60404236  1
  O  O419  1  0.13144405  0.12741963  0.38438367  1
  O  O420  1  0.13239005  0.12498727  0.88697695  1
  O  O421  1  0.13121455  0.63044572  0.38157617  1
  O  O422  1  0.13267996  0.63057854  0.87781023  1
  O  O423  1  0.62877255  0.12437500  0.38458228  1
  O  O424  1  0.63468073  0.13418078  0.87887354  1
  O  O425  1  0.63413721  0.62581271  0.37961909  1
  O  O426  1  0.61582262  0.63353635  0.87919274  1
