# generated using pymatgen
data_V85Zn86O256
_symmetry_space_group_name_H-M   'P 1'
_cell_length_a   16.91242380
_cell_length_b   16.92124993
_cell_length_c   16.91375557
_cell_angle_alpha   89.95984771
_cell_angle_beta   89.96941982
_cell_angle_gamma   90.00715994
_symmetry_Int_Tables_number   1
_chemical_formula_structural   V85Zn86O256
_chemical_formula_sum   'V85 Zn86 O256'
_cell_volume   4840.36566293
_cell_formula_units_Z   1
loop_
 _symmetry_equiv_pos_site_id
 _symmetry_equiv_pos_as_xyz
  1  'x, y, z'
loop_
 _atom_site_type_symbol
 _atom_site_label
 _atom_site_symmetry_multiplicity
 _atom_site_fract_x
 _atom_site_fract_y
 _atom_site_fract_z
 _atom_site_occupancy
  V  V0  1  0.24345723  0.12752953  0.87562881  1
  V  V1  1  0.11774635  0.75533776  0.37608879  1
  V  V2  1  0.51193667  0.00292042  0.00667196  1
  V  V3  1  0.25240604  0.86116745  0.12187767  1
  V  V4  1  0.00036905  0.12549935  0.62370848  1
  V  V5  1  0.25036095  0.25551751  -0.00732138  1
  V  V6  1  0.62763077  0.37404003  0.75171756  1
  V  V7  1  0.74606847  0.12750244  0.88437133  1
  V  V8  1  0.12665002  0.49488617  0.62620100  1
  V  V9  1  0.74638684  0.64115514  0.38137755  1
  V  V10  1  0.87936418  0.62606759  0.24771361  1
  V  V11  1  0.75474189  0.50497477  0.74709916  1
  V  V12  1  0.87258517  0.50178671  0.37862591  1
  V  V13  1  0.24668905  -0.00212909  0.75081229  1
  V  V14  1  0.62856939  0.11663809  0.50134644  1
  V  V15  1  0.73162557  0.00722270  0.24513988  1
  V  V16  1  0.37777479  0.24898527  0.11815602  1
  V  V17  1  0.37408621  0.87154203  0.49853746  1
  V  V18  1  0.49959991  0.25026144  0.24813229  1
  V  V19  1  0.00092064  0.37513633  0.37720955  1
  V  V20  1  0.37391297  0.63691261  0.24654839  1
  V  V21  1  0.75119208  0.37327295  0.11900982  1
  V  V22  1  0.62183898  0.74841298  0.86590146  1
  V  V23  1  0.87366425  -0.00009027  0.87989746  1
  V  V24  1  0.25005145  0.62649741  0.37642710  1
  V  V25  1  0.74986186  0.75219783  -0.00009275  1
  V  V26  1  0.25963131  0.50188094  0.74916996  1
  V  V27  1  0.73916493  0.87378308  0.13291074  1
  V  V28  1  0.62937891  0.24819379  0.88992117  1
  V  V29  1  0.75162725  0.37571418  0.62469072  1
  V  V30  1  -0.00351181  0.63010093  0.64008797  1
  V  V31  1  0.11800748  0.62626982  0.50020423  1
  V  V32  1  0.12319807  0.12877520  0.00165766  1
  V  V33  1  0.00480132  0.25024095  0.75875934  1
  V  V34  1  0.62381204  0.62651856  -0.00137185  1
  V  V35  1  0.11912673  0.63558979  0.00422035  1
  V  V36  1  0.62077597  0.50503740  0.12559915  1
  V  V37  1  0.50191615  -0.00251792  0.50298718  1
  V  V38  1  0.37295307  -0.00069781  0.88149143  1
  V  V39  1  0.86927942  0.86607030  0.49152394  1
  V  V40  1  0.25635918  0.37680158  0.11977227  1
  V  V41  1  0.62486386  0.24954601  0.37588285  1
  V  V42  1  0.49016679  0.49844898  0.00244167  1
  V  V43  1  -0.00960005  0.12238569  0.12571226  1
  V  V44  1  0.87935370  0.49955489  0.87377537  1
  V  V45  1  0.12755139  0.37443479  0.24919464  1
  V  V46  1  0.50493916  0.11968941  0.62666522  1
  V  V47  1  0.88147616  0.00200203  0.36339872  1
  V  V48  1  0.00104543  0.87314463  0.86394480  1
  V  V49  1  0.37897183  0.74912548  0.64104159  1
  V  V50  1  0.12117509  0.75323071  0.86026004  1
  V  V51  1  0.49836975  0.87175582  0.87081316  1
  V  V52  1  0.51457176  0.75227009  0.24772455  1
  V  V53  1  0.49202119  0.37367380  0.88028553  1
  V  V54  1  0.61881638  0.64104055  0.49586379  1
  V  V55  1  0.37865557  0.12208495  0.24434472  1
  V  V56  1  0.62116903  0.50043491  0.61390311  1
  V  V57  1  0.12692179  0.24553846  0.37484852  1
  V  V58  1  0.75249878  0.24828173  0.50134175  1
  V  V59  1  0.75799647  0.62770783  0.87088516  1
  V  V60  1  0.49218087  0.37864304  0.38962648  1
  V  V61  1  0.51312460  0.86869500  0.37344694  1
  V  V62  1  0.87401355  0.12575171  0.75051747  1
  V  V63  1  0.88080707  0.74816759  0.12243402  1
  V  V64  1  -0.00091708  -0.00874630  0.49657997  1
  V  V65  1  0.11837277  0.50150445  0.12214743  1
  V  V66  1  0.12042341  0.87595625  0.25020329  1
  V  V67  1  0.25348046  0.50209230  0.24859802  1
  V  V68  1  0.50272383  0.24831719  0.75127830  1
  V  V69  1  0.12931837  0.37417785  0.75853136  1
  V  V70  1  0.74723338  0.50368673  0.25283918  1
  V  V71  1  -0.00008950  0.74972745  0.24782386  1
  V  V72  1  0.37230223  0.86165186  0.00379740  1
  V  V73  1  0.62212691  0.87797541  0.74274356  1
  V  V74  1  0.74567032  0.00142321  0.74143516  1
  V  V75  1  0.49763080  0.62607600  0.63871023  1
  V  V76  1  0.12198356  -0.00711954  0.63013280  1
  V  V77  1  0.25477297  0.63057094  0.87707521  1
  V  V78  1  0.25451221  0.24886356  0.50592953  1
  V  V79  1  0.24658989  0.87199038  0.63086957  1
  V  V80  1  0.87090989  0.74983569  0.63870620  1
  V  V81  1  0.25068423  0.00009479  0.24682817  1
  V  V82  1  0.37541878  0.12327268  0.74987174  1
  V  V83  1  0.62171699  0.37764796  0.25278586  1
  V  V84  1  -0.01048919  0.24524079  0.24886174  1
  Zn  Zn85  1  0.37893659  0.50149723  0.38752012  1
  Zn  Zn86  1  0.12722087  0.11929446  0.49806976  1
  Zn  Zn87  1  0.25325001  0.12351454  0.37337830  1
  Zn  Zn88  1  0.00225194  -0.00114480  -0.00129495  1
  Zn  Zn89  1  -0.00370174  0.50115792  0.00515523  1
  Zn  Zn90  1  0.12471137  -0.00011287  0.12253325  1
  Zn  Zn91  1  0.31318736  0.41347981  0.56798986  1
  Zn  Zn92  1  0.53715977  0.12155624  0.12048520  1
  Zn  Zn93  1  0.49078529  0.63693979  0.11946658  1
  Zn  Zn94  1  0.37433876  0.50165743  0.87627974  1
  Zn  Zn95  1  0.87766131  0.37050549  -0.00184443  1
  Zn  Zn96  1  0.75623644  0.12618873  0.37109837  1
  Zn  Zn97  1  0.86822942  0.24322495  0.11951288  1
  Zn  Zn98  1  0.00143788  0.37034269  0.88096522  1
  Zn  Zn99  1  0.87877286  0.25321676  0.62540112  1
  Zn  Zn100  1  0.24719073  0.75386093  0.50217935  1
  Zn  Zn101  1  0.87556693  0.37427991  0.50053590  1
  Zn  Zn102  1  0.74403664  0.87187119  0.61880408  1
  Zn  Zn103  1  0.87721834  0.87555226  0.00083399  1
  Zn  Zn104  1  -0.00118554  0.49908952  0.50331769  1
  Zn  Zn105  1  0.37772299  0.25206377  0.62199947  1
  Zn  Zn106  1  0.37589653  -0.00288380  0.37243991  1
  Zn  Zn107  1  0.18604414  0.18762149  0.18471954  1
  Zn  Zn108  1  0.18365061  0.18505886  0.68717950  1
  Zn  Zn109  1  0.18569040  0.68719622  0.18718085  1
  Zn  Zn110  1  0.18836204  0.68453100  0.68856504  1
  Zn  Zn111  1  0.68699748  0.18839282  0.18642153  1
  Zn  Zn112  1  0.68654932  0.18659928  0.68845595  1
  Zn  Zn113  1  0.69007928  0.68683977  0.18818514  1
  Zn  Zn114  1  0.68731665  0.68775289  0.68484792  1
  Zn  Zn115  1  0.31311865  0.31001168  0.31162909  1
  Zn  Zn116  1  0.31417771  0.31376648  0.80450850  1
  Zn  Zn117  1  0.31110412  0.81276765  0.31341918  1
  Zn  Zn118  1  0.30803149  0.81145739  0.81551765  1
  Zn  Zn119  1  0.81021185  0.31535656  0.31170096  1
  Zn  Zn120  1  0.81432636  0.31194758  0.81326784  1
  Zn  Zn121  1  0.81236300  0.81713533  0.30958462  1
  Zn  Zn122  1  0.81066557  0.81679945  0.81146096  1
  Zn  Zn123  1  0.19212561  0.43976403  0.43866117  1
  Zn  Zn124  1  0.18700428  0.44215181  0.93782030  1
  Zn  Zn125  1  0.18871519  0.93762306  0.43677296  1
  Zn  Zn126  1  0.18523616  0.93540205  0.94015420  1
  Zn  Zn127  1  0.68671089  0.43791247  0.43732855  1
  Zn  Zn128  1  0.68476337  0.44036117  0.93701027  1
  Zn  Zn129  1  0.69283115  0.93819224  0.43221316  1
  Zn  Zn130  1  0.69100234  0.93421478  0.93452723  1
  Zn  Zn131  1  0.31323761  0.06016641  0.06336031  1
  Zn  Zn132  1  0.31319446  0.06275658  0.56078291  1
  Zn  Zn133  1  0.30825431  0.56987165  0.06147839  1
  Zn  Zn134  1  0.31067922  0.57711564  0.56203687  1
  Zn  Zn135  1  0.79512749  0.06695375  0.06972728  1
  Zn  Zn136  1  0.81679242  0.05881277  0.56008469  1
  Zn  Zn137  1  0.81146219  0.56198227  0.06085973  1
  Zn  Zn138  1  0.81101174  0.56885129  0.56092890  1
  Zn  Zn139  1  0.43459370  0.44084805  0.19348521  1
  Zn  Zn140  1  0.44332589  0.43936483  0.69101872  1
  Zn  Zn141  1  0.43941626  0.93213291  0.18644473  1
  Zn  Zn142  1  0.43560498  0.93725290  0.68790241  1
  Zn  Zn143  1  0.93711373  0.43693387  0.19254755  1
  Zn  Zn144  1  0.93897774  0.43770630  0.68842464  1
  Zn  Zn145  1  0.93785567  0.93434782  0.18089134  1
  Zn  Zn146  1  0.93243924  0.93542902  0.68704722  1
  Zn  Zn147  1  0.06079051  0.06192831  0.31004144  1
  Zn  Zn148  1  0.06144254  0.06095366  0.81254178  1
  Zn  Zn149  1  0.06241283  0.56183689  0.31141727  1
  Zn  Zn150  1  0.06817442  0.56302794  0.81393287  1
  Zn  Zn151  1  0.55872073  0.06392300  0.31572092  1
  Zn  Zn152  1  0.56386417  0.06007102  0.81755906  1
  Zn  Zn153  1  0.55770105  0.56492611  0.31751460  1
  Zn  Zn154  1  0.56657536  0.55824843  0.81297673  1
  Zn  Zn155  1  0.43676579  0.18640012  0.43467230  1
  Zn  Zn156  1  0.43885805  0.18405036  0.93963812  1
  Zn  Zn157  1  0.43850645  0.68952148  0.44032251  1
  Zn  Zn158  1  0.43970640  0.68725769  0.93361449  1
  Zn  Zn159  1  0.93882640  0.18280202  0.43799050  1
  Zn  Zn160  1  0.93208044  0.18924153  0.94178217  1
  Zn  Zn161  1  0.93798846  0.68873031  0.43651757  1
  Zn  Zn162  1  0.94075837  0.68771608  0.93626414  1
  Zn  Zn163  1  0.06170567  0.31185560  0.06083503  1
  Zn  Zn164  1  0.06753387  0.31076328  0.56220538  1
  Zn  Zn165  1  0.06039709  0.81621110  0.05907272  1
  Zn  Zn166  1  0.05773996  0.81212581  0.56560987  1
  Zn  Zn167  1  0.56211426  0.31633168  0.06514800  1
  Zn  Zn168  1  0.56476305  0.30756049  0.56523545  1
  Zn  Zn169  1  0.56007800  0.81378246  0.05901364  1
  Zn  Zn170  1  0.55823984  0.80973068  0.56443073  1
  O  O171  1  0.11599701  0.12418125  0.11689287  1
  O  O172  1  0.11374219  0.11411168  0.62328629  1
  O  O173  1  0.13275870  0.61839069  0.11201015  1
  O  O174  1  0.11438666  0.62113978  0.61942490  1
  O  O175  1  0.64755719  0.10627212  0.12848169  1
  O  O176  1  0.61356508  0.12567577  0.61735355  1
  O  O177  1  0.62169805  0.61933664  0.11952382  1
  O  O178  1  0.61701904  0.62158366  0.61655918  1
  O  O179  1  0.38940794  0.37336070  0.37088657  1
  O  O180  1  0.38917909  0.37508817  0.87246468  1
  O  O181  1  0.38029405  0.87505167  0.38450435  1
  O  O182  1  0.37927913  0.87973685  0.88042064  1
  O  O183  1  0.88200642  0.38384820  0.37566041  1
  O  O184  1  0.87605908  0.38545622  0.87583283  1
  O  O185  1  0.87383014  0.88265345  0.38545016  1
  O  O186  1  0.88083970  0.88229236  0.87621204  1
  O  O187  1  0.25310325  -0.00043253  0.36083765  1
  O  O188  1  0.25494255  0.00492711  0.87193621  1
  O  O189  1  0.24107584  0.51502073  0.36502884  1
  O  O190  1  0.25152064  0.51138965  0.86961818  1
  O  O191  1  0.76080281  -0.00187008  0.35930489  1
  O  O192  1  0.75437368  0.00666523  0.86592047  1
  O  O193  1  0.75665962  0.50521782  0.37063609  1
  O  O194  1  0.75611435  0.50742127  0.86834350  1
  O  O195  1  0.24448807  0.49352119  0.12838180  1
  O  O196  1  0.24163902  0.50627647  0.63372926  1
  O  O197  1  0.24802820  0.99342497  0.13558147  1
  O  O198  1  0.24224157  0.99357694  0.62855632  1
  O  O199  1  0.73726341  0.49760202  0.13155078  1
  O  O200  1  0.74446192  0.49840205  0.63049994  1
  O  O201  1  0.75884917  0.98462863  0.13875051  1
  O  O202  1  0.75581788  0.99736157  0.63781668  1
  O  O203  1  0.00602787  0.36868621  0.26044283  1
  O  O204  1  0.00720830  0.36603058  0.75156821  1
  O  O205  1  0.01455532  0.86969518  0.24277271  1
  O  O206  1  -0.00136485  0.88189182  0.76365393  1
  O  O207  1  0.50585419  0.36848371  0.25361832  1
  O  O208  1  0.51057009  0.37098703  0.76168150  1
  O  O209  1  0.49677506  0.86470920  0.26245391  1
  O  O210  1  0.50585546  0.88390842  0.76283946  1
  O  O211  1  0.49506035  0.12988050  0.24298935  1
  O  O212  1  0.49750151  0.12424778  0.74365017  1
  O  O213  1  0.49334206  0.63885360  0.25268485  1
  O  O214  1  0.50776901  0.62416975  0.73780187  1
  O  O215  1  1.00473092  0.13409193  0.23973545  1
  O  O216  1  0.99696067  0.13087515  0.74315857  1
  O  O217  1  0.98615666  0.62922834  0.25437831  1
  O  O218  1  1.00227349  0.62411386  0.73813137  1
  O  O219  1  0.36931276  0.24539573  0.01140055  1
  O  O220  1  0.35952546  0.24435637  0.49896280  1
  O  O221  1  0.38043390  0.76229707  -0.00194426  1
  O  O222  1  0.37331328  0.76079712  0.50864414  1
  O  O223  1  0.87418736  0.25705923  0.00685557  1
  O  O224  1  0.86324140  0.24812634  0.50006872  1
  O  O225  1  0.86819785  0.74685438  0.00723269  1
  O  O226  1  0.88099331  0.76385859  0.50291471  1
  O  O227  1  0.13167896  0.24267871  0.49197627  1
  O  O228  1  0.13659265  0.23909332  1.00317785  1
  O  O229  1  0.12243969  0.74618961  0.49244606  1
  O  O230  1  0.12278451  0.73776752  0.99728736  1
  O  O231  1  0.63556367  0.23906038  0.49783270  1
  O  O232  1  0.62316742  0.25294368  0.98857832  1
  O  O233  1  0.62589896  0.73978538  0.50241969  1
  O  O234  1  0.62928811  0.74671076  0.98839868  1
  O  O235  1  0.49461357  0.24569660  0.12776685  1
  O  O236  1  0.50128709  0.23798166  0.63300856  1
  O  O237  1  0.50287504  0.75461773  0.14157626  1
  O  O238  1  0.49309460  0.73784508  0.62622564  1
  O  O239  1  1.00038559  0.24325096  0.13471912  1
  O  O240  1  1.00055990  0.23988621  0.62905425  1
  O  O241  1  0.98876819  0.75244304  0.12899871  1
  O  O242  1  0.99126670  0.73759935  0.62364298  1
  O  O243  1  0.00514567  0.25425906  0.36993376  1
  O  O244  1  -0.00042309  0.24625538  0.86165506  1
  O  O245  1  0.01074028  0.74719216  0.36661003  1
  O  O246  1  0.01201475  0.75635343  0.87622424  1
  O  O247  1  0.50469979  0.25728037  0.36933906  1
  O  O248  1  0.50921379  0.25414228  0.87342970  1
  O  O249  1  0.49795672  0.76206798  0.36814029  1
  O  O250  1  0.50906202  0.75914254  0.87605501  1
  O  O251  1  0.24731117  0.13078955  0.49339485  1
  O  O252  1  0.24633317  0.13205626  0.99407354  1
  O  O253  1  0.23453226  0.63381784  0.49320245  1
  O  O254  1  0.23652644  0.62120052  0.98549911  1
  O  O255  1  0.74383478  0.12811202  0.49943225  1
  O  O256  1  0.74960129  0.12301091  0.98353093  1
  O  O257  1  0.73470666  0.62158673  0.49290276  1
  O  O258  1  0.74250480  0.63121371  0.99184658  1
  O  O259  1  0.24586357  0.36736218  0.00642981  1
  O  O260  1  0.23787529  0.35419007  0.50147650  1
  O  O261  1  0.25591199  0.87810880  0.01369540  1
  O  O262  1  0.25760936  0.87530409  0.51037494  1
  O  O263  1  0.74597137  0.38319544  0.01716210  1
  O  O264  1  0.74911608  0.36542786  0.50591492  1
  O  O265  1  0.75356963  0.86910482  0.00883115  1
  O  O266  1  0.76481426  0.88107425  0.50254133  1
  O  O267  1  0.13298114  0.49663579  0.24268451  1
  O  O268  1  0.13214541  0.49402501  0.74420765  1
  O  O269  1  0.13194219  0.99155322  0.24875319  1
  O  O270  1  0.12983325  1.00282047  0.73785014  1
  O  O271  1  0.62498645  0.49951087  0.24374380  1
  O  O272  1  0.63592921  0.49285483  0.74346789  1
  O  O273  1  0.63409633  0.99747143  0.25787454  1
  O  O274  1  0.63305748  0.99079605  0.75606896  1
  O  O275  1  0.37026017  0.00577619  0.24750389  1
  O  O276  1  0.36941001  0.00380675  0.76185864  1
  O  O277  1  0.36769378  0.51117697  0.25851429  1
  O  O278  1  0.36311120  0.49984478  0.75362296  1
  O  O279  1  0.87794311  -0.00903669  0.26262632  1
  O  O280  1  0.86738610  0.00530724  0.75925838  1
  O  O281  1  0.87085074  0.50801780  0.26018371  1
  O  O282  1  0.86157351  0.49664619  0.75493130  1
  O  O283  1  0.11885510  0.36653331  0.37119656  1
  O  O284  1  0.12072493  0.38179592  0.86266258  1
  O  O285  1  0.13206593  0.86552038  0.36478549  1
  O  O286  1  0.12084456  0.86019199  0.87979653  1
  O  O287  1  0.61595982  0.37027727  0.37155712  1
  O  O288  1  0.62180626  0.36518397  0.87186552  1
  O  O289  1  0.61153458  0.87406865  0.38155087  1
  O  O290  1  0.61773494  0.86734976  0.86721115  1
  O  O291  1  0.37225498  0.13295736  0.13344414  1
  O  O292  1  0.38752935  0.12334428  0.63066073  1
  O  O293  1  0.37555665  0.62097325  0.13854771  1
  O  O294  1  0.38906922  0.63333488  0.62264704  1
  O  O295  1  0.88576801  0.12343496  0.12047419  1
  O  O296  1  0.88713751  0.12299887  0.63019668  1
  O  O297  1  0.86502240  0.63386899  0.13607462  1
  O  O298  1  0.88641785  0.63661015  0.61934772  1
  O  O299  1  0.25669862  0.25729360  0.11594150  1
  O  O300  1  0.25123900  0.23858874  0.60983583  1
  O  O301  1  0.25033334  0.76241913  0.12828545  1
  O  O302  1  0.25560422  0.75586740  0.62551351  1
  O  O303  1  0.75188513  0.27055525  0.13743653  1
  O  O304  1  0.75103983  0.25485335  0.61749801  1
  O  O305  1  0.75658112  0.75860383  0.12338836  1
  O  O306  1  0.76594373  0.74917984  0.62572962  1
  O  O307  1  0.24244208  0.24738653  0.38100792  1
  O  O308  1  0.25895701  0.24338420  0.88546440  1
  O  O309  1  0.23824674  0.74074552  0.37446205  1
  O  O310  1  0.23733527  0.74011163  0.87261692  1
  O  O311  1  0.74475971  0.24840612  0.38187014  1
  O  O312  1  0.73674920  0.24382865  0.86913717  1
  O  O313  1  0.75507324  0.74003928  0.37272096  1
  O  O314  1  0.74515262  0.74439510  0.87813622  1
  O  O315  1  0.00861600  0.12526195  0.00592515  1
  O  O316  1  0.00075488  0.11179929  0.50773011  1
  O  O317  1  0.01494077  0.62049283  -0.00296750  1
  O  O318  1  0.00925884  0.62331669  0.50288775  1
  O  O319  1  0.49655378  0.10807108  0.00422107  1
  O  O320  1  0.50547604  0.11697520  0.50480602  1
  O  O321  1  0.50586163  0.61897540  0.00136214  1
  O  O322  1  0.51319222  0.62734811  0.50587853  1
  O  O323  1  0.50227576  0.36664508  0.48831421  1
  O  O324  1  0.50637500  0.38581877  0.99249368  1
  O  O325  1  0.49523363  0.87841666  0.49310961  1
  O  O326  1  0.49224134  0.88209238  0.99062605  1
  O  O327  1  0.99953361  0.37463327  0.48843578  1
  O  O328  1  1.00016332  0.38264861  0.99750270  1
  O  O329  1  0.98846919  0.88488329  0.50440993  1
  O  O330  1  0.99651080  0.88007874  0.98854949  1
  O  O331  1  0.49802943  0.48410597  0.37577758  1
  O  O332  1  0.50027319  0.49242379  0.88334991  1
  O  O333  1  0.49777973  0.98846279  0.38450880  1
  O  O334  1  0.49032535  0.99430684  0.88329020  1
  O  O335  1  0.99312631  0.49170468  0.37562115  1
  O  O336  1  0.98530968  0.50419706  0.86923313  1
  O  O337  1  0.99122739  1.00063424  0.38130618  1
  O  O338  1  0.99133258  0.99562008  0.87636418  1
  O  O339  1  0.00336127  0.00742509  0.12075158  1
  O  O340  1  0.00487126  0.00242807  0.61983844  1
  O  O341  1  0.01506178  0.49609686  0.13049952  1
  O  O342  1  0.00385515  0.51320115  0.62384689  1
  O  O343  1  0.49827703  -0.00517323  0.10963187  1
  O  O344  1  0.49830690  0.00268858  0.61184025  1
  O  O345  1  0.50847789  0.49925673  0.12060397  1
  O  O346  1  0.50861096  0.51289639  0.62890910  1
  O  O347  1  0.24609334  0.38056484  0.24380810  1
  O  O348  1  0.24133803  0.38573536  0.75427245  1
  O  O349  1  0.24398899  0.87896585  0.24038439  1
  O  O350  1  0.25411823  0.88195585  0.73860654  1
  O  O351  1  0.74089172  0.38586033  0.24665059  1
  O  O352  1  0.74531048  0.38041257  0.74330365  1
  O  O353  1  0.74896241  0.88243101  0.23954326  1
  O  O354  1  0.74002293  0.88396076  0.74854318  1
  O  O355  1  0.25673322  0.11709238  0.24840182  1
  O  O356  1  0.25400652  0.12014837  0.75712361  1
  O  O357  1  0.25573935  0.62393786  0.25665452  1
  O  O358  1  0.24061235  0.61575820  0.76553164  1
  O  O359  1  0.75299585  0.10925430  0.25269697  1
  O  O360  1  0.75414037  0.11896373  0.75482194  1
  O  O361  1  0.75754147  0.62120506  0.25914733  1
  O  O362  1  0.74353503  0.61638743  0.75825943  1
  O  O363  1  0.37665273  0.12202319  0.35828670  1
  O  O364  1  0.36565951  0.11647270  0.87276244  1
  O  O365  1  0.36462499  0.62572631  0.37328865  1
  O  O366  1  0.35861886  0.62716990  0.87886396  1
  O  O367  1  0.87398552  0.10628256  0.37987643  1
  O  O368  1  0.86749034  0.11965079  0.86829797  1
  O  O369  1  0.86758401  0.61966121  0.37144057  1
  O  O370  1  0.86325728  0.62103995  0.87786527  1
  O  O371  1  0.13629020  0.38126723  0.12922374  1
  O  O372  1  0.11720200  0.39039139  0.63134428  1
  O  O373  1  0.13610117  0.87568811  0.12956906  1
  O  O374  1  0.13352145  0.88042993  0.62117030  1
  O  O375  1  0.63242999  0.38405533  0.13213466  1
  O  O376  1  0.62940659  0.38261977  0.62977826  1
  O  O377  1  0.64064705  0.86941016  0.12092829  1
  O  O378  1  0.62385674  0.86901198  0.63810471  1
  O  O379  1  0.12044976  0.25635389  0.25704592  1
  O  O380  1  0.11861407  0.26149844  0.74257199  1
  O  O381  1  0.11984512  0.75490740  0.25521605  1
  O  O382  1  0.12382807  0.74864980  0.76151223  1
  O  O383  1  0.62013331  0.25665393  0.25674849  1
  O  O384  1  0.61917750  0.25665642  0.75503425  1
  O  O385  1  0.61321611  0.74470968  0.25347849  1
  O  O386  1  0.63116054  0.75793249  0.76032307  1
  O  O387  1  0.37911777  0.24300462  0.23888566  1
  O  O388  1  0.38443061  0.23733007  0.75342964  1
  O  O389  1  0.38164977  0.74050674  0.25649559  1
  O  O390  1  0.37390487  0.75486209  0.74061879  1
  O  O391  1  0.88662905  0.25520541  0.24736942  1
  O  O392  1  0.88376075  0.24314434  0.74688417  1
  O  O393  1  0.87968067  0.74501251  0.24431435  1
  O  O394  1  0.87540241  0.75408746  0.73773545  1
  O  O395  1  0.34085468  0.49359552  0.49435369  1
  O  O396  1  0.38679428  0.50538672  1.00037810  1
  O  O397  1  0.38283349  0.98866525  0.49935908  1
  O  O398  1  0.37710268  0.99214509  0.99058229  1
  O  O399  1  0.87579774  0.50051951  0.48870895  1
  O  O400  1  0.87563180  0.49848583  0.98987900  1
  O  O401  1  0.88132834  0.98947071  0.49146892  1
  O  O402  1  0.86990457  1.00248557  0.98644696  1
  O  O403  1  0.12725872  0.01518053  0.00042547  1
  O  O404  1  0.11709378  -0.00219624  0.50765812  1
  O  O405  1  0.12306992  0.51017515  0.00745773  1
  O  O406  1  0.12438083  0.50865145  0.50802583  1
  O  O407  1  0.60941352  -0.00663613  -0.00969476  1
  O  O408  1  0.62091695  0.00961972  0.49482438  1
  O  O409  1  0.61712531  0.50719922  0.00732391  1
  O  O410  1  0.62761966  0.50429784  0.51203253  1
  O  O411  1  0.36367848  0.36797258  0.13093490  1
  O  O412  1  0.37871827  0.36421972  0.64018029  1
  O  O413  1  0.36162328  0.87772046  0.11851861  1
  O  O414  1  0.36961040  0.86863196  0.61967351  1
  O  O415  1  0.85763880  0.38532126  0.12795449  1
  O  O416  1  0.86750425  0.37459213  0.62074578  1
  O  O417  1  0.86652790  0.86309680  0.12258058  1
  O  O418  1  0.87460327  0.86220935  0.61637007  1
  O  O419  1  0.12515107  0.13619339  0.37344460  1
  O  O420  1  0.13789147  0.12272370  0.87926406  1
  O  O421  1  0.12796597  0.63173784  0.38132853  1
  O  O422  1  0.12826894  0.63583650  0.88304705  1
  O  O423  1  0.62605398  0.13213626  0.38449995  1
  O  O424  1  0.63008858  0.13996119  0.87007372  1
  O  O425  1  0.62994333  0.62190341  0.38855673  1
  O  O426  1  0.63249228  0.63151418  0.87787230  1
