# generated using pymatgen
data_V85Zn86O256
_symmetry_space_group_name_H-M   'P 1'
_cell_length_a   16.94924131
_cell_length_b   16.94279829
_cell_length_c   16.93219568
_cell_angle_alpha   90.01127011
_cell_angle_beta   90.09434212
_cell_angle_gamma   90.02527971
_symmetry_Int_Tables_number   1
_chemical_formula_structural   V85Zn86O256
_chemical_formula_sum   'V85 Zn86 O256'
_cell_volume   4862.37044246
_cell_formula_units_Z   1
loop_
 _symmetry_equiv_pos_site_id
 _symmetry_equiv_pos_as_xyz
  1  'x, y, z'
loop_
 _atom_site_type_symbol
 _atom_site_label
 _atom_site_symmetry_multiplicity
 _atom_site_fract_x
 _atom_site_fract_y
 _atom_site_fract_z
 _atom_site_occupancy
  V  V0  1  0.63281787  0.12752467  0.50162833  1
  V  V1  1  -0.00077097  0.25644127  0.74531228  1
  V  V2  1  0.50052856  0.87403042  0.37719205  1
  V  V3  1  0.37582511  0.12841451  0.74901061  1
  V  V4  1  0.50045794  0.12488265  0.12374164  1
  V  V5  1  0.01052504  0.88014366  0.37037255  1
  V  V6  1  0.24389463  0.87217046  0.62509173  1
  V  V7  1  0.00641539  0.62662838  0.61059411  1
  V  V8  1  0.87706145  0.87425794  0.49743641  1
  V  V9  1  0.51732749  0.37414792  0.87280035  1
  V  V10  1  0.37333459  -0.00070220  0.37693066  1
  V  V11  1  0.63274708  0.38096076  0.24051019  1
  V  V12  1  0.62471270  0.74820276  0.38048773  1
  V  V13  1  0.37586553  0.86892546  0.50341514  1
  V  V14  1  0.25300229  0.86639285  0.13338773  1
  V  V15  1  0.11773534  0.49593218  0.60455458  1
  V  V16  1  0.49754163  0.38292831  0.37604175  1
  V  V17  1  0.75637735  0.88711756  0.12727478  1
  V  V18  1  0.24149493  -0.00265177  0.24883657  1
  V  V19  1  0.75386139  0.62575526  0.87022698  1
  V  V20  1  0.62987062  0.88292773  0.25179255  1
  V  V21  1  -0.00321832  0.38633493  0.37716897  1
  V  V22  1  0.50193357  0.00040488  0.50180970  1
  V  V23  1  0.24399444  0.00067136  0.74756634  1
  V  V24  1  0.74784623  0.12206999  0.37013010  1
  V  V25  1  0.11826955  0.12430222  -0.00305872  1
  V  V26  1  0.74768511  0.12786586  0.87105081  1
  V  V27  1  0.00167685  0.49798846  0.00024487  1
  V  V28  1  0.37568094  0.25471958  0.62737394  1
  V  V29  1  0.49818236  0.50450148  0.50816951  1
  V  V30  1  0.00999479  0.76104996  0.75207022  1
  V  V31  1  0.37528251  0.62455821  0.25302262  1
  V  V32  1  0.62196968  0.63214600  0.00088455  1
  V  V33  1  0.63069451  0.75347961  0.86929261  1
  V  V34  1  0.87960641  0.37427653  -0.00511807  1
  V  V35  1  0.87495911  0.37612330  0.50253801  1
  V  V36  1  0.37517415  0.50367988  0.86284997  1
  V  V37  1  0.49475960  0.62992987  0.64055139  1
  V  V38  1  0.38156953  0.00150759  0.87376962  1
  V  V39  1  0.86995037  0.25278678  0.12315486  1
  V  V40  1  0.12621712  0.37311342  0.24981443  1
  V  V41  1  0.24992936  0.12578699  0.87466875  1
  V  V42  1  0.80961067  0.69713168  0.05374837  1
  V  V43  1  0.37544439  0.37687483  -0.00363437  1
  V  V44  1  0.24986630  0.24877750  -0.00155751  1
  V  V45  1  0.50256317  -0.00669274  -0.00075983  1
  V  V46  1  0.64200565  0.88141177  0.75361430  1
  V  V47  1  0.12170130  0.24838613  0.37536302  1
  V  V48  1  0.25078448  0.24860728  0.50157904  1
  V  V49  1  0.62510748  0.12856646  -0.00525468  1
  V  V50  1  0.37516869  0.12420367  0.25046811  1
  V  V51  1  -0.00123947  0.11721422  0.12179352  1
  V  V52  1  0.87443103  -0.00017273  0.37753180  1
  V  V53  1  0.12646963  0.62608506  0.00123224  1
  V  V54  1  0.87252142  0.88039399  0.00151448  1
  V  V55  1  0.87069335  -0.00356980  0.87307463  1
  V  V56  1  -0.00142249  0.24805896  0.24971723  1
  V  V57  1  -0.01708341  0.74433449  0.24845771  1
  V  V58  1  0.62905695  0.62056713  0.50897974  1
  V  V59  1  0.24186905  0.74067806  0.50160311  1
  V  V60  1  0.50386147  0.50099139  0.00691325  1
  V  V61  1  0.12491600  0.25776094  0.86728563  1
  V  V62  1  0.86773514  0.11927457  0.24655103  1
  V  V63  1  0.24945949  0.12407521  0.37508953  1
  V  V64  1  0.11814030  0.12055951  0.49789796  1
  V  V65  1  0.24992382  0.37592607  0.12433360  1
  V  V66  1  0.74143277  0.49612936  0.74246516  1
  V  V67  1  0.25678818  0.49748596  0.25954140  1
  V  V68  1  -0.00471713  0.12298062  0.61869098  1
  V  V69  1  0.25752830  0.74608727  0.00456214  1
  V  V70  1  0.12616516  0.73758670  0.36716037  1
  V  V71  1  0.63045947  0.25438982  0.37833071  1
  V  V72  1  0.12009648  -0.00416468  0.62223591  1
  V  V73  1  0.49320142  0.75384010  0.24154909  1
  V  V74  1  0.44807951  0.81686197  0.81401567  1
  V  V75  1  0.49928426  0.25201064  0.25086616  1
  V  V76  1  0.04205857  -0.06059563  -0.05984722  1
  V  V77  1  0.37274039  0.38299756  0.49982979  1
  V  V78  1  0.87064152  0.12160522  0.74694068  1
  V  V79  1  0.50195994  0.12784411  0.62447014  1
  V  V80  1  0.22958436  0.49910820  0.75204011  1
  V  V81  1  0.74479710  0.25860229  -0.00311790  1
  V  V82  1  0.73506815  0.37318689  0.62115643  1
  V  V83  1  0.51363937  0.25514184  0.75429438  1
  V  V84  1  0.88212233  0.62383215  0.74579306  1
  Zn  Zn85  1  0.25091330  0.62954970  0.86883492  1
  Zn  Zn86  1  0.75510699  0.87766490  0.62318540  1
  Zn  Zn87  1  0.49397316  0.63031829  0.12456932  1
  Zn  Zn88  1  0.12184171  -0.00582883  0.12426152  1
  Zn  Zn89  1  0.62882700  0.00403082  0.12856629  1
  Zn  Zn90  1  0.37531214  0.24897438  0.12294419  1
  Zn  Zn91  1  0.23989410  0.37238099  0.63097791  1
  Zn  Zn92  1  0.63101532  0.00150706  0.63204813  1
  Zn  Zn93  1  0.38289796  0.86745920  0.00908776  1
  Zn  Zn94  1  0.25398716  0.61410880  0.38403865  1
  Zn  Zn95  1  0.86463998  0.50616170  0.36461016  1
  Zn  Zn96  1  0.12462934  0.50232426  0.12672135  1
  Zn  Zn97  1  0.74892221  0.61602423  0.34846394  1
  Zn  Zn98  1  -0.00692254  0.62809729  0.12612668  1
  Zn  Zn99  1  0.75391979  0.74665054  0.50058937  1
  Zn  Zn100  1  0.37230511  0.74543655  0.63864044  1
  Zn  Zn101  1  0.66134749  0.53823587  0.16531516  1
  Zn  Zn102  1  0.87529414  0.49600342  0.87111379  1
  Zn  Zn103  1  0.87484019  0.75060234  0.62314550  1
  Zn  Zn104  1  0.12052967  0.76033132  0.87980828  1
  Zn  Zn105  1  0.00349180  0.37911299  0.86602223  1
  Zn  Zn106  1  0.86730487  0.24845186  0.61772891  1
  Zn  Zn107  1  0.18692770  0.18604288  0.18459999  1
  Zn  Zn108  1  0.18528323  0.18651467  0.68541754  1
  Zn  Zn109  1  0.18690854  0.68364009  0.18952457  1
  Zn  Zn110  1  0.18325325  0.68183219  0.68931151  1
  Zn  Zn111  1  0.68617790  0.19224121  0.18475485  1
  Zn  Zn112  1  0.68976207  0.18878654  0.68714601  1
  Zn  Zn113  1  0.67978929  0.70574154  0.18679030  1
  Zn  Zn114  1  0.68871765  0.69305300  0.68569695  1
  Zn  Zn115  1  0.31426717  0.31191526  0.31514941  1
  Zn  Zn116  1  0.31220766  0.31872195  0.81032639  1
  Zn  Zn117  1  0.31132398  0.80965661  0.31496963  1
  Zn  Zn118  1  0.28563738  0.81694564  0.81412944  1
  Zn  Zn119  1  0.81097723  0.31450390  0.31321480  1
  Zn  Zn120  1  0.81150788  0.31104405  0.80967905  1
  Zn  Zn121  1  0.80867956  0.81189412  0.31605268  1
  Zn  Zn122  1  0.81987871  0.80779597  0.81379504  1
  Zn  Zn123  1  0.18682508  0.43206620  0.43796405  1
  Zn  Zn124  1  0.18768184  0.43992252  0.93701581  1
  Zn  Zn125  1  0.18640699  0.93548821  0.43987223  1
  Zn  Zn126  1  0.20599579  0.93802460  0.94580765  1
  Zn  Zn127  1  0.68899326  0.44250374  0.43891510  1
  Zn  Zn128  1  0.72399371  0.47461293  0.99580089  1
  Zn  Zn129  1  0.69067589  0.94082949  0.44008567  1
  Zn  Zn130  1  0.69036605  0.93907470  0.93730630  1
  Zn  Zn131  1  0.31362336  0.05853430  0.06377046  1
  Zn  Zn132  1  0.31215464  0.06271355  0.56215721  1
  Zn  Zn133  1  0.31601406  0.56223471  0.06705011  1
  Zn  Zn134  1  0.31155949  0.56191981  0.57417475  1
  Zn  Zn135  1  0.81321189  0.06148655  0.05548173  1
  Zn  Zn136  1  0.80964201  0.05640556  0.56025844  1
  Zn  Zn137  1  0.81537979  0.55239998  0.18094548  1
  Zn  Zn138  1  0.81819296  0.55827901  0.55720170  1
  Zn  Zn139  1  0.43656964  0.43848235  0.18741599  1
  Zn  Zn140  1  0.44240385  0.43773633  0.68778951  1
  Zn  Zn141  1  0.43589757  0.93879882  0.18841120  1
  Zn  Zn142  1  0.43451970  0.94253049  0.68060836  1
  Zn  Zn143  1  0.94169524  0.43273369  0.18431734  1
  Zn  Zn144  1  0.93596225  0.44135760  0.68213778  1
  Zn  Zn145  1  0.93794614  0.93496799  0.19194248  1
  Zn  Zn146  1  0.93572489  0.94013725  0.68640631  1
  Zn  Zn147  1  0.05853014  0.06264328  0.31046356  1
  Zn  Zn148  1  0.06182834  0.07084987  0.80456771  1
  Zn  Zn149  1  0.06199495  0.56236616  0.30750835  1
  Zn  Zn150  1  0.06024781  0.56860343  0.81688593  1
  Zn  Zn151  1  0.56132828  0.06251233  0.31519343  1
  Zn  Zn152  1  0.56340361  0.06317279  0.81281464  1
  Zn  Zn153  1  0.55803794  0.56438139  0.32078452  1
  Zn  Zn154  1  0.56655469  0.55909589  0.81904170  1
  Zn  Zn155  1  0.44028074  0.19077496  0.43849361  1
  Zn  Zn156  1  0.44009472  0.18963355  0.93618879  1
  Zn  Zn157  1  0.43581038  0.68554128  0.43636246  1
  Zn  Zn158  1  0.43437758  0.68158211  0.93780896  1
  Zn  Zn159  1  0.93198162  0.19444110  0.43798601  1
  Zn  Zn160  1  0.93682088  0.18821568  0.93299603  1
  Zn  Zn161  1  0.93306165  0.68618328  0.43077766  1
  Zn  Zn162  1  0.94546956  0.68461999  0.93054529  1
  Zn  Zn163  1  0.06158824  0.30885451  0.06208862  1
  Zn  Zn164  1  0.05794180  0.31144800  0.55997897  1
  Zn  Zn165  1  0.06986744  0.80738864  0.07424409  1
  Zn  Zn166  1  0.05798117  0.81012769  0.55574294  1
  Zn  Zn167  1  0.56246719  0.31181566  0.06103807  1
  Zn  Zn168  1  0.56209004  0.31228589  0.56099712  1
  Zn  Zn169  1  0.56973968  0.81397923  0.06220358  1
  Zn  Zn170  1  0.56319747  0.80712140  0.57174112  1
  O  O171  1  0.11830054  0.12127158  0.11425899  1
  O  O172  1  0.11788631  0.11743508  0.61619044  1
  O  O173  1  0.12330772  0.62254406  0.11451699  1
  O  O174  1  0.11309032  0.61320929  0.62631175  1
  O  O175  1  0.61922745  0.12429536  0.11503365  1
  O  O176  1  0.62088638  0.12689779  0.61649344  1
  O  O177  1  0.61376328  0.63540958  0.11376198  1
  O  O178  1  0.61156642  0.63252123  0.61512507  1
  O  O179  1  0.38562157  0.36527670  0.38863234  1
  O  O180  1  0.37575183  0.38413946  0.88529776  1
  O  O181  1  0.37872552  0.88005380  0.38448307  1
  O  O182  1  0.38065438  0.87825631  0.87072701  1
  O  O183  1  0.88258232  0.37294477  0.38055634  1
  O  O184  1  0.88185812  0.37168887  0.88093982  1
  O  O185  1  0.88103504  0.88355095  0.37523911  1
  O  O186  1  0.87128064  0.88700980  0.88172755  1
  O  O187  1  0.25418465  0.00328739  0.36996379  1
  O  O188  1  0.26100031  0.00329884  0.86706019  1
  O  O189  1  0.24737607  0.49523471  0.36408627  1
  O  O190  1  0.25611288  0.49922172  0.86437765  1
  O  O191  1  0.75664645  0.01403928  0.37400315  1
  O  O192  1  0.76067563  0.01428641  0.88089411  1
  O  O193  1  0.74770775  0.50214027  0.36902798  1
  O  O194  1  0.75465265  0.51479042  0.87623542  1
  O  O195  1  0.25048600  0.48596304  0.13164900  1
  O  O196  1  0.23175145  0.50018301  0.63389844  1
  O  O197  1  0.24753604  0.99378575  0.13399062  1
  O  O198  1  0.24306773  0.99519303  0.62958353  1
  O  O199  1  0.74640892  0.50193482  0.10349771  1
  O  O200  1  0.75284587  0.49147046  0.63625115  1
  O  O201  1  0.74849658  0.99165890  0.12287186  1
  O  O202  1  0.74249535  0.99121569  0.61811263  1
  O  O203  1  0.00797799  0.36547734  0.25576274  1
  O  O204  1  -0.00731516  0.36054877  0.74572906  1
  O  O205  1  -0.00383809  0.86291603  0.26300124  1
  O  O206  1  -0.00276375  0.85900219  0.74159927  1
  O  O207  1  0.49937282  0.36795972  0.25916244  1
  O  O208  1  0.49902821  0.37061777  0.76378576  1
  O  O209  1  0.50253251  0.87143178  0.25802869  1
  O  O210  1  0.50128744  0.87626474  0.75213428  1
  O  O211  1  0.49670818  0.13255425  0.24644976  1
  O  O212  1  0.49408057  0.13321561  0.74644848  1
  O  O213  1  0.49452222  0.63566737  0.25187214  1
  O  O214  1  0.50654763  0.61663868  0.73841821  1
  O  O215  1  0.99133744  0.13061328  0.24272990  1
  O  O216  1  0.99170562  0.13405941  0.73867963  1
  O  O217  1  1.00359299  0.63959937  0.24683559  1
  O  O218  1  0.99546690  0.63105336  0.74268676  1
  O  O219  1  0.36787917  0.25792282  -0.00184160  1
  O  O220  1  0.37275252  0.25603762  0.51071878  1
  O  O221  1  0.36314300  0.74954613  -0.00378505  1
  O  O222  1  0.36639866  0.76107650  0.49844896  1
  O  O223  1  0.87058382  0.25437683  0.00408198  1
  O  O224  1  0.86897673  0.26609351  0.49956147  1
  O  O225  1  0.87340735  0.75453537  -0.00419911  1
  O  O226  1  0.87471055  0.76077574  0.49993794  1
  O  O227  1  0.13001863  0.23914839  0.49702397  1
  O  O228  1  0.13107184  0.24153091  0.99207848  1
  O  O229  1  0.13323496  0.75586391  0.48668534  1
  O  O230  1  0.13464181  0.74293492  1.00217171  1
  O  O231  1  0.61735910  0.24079908  0.48915481  1
  O  O232  1  0.63359406  0.24286100  1.00262933  1
  O  O233  1  0.62334346  0.74070202  0.49551216  1
  O  O234  1  0.61601108  0.74231885  0.98482501  1
  O  O235  1  0.49727847  0.24428887  0.13324433  1
  O  O236  1  0.49344713  0.24801552  0.63269144  1
  O  O237  1  0.50138455  0.75687638  0.13847354  1
  O  O238  1  0.49192972  0.73549684  0.62724974  1
  O  O239  1  0.99417662  0.23660890  0.12926382  1
  O  O240  1  0.99803638  0.23826912  0.62848175  1
  O  O241  1  1.00110411  0.75143872  0.14476980  1
  O  O242  1  1.00362166  0.73885791  0.63221994  1
  O  O243  1  0.00519605  0.25286555  0.36692604  1
  O  O244  1  0.00914399  0.24786769  0.86326546  1
  O  O245  1  0.01088626  0.75426469  0.36627742  1
  O  O246  1  0.00387051  0.75040052  0.85855880  1
  O  O247  1  0.50841849  0.25680804  0.36843210  1
  O  O248  1  0.49523196  0.26543039  0.86866258  1
  O  O249  1  0.50809303  0.75712386  0.37199485  1
  O  O250  1  0.50330289  0.75250859  0.87241986  1
  O  O251  1  0.24346657  0.12956777  0.49406567  1
  O  O252  1  0.23968694  0.12616027  0.99551494  1
  O  O253  1  0.25764594  0.63725209  0.50231584  1
  O  O254  1  0.24569182  0.63061431  1.00284296  1
  O  O255  1  0.73814191  0.12460061  0.49088604  1
  O  O256  1  0.74289128  0.13358249  0.99336730  1
  O  O257  1  0.73288124  0.62379593  0.51205421  1
  O  O258  1  0.74505956  0.63868980  0.99311337  1
  O  O259  1  0.25654157  0.37192408  0.00591749  1
  O  O260  1  0.25775300  0.36704220  0.50389211  1
  O  O261  1  0.25939783  0.86509465  0.01265049  1
  O  O262  1  0.25599251  0.87002235  0.50970531  1
  O  O263  1  0.76118314  0.36313601  -0.00873836  1
  O  O264  1  0.75351306  0.37909541  0.51531778  1
  O  O265  1  0.76393545  0.87955933  0.00788744  1
  O  O266  1  0.76534621  0.87227238  0.49204318  1
  O  O267  1  0.13402265  0.49036130  0.24686902  1
  O  O268  1  0.12881187  0.49701553  0.75278917  1
  O  O269  1  0.13875694  1.00614437  0.25005045  1
  O  O270  1  0.13658692  1.00951396  0.73941037  1
  O  O271  1  0.60859618  0.48503401  0.25161143  1
  O  O272  1  0.64383348  0.50204890  0.75555994  1
  O  O273  1  0.61813095  0.98699679  0.25015000  1
  O  O274  1  0.62176335  0.98460162  0.75395478  1
  O  O275  1  0.36640389  0.00707340  0.25750798  1
  O  O276  1  0.36615574  0.00646240  0.75386565  1
  O  O277  1  0.36724374  0.50473226  0.25015015  1
  O  O278  1  0.37247488  0.49492150  0.76148759  1
  O  O279  1  0.87835122  0.01342037  0.25867777  1
  O  O280  1  0.88066780  0.01274531  0.75751166  1
  O  O281  1  0.88523536  0.50039036  0.24948376  1
  O  O282  1  0.87042833  0.51093184  0.75110501  1
  O  O283  1  0.11709472  0.36647548  0.37148409  1
  O  O284  1  0.12481976  0.36071784  0.87843266  1
  O  O285  1  0.11294346  0.87136665  0.37712425  1
  O  O286  1  0.11618714  0.88438897  0.89078630  1
  O  O287  1  0.61552373  0.36813574  0.37145476  1
  O  O288  1  0.61184692  0.37909820  0.88117391  1
  O  O289  1  0.62058382  0.87113004  0.37168066  1
  O  O290  1  0.63068541  0.86938981  0.86563503  1
  O  O291  1  0.38110592  0.12655871  0.13142714  1
  O  O292  1  0.38040105  0.13406320  0.62842402  1
  O  O293  1  0.37882295  0.62184317  0.14245110  1
  O  O294  1  0.38803370  0.62749293  0.62822274  1
  O  O295  1  0.87986835  0.12878673  0.12826348  1
  O  O296  1  0.87958242  0.12470413  0.62747526  1
  O  O297  1  0.86935166  0.63755744  0.10988608  1
  O  O298  1  0.88933996  0.62299225  0.62808220  1
  O  O299  1  0.25220902  0.25933934  0.11844047  1
  O  O300  1  0.25706936  0.25135581  0.62099185  1
  O  O301  1  0.24885868  0.75953792  0.12353684  1
  O  O302  1  0.24828234  0.75615835  0.62149235  1
  O  O303  1  0.76002999  0.24411364  0.11213023  1
  O  O304  1  0.75133522  0.26942843  0.63440077  1
  O  O305  1  0.75432426  0.75998194  0.11454184  1
  O  O306  1  0.75575351  0.75829222  0.62086371  1
  O  O307  1  0.24316380  0.24358187  0.38074835  1
  O  O308  1  0.24479277  0.24515362  0.87711784  1
  O  O309  1  0.23785476  0.75100577  0.38303984  1
  O  O310  1  0.24000965  0.74804182  0.88756012  1
  O  O311  1  0.73654045  0.24109962  0.36975072  1
  O  O312  1  0.75586603  0.23709548  0.88235001  1
  O  O313  1  0.73300715  0.74647961  0.37530305  1
  O  O314  1  0.74375046  0.73754704  0.86782629  1
  O  O315  1  0.01039129  0.13076718  0.00550406  1
  O  O316  1  0.00650272  0.13017125  0.50520751  1
  O  O317  1  0.00658110  0.61738847  0.00267769  1
  O  O318  1  0.00125616  0.63408564  0.51257725  1
  O  O319  1  0.50696933  0.11955546  0.00211234  1
  O  O320  1  0.50791516  0.12167413  0.50479624  1
  O  O321  1  0.50454883  0.61769327  0.00088291  1
  O  O322  1  0.50404334  0.61891385  0.50580912  1
  O  O323  1  0.49346442  0.38269235  0.49695234  1
  O  O324  1  0.49454304  0.37932561  0.99114661  1
  O  O325  1  0.49305137  0.87777637  0.49996026  1
  O  O326  1  0.50030803  0.88881056  1.00491822  1
  O  O327  1  0.98797982  0.36929776  0.48936339  1
  O  O328  1  0.99715127  0.37857276  0.99604519  1
  O  O329  1  0.99044048  0.87038868  0.48048041  1
  O  O330  1  0.99290546  0.87312892  1.00631538  1
  O  O331  1  0.49930721  0.48886767  0.38896477  1
  O  O332  1  0.49180200  0.49054818  0.88011626  1
  O  O333  1  0.49214037  0.99426682  0.38180215  1
  O  O334  1  0.48851195  1.00619994  0.88193091  1
  O  O335  1  1.00304000  0.48734090  0.37192949  1
  O  O336  1  0.99789932  0.49813313  0.88570235  1
  O  O337  1  0.99412298  0.98696442  0.36749540  1
  O  O338  1  0.99426626  1.00250286  0.87127474  1
  O  O339  1  0.00241475  0.01310332  0.13306468  1
  O  O340  1  0.00819643  0.01284970  0.62919849  1
  O  O341  1  0.00255740  0.50201805  0.11095226  1
  O  O342  1  0.01129401  0.51023854  0.62472408  1
  O  O343  1  0.50098223  0.00800771  0.11695450  1
  O  O344  1  0.50492980  0.01003424  0.61962216  1
  O  O345  1  0.49893168  0.49776218  0.10975755  1
  O  O346  1  0.49631663  0.50953661  0.61582062  1
  O  O347  1  0.24897917  0.37697809  0.24326242  1
  O  O348  1  0.25301307  0.39291387  0.74582270  1
  O  O349  1  0.25516817  0.88231378  0.24239994  1
  O  O350  1  0.24625880  0.88577389  0.73467605  1
  O  O351  1  0.73126215  0.36961168  0.25098359  1
  O  O352  1  0.75819491  0.38904632  0.74117721  1
  O  O353  1  0.74131324  0.86949677  0.24110500  1
  O  O354  1  0.74372632  0.87493773  0.75222632  1
  O  O355  1  0.25524670  0.11955111  0.25535692  1
  O  O356  1  0.25654424  0.12005545  0.75374850  1
  O  O357  1  0.25628402  0.61319188  0.25166939  1
  O  O358  1  0.24684352  0.60685510  0.75092245  1
  O  O359  1  0.75634987  0.13028174  0.25558104  1
  O  O360  1  0.75789603  0.12874599  0.75752523  1
  O  O361  1  0.73064900  0.61715104  0.23291693  1
  O  O362  1  0.75783018  0.61648539  0.75160155  1
  O  O363  1  0.36982754  0.12051425  0.37240550  1
  O  O364  1  0.36964407  0.11902263  0.87012761  1
  O  O365  1  0.37041035  0.62728255  0.36217680  1
  O  O366  1  0.37064848  0.60748010  0.87816337  1
  O  O367  1  0.86755346  0.12209342  0.36765691  1
  O  O368  1  0.86979722  0.11800267  0.86720296  1
  O  O369  1  0.85836256  0.62115013  0.38498868  1
  O  O370  1  0.86977404  0.62511493  0.86435465  1
  O  O371  1  0.13421717  0.37237662  0.13026547  1
  O  O372  1  0.12133868  0.39007279  0.61719250  1
  O  O373  1  0.14535975  0.88045429  0.12127398  1
  O  O374  1  0.12812447  0.88824614  0.61355560  1
  O  O375  1  0.61815378  0.37139618  0.14123941  1
  O  O376  1  0.63569479  0.37584540  0.62222876  1
  O  O377  1  0.63573393  0.87735021  0.13334895  1
  O  O378  1  0.62325793  0.87329418  0.64485801  1
  O  O379  1  0.12094555  0.25286391  0.25469144  1
  O  O380  1  0.11540706  0.24297859  0.75631854  1
  O  O381  1  0.12690588  0.75100445  0.26514987  1
  O  O382  1  0.11519009  0.75015234  0.75354111  1
  O  O383  1  0.61385555  0.25753127  0.25602171  1
  O  O384  1  0.61218742  0.24606441  0.75017179  1
  O  O385  1  0.61266269  0.76383476  0.26022295  1
  O  O386  1  0.62507526  0.76223091  0.76087215  1
  O  O387  1  0.38583130  0.24423576  0.25099796  1
  O  O388  1  0.37954273  0.24862288  0.74175216  1
  O  O389  1  0.38427094  0.74397206  0.25619920  1
  O  O390  1  0.37833871  0.76311994  0.76062304  1
  O  O391  1  0.87665669  0.24154085  0.24116458  1
  O  O392  1  0.88187173  0.23724297  0.74659775  1
  O  O393  1  0.88440414  0.74762134  0.25662504  1
  O  O394  1  0.88588433  0.73939438  0.74574937  1
  O  O395  1  0.37703441  0.48877583  0.50750117  1
  O  O396  1  0.38213465  0.49323454  0.99298102  1
  O  O397  1  0.37933867  0.98968325  0.49844164  1
  O  O398  1  0.38139267  0.99728818  0.98961066  1
  O  O399  1  0.87240505  0.48136489  0.49290028  1
  O  O400  1  0.88347426  0.48092896  0.99691526  1
  O  O401  1  0.87658577  0.99723726  0.48328497  1
  O  O402  1  0.88186991  0.99295427  0.98890140  1
  O  O403  1  0.11608613  0.00367902  -0.00502237  1
  O  O404  1  0.12947716  0.01286055  0.50629599  1
  O  O405  1  0.11906973  0.50510892  0.00212393  1
  O  O406  1  0.12746874  0.50297270  0.50663728  1
  O  O407  1  0.61748487  0.00801189  0.00069352  1
  O  O408  1  0.61631410  0.01051546  0.49666137  1
  O  O409  1  0.61591098  0.52084749  -0.01120672  1
  O  O410  1  0.61404749  0.51352547  0.50020323  1
  O  O411  1  0.36991556  0.37288000  0.11285469  1
  O  O412  1  0.37518727  0.36672944  0.61913378  1
  O  O413  1  0.35930981  0.88188739  0.12499955  1
  O  O414  1  0.36497997  0.87109290  0.61897106  1
  O  O415  1  0.88550514  0.35733928  0.11503890  1
  O  O416  1  0.87178040  0.37395969  0.61363521  1
  O  O417  1  0.86892667  0.88175986  0.11724757  1
  O  O418  1  0.88079474  0.87655571  0.61010177  1
  O  O419  1  0.12729785  0.12755384  0.38126701  1
  O  O420  1  0.13054512  0.13197169  0.88006467  1
  O  O421  1  0.12998311  0.63472149  0.37330542  1
  O  O422  1  0.12862121  0.62659342  0.89021072  1
  O  O423  1  0.63063774  0.13121233  0.37863712  1
  O  O424  1  0.63228769  0.12166013  0.88555665  1
  O  O425  1  0.62212397  0.63317302  0.38961957  1
  O  O426  1  0.63285233  0.63470973  0.87772454  1
