# generated using pymatgen
data_V85Zn86O256
_symmetry_space_group_name_H-M   'P 1'
_cell_length_a   16.93262349
_cell_length_b   16.92142406
_cell_length_c   16.92333586
_cell_angle_alpha   90.02469375
_cell_angle_beta   90.05516754
_cell_angle_gamma   90.07570288
_symmetry_Int_Tables_number   1
_chemical_formula_structural   V85Zn86O256
_chemical_formula_sum   'V85 Zn86 O256'
_cell_volume   4848.93668782
_cell_formula_units_Z   1
loop_
 _symmetry_equiv_pos_site_id
 _symmetry_equiv_pos_as_xyz
  1  'x, y, z'
loop_
 _atom_site_type_symbol
 _atom_site_label
 _atom_site_symmetry_multiplicity
 _atom_site_fract_x
 _atom_site_fract_y
 _atom_site_fract_z
 _atom_site_occupancy
  V  V0  1  0.36587820  0.87370513  0.01175264  1
  V  V1  1  0.37447738  0.12399661  0.74920792  1
  V  V2  1  0.12379471  0.87243551  0.24746716  1
  V  V3  1  0.62385631  0.62460019  0.50067292  1
  V  V4  1  0.75553749  0.12846714  0.37925697  1
  V  V5  1  0.62978258  0.00568970  0.12518188  1
  V  V6  1  0.50703837  0.12972199  0.13082851  1
  V  V7  1  0.74557448  0.87551290  0.12720640  1
  V  V8  1  0.62437024  0.24904272  0.36808783  1
  V  V9  1  0.50059029  0.50265622  0.00982407  1
  V  V10  1  0.50215609  0.87577384  0.36500496  1
  V  V11  1  0.62357940  0.87482163  0.74795625  1
  V  V12  1  0.48732161  0.36742306  0.37645909  1
  V  V13  1  0.74990270  0.00154879  0.74909892  1
  V  V14  1  0.37205337  0.74089034  0.12938930  1
  V  V15  1  0.00156494  0.50262727  -0.00082085  1
  V  V16  1  0.87407333  0.50220532  0.87192898  1
  V  V17  1  0.25285243  0.25455890  0.50080396  1
  V  V18  1  0.49886126  0.62428214  0.62516297  1
  V  V19  1  0.00042301  0.49976472  0.49857232  1
  V  V20  1  0.00188069  0.37967308  0.86943470  1
  V  V21  1  0.37102464  0.86635883  0.49853023  1
  V  V22  1  0.25087955  0.37451242  0.12681053  1
  V  V23  1  0.74997205  -0.00334616  0.25663672  1
  V  V24  1  0.00005510  0.24776671  0.24713913  1
  V  V25  1  0.37849597  0.37385681  -0.00061068  1
  V  V26  1  0.37582668  -0.00170442  0.87526285  1
  V  V27  1  0.12608569  0.24953657  0.37500746  1
  V  V28  1  0.38054313  0.24934625  0.13263626  1
  V  V29  1  0.50687966  0.00505638  0.00111019  1
  V  V30  1  0.37330924  0.62652184  0.75060168  1
  V  V31  1  0.87607108  0.12006286  0.25297992  1
  V  V32  1  0.37513232  -0.00199957  0.37547401  1
  V  V33  1  0.25081991  -0.00492559  0.24281775  1
  V  V34  1  -0.00683431  0.87955802  0.36931306  1
  V  V35  1  0.25115639  0.12217387  0.37492610  1
  V  V36  1  0.62735047  0.37502603  0.75096990  1
  V  V37  1  0.11641933  -0.00518384  0.62370237  1
  V  V38  1  -0.00376209  0.62511568  0.13249150  1
  V  V39  1  0.12009309  0.11736960  0.50037142  1
  V  V40  1  0.76402048  0.74846500  0.50437708  1
  V  V41  1  0.62154247  0.74882182  0.87581423  1
  V  V42  1  0.11219085  0.85868162  0.76505848  1
  V  V43  1  0.74927763  0.62168876  0.36868498  1
  V  V44  1  0.50060596  0.25088161  0.75206546  1
  V  V45  1  0.12597401  0.12427045  -0.00256489  1
  V  V46  1  0.88186485  0.89283301  0.50419555  1
  V  V47  1  0.62625498  0.75699867  0.37445486  1
  V  V48  1  0.49917021  0.87512976  0.87713628  1
  V  V49  1  0.50357417  0.73506140  0.24340511  1
  V  V50  1  0.75013060  0.37544497  0.13184065  1
  V  V51  1  0.11879552  0.50011275  0.63515883  1
  V  V52  1  0.13259137  0.74573785  0.36641246  1
  V  V53  1  0.62812897  0.12998844  0.50050751  1
  V  V54  1  -0.00005667  0.37494852  0.37420616  1
  V  V55  1  0.00328220  0.25466787  0.74415868  1
  V  V56  1  0.00035875  0.12199151  0.12160354  1
  V  V57  1  0.24398352  0.37694048  0.62677284  1
  V  V58  1  0.24630790  0.86451228  0.62213169  1
  V  V59  1  0.37559639  0.25854428  0.62370923  1
  V  V60  1  0.74961483  0.36986602  0.61566916  1
  V  V61  1  0.12734743  0.37452333  0.25038888  1
  V  V62  1  0.24722299  -0.00422640  0.74862009  1
  V  V63  1  0.12639001  0.25676023  0.86950780  1
  V  V64  1  0.87142406  0.49823359  0.36824423  1
  V  V65  1  0.49893227  0.12494392  0.62349527  1
  V  V66  1  0.25095662  0.25058285  -0.00044411  1
  V  V67  1  0.86688078  0.36734493  -0.00301695  1
  V  V68  1  0.62378348  0.38283572  0.25416880  1
  V  V69  1  0.24690329  0.49899297  0.75469898  1
  V  V70  1  0.13672027  0.63103445  0.49762773  1
  V  V71  1  0.87404500  0.63829248  0.74327319  1
  V  V72  1  0.12481115  0.50239621  0.12185540  1
  V  V73  1  0.74551598  0.62338893  0.87439772  1
  V  V74  1  0.25285889  0.63644728  0.88909333  1
  V  V75  1  0.87914522  0.87373316  -0.00542329  1
  V  V76  1  0.50038117  -0.00195781  0.49975186  1
  V  V77  1  0.87807331  0.12523419  0.74897857  1
  V  V78  1  0.62838954  0.24844205  0.88812353  1
  V  V79  1  0.37105159  0.51652120  0.37767601  1
  V  V80  1  0.25341469  0.51807450  0.25233462  1
  V  V81  1  0.62075746  0.62586974  0.00953763  1
  V  V82  1  -0.00723047  0.63829096  0.62176419  1
  V  V83  1  0.87373472  0.75015554  0.13619394  1
  V  V84  1  0.74922162  0.12837110  0.88550958  1
  Zn  Zn85  1  0.49224425  0.49428329  0.50137534  1
  Zn  Zn86  1  0.62784494  0.50611864  0.13418929  1
  Zn  Zn87  1  0.10923415  0.71093884  -0.05743609  1
  Zn  Zn88  1  0.88120805  -0.00663529  0.87101138  1
  Zn  Zn89  1  0.86911361  0.24664209  0.61880361  1
  Zn  Zn90  1  0.75696753  0.87015512  0.62844941  1
  Zn  Zn91  1  0.38029403  0.12701608  0.25292204  1
  Zn  Zn92  1  0.13079194  -0.00294967  0.12144461  1
  Zn  Zn93  1  0.00706361  -0.00756765  -0.00875742  1
  Zn  Zn94  1  0.62488262  -0.00146197  0.62353740  1
  Zn  Zn95  1  0.74933229  0.50021905  0.74452644  1
  Zn  Zn96  1  -0.00295038  0.12340074  0.61903345  1
  Zn  Zn97  1  0.50359455  0.37527582  0.87770987  1
  Zn  Zn98  1  0.62330266  0.49845799  0.62412801  1
  Zn  Zn99  1  0.25135798  0.12581820  0.87325897  1
  Zn  Zn100  1  0.86900600  0.36796832  0.49454914  1
  Zn  Zn101  1  0.74765299  0.74971175  0.00253050  1
  Zn  Zn102  1  0.49663323  0.75023817  0.74935722  1
  Zn  Zn103  1  0.87097142  0.62248041  0.25008486  1
  Zn  Zn104  1  0.86743510  0.24498072  0.11758941  1
  Zn  Zn105  1  0.37734359  0.49991210  0.87756989  1
  Zn  Zn106  1  0.36987787  0.74519159  0.61993377  1
  Zn  Zn107  1  0.18967908  0.18498261  0.18653201  1
  Zn  Zn108  1  0.18634130  0.18443096  0.68718366  1
  Zn  Zn109  1  0.17111432  0.70746760  0.14737213  1
  Zn  Zn110  1  0.18457142  0.68377739  0.68816347  1
  Zn  Zn111  1  0.68925056  0.19175932  0.18732945  1
  Zn  Zn112  1  0.68661370  0.18907774  0.69038355  1
  Zn  Zn113  1  0.68546334  0.69311753  0.19099769  1
  Zn  Zn114  1  0.68687519  0.68847339  0.68669770  1
  Zn  Zn115  1  0.31108672  0.31332425  0.31108782  1
  Zn  Zn116  1  0.31137469  0.31500896  0.81102034  1
  Zn  Zn117  1  0.31177351  0.80783341  0.30497759  1
  Zn  Zn118  1  0.30937467  0.81202008  0.81340723  1
  Zn  Zn119  1  0.81205021  0.30831542  0.31025883  1
  Zn  Zn120  1  0.81246554  0.31073991  0.80813160  1
  Zn  Zn121  1  0.81237145  0.81485124  0.31619549  1
  Zn  Zn122  1  0.80827159  0.81015188  0.81387030  1
  Zn  Zn123  1  0.18962256  0.44116309  0.44001294  1
  Zn  Zn124  1  0.18748323  0.43979613  0.93757449  1
  Zn  Zn125  1  0.18578983  0.93300256  0.43480156  1
  Zn  Zn126  1  0.18759866  0.93501669  0.93522676  1
  Zn  Zn127  1  0.68416250  0.43923021  0.43693909  1
  Zn  Zn128  1  0.68747801  0.43816805  0.94066939  1
  Zn  Zn129  1  0.69117672  0.93874999  0.44034406  1
  Zn  Zn130  1  0.69078599  0.93932939  0.93815683  1
  Zn  Zn131  1  0.31675695  0.06457776  0.06108989  1
  Zn  Zn132  1  0.31015480  0.05947992  0.56303048  1
  Zn  Zn133  1  0.31780786  0.56131083  0.06921605  1
  Zn  Zn134  1  0.31232768  0.55888282  0.56300125  1
  Zn  Zn135  1  0.81691176  0.05841043  0.06345640  1
  Zn  Zn136  1  0.80918081  0.06252079  0.56599152  1
  Zn  Zn137  1  0.80951407  0.55848495  0.06162789  1
  Zn  Zn138  1  0.81191031  0.55606027  0.55839421  1
  Zn  Zn139  1  0.43907567  0.43940614  0.19295122  1
  Zn  Zn140  1  0.43766500  0.43909925  0.68920058  1
  Zn  Zn141  1  0.43987802  0.94085557  0.18803868  1
  Zn  Zn142  1  0.43628664  0.93528112  0.68500456  1
  Zn  Zn143  1  0.93525137  0.43547331  0.18749971  1
  Zn  Zn144  1  0.93400271  0.43933452  0.68738707  1
  Zn  Zn145  1  0.93765349  0.93886394  0.18611585  1
  Zn  Zn146  1  0.93880479  0.93322218  0.68886244  1
  Zn  Zn147  1  0.06240055  0.05740302  0.31413530  1
  Zn  Zn148  1  0.06231123  0.06108939  0.81148232  1
  Zn  Zn149  1  0.06510840  0.56402562  0.31070403  1
  Zn  Zn150  1  0.04964265  0.60158109  0.82481073  1
  Zn  Zn151  1  0.56646787  0.06041760  0.30974169  1
  Zn  Zn152  1  0.56513134  0.06420970  0.81382091  1
  Zn  Zn153  1  0.56027064  0.56031960  0.31866907  1
  Zn  Zn154  1  0.55824367  0.55803369  0.81709868  1
  Zn  Zn155  1  0.43760697  0.18892919  0.43848739  1
  Zn  Zn156  1  0.44055556  0.18633657  0.93982187  1
  Zn  Zn157  1  0.43983870  0.68886811  0.43584392  1
  Zn  Zn158  1  0.43536225  0.68873772  0.94219530  1
  Zn  Zn159  1  0.93633324  0.18790864  0.43761572  1
  Zn  Zn160  1  0.94043338  0.18476714  0.93151955  1
  Zn  Zn161  1  0.94522708  0.68956667  0.42918301  1
  Zn  Zn162  1  0.92988685  0.68848898  0.94369332  1
  Zn  Zn163  1  0.05935436  0.31355881  0.05950093  1
  Zn  Zn164  1  0.06370604  0.31383825  0.56068197  1
  Zn  Zn165  1  0.05558763  0.81347800  0.07069116  1
  Zn  Zn166  1  0.06356585  0.81275400  0.55412926  1
  Zn  Zn167  1  0.56469491  0.31484810  0.06700501  1
  Zn  Zn168  1  0.56435578  0.31187297  0.55816513  1
  Zn  Zn169  1  0.56237578  0.81659571  0.06380044  1
  Zn  Zn170  1  0.56099536  0.80952290  0.56175748  1
  O  O171  1  0.11992945  0.12578784  0.11322142  1
  O  O172  1  0.12732941  0.11410635  0.61639130  1
  O  O173  1  0.11337864  0.60799982  0.13280188  1
  O  O174  1  0.11231275  0.62044181  0.61713670  1
  O  O175  1  0.62054135  0.11979853  0.12635449  1
  O  O176  1  0.61924877  0.12616846  0.61671687  1
  O  O177  1  0.63282419  0.62524092  0.11342845  1
  O  O178  1  0.61706710  0.62340945  0.61882525  1
  O  O179  1  0.38535051  0.37519378  0.37276237  1
  O  O180  1  0.37606474  0.37213280  0.88968300  1
  O  O181  1  0.38180037  0.87832553  0.38030282  1
  O  O182  1  0.38074252  0.87873788  0.88359278  1
  O  O183  1  0.88099469  0.37930334  0.37362461  1
  O  O184  1  0.87729529  0.38250354  0.87897395  1
  O  O185  1  0.88599270  0.87182488  0.38431183  1
  O  O186  1  0.86792376  0.87123166  0.89095693  1
  O  O187  1  0.25470164  0.00704956  0.36929321  1
  O  O188  1  0.25551711  -0.00010002  0.86240761  1
  O  O189  1  0.26001085  0.49640115  0.36376213  1
  O  O190  1  0.25491866  0.49688004  0.86275572  1
  O  O191  1  0.74174904  0.01107039  0.36388342  1
  O  O192  1  0.75291915  0.01036573  0.86574958  1
  O  O193  1  0.75871445  0.50979215  0.38398072  1
  O  O194  1  0.75533443  0.50919076  0.87346783  1
  O  O195  1  0.24486500  0.49569798  0.13447931  1
  O  O196  1  0.24304578  0.49424415  0.63290021  1
  O  O197  1  0.25181940  1.00921131  0.13935674  1
  O  O198  1  0.24520524  0.99110252  0.63525018  1
  O  O199  1  0.74640112  0.48309124  0.12221225  1
  O  O200  1  0.74389251  0.48845603  0.62516703  1
  O  O201  1  0.74631456  0.99643891  0.13198431  1
  O  O202  1  0.74488434  0.99594374  0.63740932  1
  O  O203  1  0.00724870  0.36926271  0.25431435  1
  O  O204  1  -0.00585764  0.36798174  0.75687972  1
  O  O205  1  0.00368399  0.87929445  0.26113461  1
  O  O206  1  0.01367745  0.87468951  0.75046477  1
  O  O207  1  0.50817314  0.37688473  0.26530185  1
  O  O208  1  0.50629884  0.36798398  0.75248897  1
  O  O209  1  0.50205110  0.87646065  0.26310511  1
  O  O210  1  0.50597107  0.87528162  0.75786692  1
  O  O211  1  0.49841994  0.11883543  0.23605001  1
  O  O212  1  0.49564899  0.13034084  0.74331294  1
  O  O213  1  0.50464263  0.63641079  0.25093665  1
  O  O214  1  0.49142935  0.62294168  0.74395251  1
  O  O215  1  0.99540811  0.12581131  0.24440426  1
  O  O216  1  0.99257220  0.13369965  0.74723611  1
  O  O217  1  0.99219753  0.61384231  0.23719272  1
  O  O218  1  0.98873813  0.61894755  0.72886267  1
  O  O219  1  0.37096842  0.25517238  0.00805748  1
  O  O220  1  0.36104646  0.24392622  0.50853964  1
  O  O221  1  0.38433944  0.76408012  0.01576033  1
  O  O222  1  0.37805865  0.76231594  0.49902436  1
  O  O223  1  0.88459964  0.26424694  -0.00245080  1
  O  O224  1  0.88697149  0.25706102  0.50783751  1
  O  O225  1  0.86905168  0.75870307  0.01130244  1
  O  O226  1  0.86448226  0.74917262  0.49417095  1
  O  O227  1  0.13679800  0.24240972  0.49682852  1
  O  O228  1  0.13064971  0.24554215  0.99335304  1
  O  O229  1  0.12317432  0.74101377  0.48672001  1
  O  O230  1  0.13822563  0.74547300  1.04073887  1
  O  O231  1  0.61977226  0.23646444  0.48823190  1
  O  O232  1  0.62126973  0.25376540  0.98722466  1
  O  O233  1  0.63019488  0.74152479  0.49290394  1
  O  O234  1  0.62363980  0.74363706  0.99402960  1
  O  O235  1  0.49327216  0.24117468  0.11954644  1
  O  O236  1  0.49167630  0.24672805  0.62767976  1
  O  O237  1  0.50003422  0.75601156  0.13985489  1
  O  O238  1  0.49651284  0.73663482  0.62743999  1
  O  O239  1  1.00037477  0.23991912  0.13116586  1
  O  O240  1  1.00722231  0.24839039  0.63668578  1
  O  O241  1  0.98598672  0.73656571  0.12500919  1
  O  O242  1  0.99888435  0.73624605  0.61550984  1
  O  O243  1  0.00866282  0.25389496  0.36678004  1
  O  O244  1  0.00765358  0.25595257  0.86375765  1
  O  O245  1  0.01274766  0.76540361  0.37689978  1
  O  O246  1  0.01846648  0.70115116  0.87973918  1
  O  O247  1  0.50456895  0.25988596  0.37619589  1
  O  O248  1  0.50916071  0.24881803  0.86925436  1
  O  O249  1  0.50653893  0.75610552  0.36615023  1
  O  O250  1  0.50429116  0.75714859  0.87375613  1
  O  O251  1  0.24373924  0.12945483  0.49095379  1
  O  O252  1  0.24380989  0.13163844  0.99739201  1
  O  O253  1  0.23538392  0.62202590  0.50647962  1
  O  O254  1  0.26257976  0.61886203  0.98727092  1
  O  O255  1  0.74109164  0.11899262  0.49131601  1
  O  O256  1  0.75926383  0.12098616  0.98393803  1
  O  O257  1  0.74485466  0.63377162  0.49391574  1
  O  O258  1  0.74147927  0.62511580  0.99065307  1
  O  O259  1  0.25808402  0.37214588  0.00755605  1
  O  O260  1  0.24621279  0.36731298  0.51280025  1
  O  O261  1  0.26786489  0.88287065  0.00085506  1
  O  O262  1  0.25954706  0.88212191  0.50924918  1
  O  O263  1  0.75843160  0.37707427  0.00857666  1
  O  O264  1  0.74556563  0.37522282  0.51208923  1
  O  O265  1  0.75853189  0.87410962  0.00923429  1
  O  O266  1  0.76383729  0.86620233  0.49786055  1
  O  O267  1  0.13647566  0.49345948  0.24716902  1
  O  O268  1  0.13131655  0.51067914  0.73790810  1
  O  O269  1  0.13501513  0.99400360  0.24992089  1
  O  O270  1  0.13304785  0.99405335  0.74319071  1
  O  O271  1  0.62328555  0.48837032  0.25445024  1
  O  O272  1  0.62289435  0.48533885  0.75086357  1
  O  O273  1  0.63629576  1.00316707  0.23666221  1
  O  O274  1  0.63124841  0.99211056  0.75018110  1
  O  O275  1  0.36840541  0.00059781  0.25835846  1
  O  O276  1  0.36850439  0.00241902  0.75433342  1
  O  O277  1  0.36129105  0.49762831  0.25799344  1
  O  O278  1  0.36626603  0.50927337  0.75095857  1
  O  O279  1  0.86691920  0.01237166  0.24458314  1
  O  O280  1  0.86731447  0.00544992  0.75001081  1
  O  O281  1  0.87598081  0.49848688  0.26398435  1
  O  O282  1  0.87336989  0.50669038  0.76234909  1
  O  O283  1  0.12198588  0.36952334  0.37059077  1
  O  O284  1  0.11875568  0.36434920  0.88015907  1
  O  O285  1  0.11780622  0.86629409  0.36803377  1
  O  O286  1  0.12727979  0.86971339  0.86527935  1
  O  O287  1  0.62053085  0.36764758  0.37067528  1
  O  O288  1  0.62809524  0.36623820  0.86845810  1
  O  O289  1  0.61795605  0.86432213  0.38516300  1
  O  O290  1  0.62091463  0.87127796  0.86717544  1
  O  O291  1  0.38463432  0.13354735  0.12634110  1
  O  O292  1  0.37760248  0.13427638  0.62942766  1
  O  O293  1  0.38067344  0.64131042  0.12133542  1
  O  O294  1  0.38016881  0.62474871  0.63098535  1
  O  O295  1  0.88322119  0.12715227  0.12967673  1
  O  O296  1  0.87663805  0.12557013  0.63534981  1
  O  O297  1  0.87461776  0.63085678  0.12764838  1
  O  O298  1  0.88357579  0.61898515  0.62807723  1
  O  O299  1  0.25747050  0.25437214  0.11850482  1
  O  O300  1  0.25354970  0.25685406  0.62092405  1
  O  O301  1  0.27483350  0.75469241  0.14472329  1
  O  O302  1  0.24913663  0.76077625  0.62675266  1
  O  O303  1  0.75102657  0.26611266  0.12437849  1
  O  O304  1  0.74881386  0.26521418  0.63000140  1
  O  O305  1  0.75328465  0.75973508  0.12490270  1
  O  O306  1  0.74442781  0.75213685  0.60807026  1
  O  O307  1  0.24703976  0.24405052  0.38229476  1
  O  O308  1  0.24294846  0.25024564  0.87959970  1
  O  O309  1  0.23261486  0.75590625  0.37253256  1
  O  O310  1  0.25267451  0.73750081  0.88014312  1
  O  O311  1  0.74158280  0.23676011  0.37182466  1
  O  O312  1  0.74390678  0.23686803  0.86951190  1
  O  O313  1  0.74251786  0.74604181  0.38391838  1
  O  O314  1  0.74119851  0.73784428  0.87752519  1
  O  O315  1  0.00904205  0.12902430  0.00700193  1
  O  O316  1  0.01656637  0.12811383  0.49908774  1
  O  O317  1  -0.01187913  0.60745636  0.01650511  1
  O  O318  1  0.00207941  0.61564229  0.50681771  1
  O  O319  1  0.49553419  0.11119570  0.01040403  1
  O  O320  1  0.50547382  0.11871262  0.50422038  1
  O  O321  1  0.50931778  0.61673456  -0.00418106  1
  O  O322  1  0.50668264  0.62454120  0.50683617  1
  O  O323  1  0.50663779  0.37798681  0.48199897  1
  O  O324  1  0.49329724  0.38007326  1.00089797  1
  O  O325  1  0.49347658  0.88016363  0.49342090  1
  O  O326  1  0.49593393  0.88690617  0.99509798  1
  O  O327  1  1.00547837  0.38707706  0.49156569  1
  O  O328  1  0.99159864  0.38548328  0.99279186  1
  O  O329  1  0.98629670  0.87396299  0.49311378  1
  O  O330  1  0.98390263  0.87434133  1.00579825  1
  O  O331  1  0.48323780  0.49237346  0.37471785  1
  O  O332  1  0.49588365  0.49419767  0.88988937  1
  O  O333  1  0.49685584  0.99405697  0.37945698  1
  O  O334  1  0.49726904  0.99703387  0.88281002  1
  O  O335  1  0.99566522  0.49614732  0.38068313  1
  O  O336  1  0.99312504  0.50299858  0.88113493  1
  O  O337  1  1.00980892  0.97936982  0.37964094  1
  O  O338  1  0.99247907  1.01059489  0.88038982  1
  O  O339  1  0.00266408  0.01306800  0.12000911  1
  O  O340  1  0.01350207  0.00220175  0.62868313  1
  O  O341  1  0.00616318  0.49857369  0.11897921  1
  O  O342  1  0.00476757  0.50131296  0.61609484  1
  O  O343  1  0.51072409  0.00510560  0.12013071  1
  O  O344  1  0.50073904  0.00657295  0.61783397  1
  O  O345  1  0.50479398  0.49496570  0.11541022  1
  O  O346  1  0.50025610  0.50952753  0.62076314  1
  O  O347  1  0.24268272  0.37625604  0.24254763  1
  O  O348  1  0.25348756  0.38360503  0.73747621  1
  O  O349  1  0.24006363  0.88584227  0.25696527  1
  O  O350  1  0.24281101  0.87959012  0.74266492  1
  O  O351  1  0.74306073  0.37274846  0.24093472  1
  O  O352  1  0.74201625  0.37742462  0.74205494  1
  O  O353  1  0.75703404  0.88732115  0.24418040  1
  O  O354  1  0.74253911  0.88202783  0.75023617  1
  O  O355  1  0.25140256  0.12001029  0.26311174  1
  O  O356  1  0.25671204  0.11519306  0.74993799  1
  O  O357  1  0.24533084  0.61351591  0.24477805  1
  O  O358  1  0.25679506  0.61739136  0.75469554  1
  O  O359  1  0.75817020  0.12011025  0.25577054  1
  O  O360  1  0.75628356  0.11823635  0.75388519  1
  O  O361  1  0.74738044  0.62843415  0.26517892  1
  O  O362  1  0.75402015  0.62154698  0.75477336  1
  O  O363  1  0.36790176  0.11914767  0.37499487  1
  O  O364  1  0.37499810  0.11702302  0.86865421  1
  O  O365  1  0.37624283  0.61547120  0.37307933  1
  O  O366  1  0.36823703  0.62267904  0.86790833  1
  O  O367  1  0.86721153  0.12685924  0.36694278  1
  O  O368  1  0.86427441  0.12842608  0.86276211  1
  O  O369  1  0.86764959  0.61808421  0.37454107  1
  O  O370  1  0.86324056  0.61937598  0.86908373  1
  O  O371  1  0.12852458  0.38326719  0.12964252  1
  O  O372  1  0.13188348  0.38699645  0.62279429  1
  O  O373  1  0.11499919  0.88168158  0.14321103  1
  O  O374  1  0.13057430  0.87960279  0.62537598  1
  O  O375  1  0.63299252  0.37586773  0.13631890  1
  O  O376  1  0.63166510  0.37436963  0.63102569  1
  O  O377  1  0.63952527  0.88333842  0.12187948  1
  O  O378  1  0.62308592  0.87434431  0.63801924  1
  O  O379  1  0.12133486  0.25344450  0.25439992  1
  O  O380  1  0.11956240  0.24485941  0.75983877  1
  O  O381  1  0.12743073  0.75707695  0.25593288  1
  O  O382  1  0.12533919  0.76019346  0.74769728  1
  O  O383  1  0.62642180  0.25864430  0.26235305  1
  O  O384  1  0.61951948  0.25928288  0.75674900  1
  O  O385  1  0.61426755  0.75149270  0.26027547  1
  O  O386  1  0.62268423  0.75794788  0.75704344  1
  O  O387  1  0.37092898  0.24844246  0.23641703  1
  O  O388  1  0.37949004  0.24504336  0.74333208  1
  O  O389  1  0.39437996  0.75697661  0.24233864  1
  O  O390  1  0.37423897  0.73756540  0.74772615  1
  O  O391  1  0.88249586  0.23788190  0.24640711  1
  O  O392  1  0.88431140  0.24294004  0.74471844  1
  O  O393  1  0.86824927  0.74810998  0.24006629  1
  O  O394  1  0.86949859  0.73790127  0.75023601  1
  O  O395  1  0.37132097  0.50123360  0.48273646  1
  O  O396  1  0.38193859  0.49003831  1.00327569  1
  O  O397  1  0.38079664  0.99246476  0.49420585  1
  O  O398  1  0.38333681  0.99168290  0.99667075  1
  O  O399  1  0.88418015  0.49347882  0.48911079  1
  O  O400  1  0.87873877  0.49155003  0.98855803  1
  O  O401  1  0.87138559  0.99103767  0.49835638  1
  O  O402  1  0.87553604  0.98283771  1.00024854  1
  O  O403  1  0.12748711  0.00922318  0.00140128  1
  O  O404  1  0.13443641  0.00652953  0.51009978  1
  O  O405  1  0.11559575  0.49399156  0.00994356  1
  O  O406  1  0.11802747  0.50879364  0.50547069  1
  O  O407  1  0.61982742  -0.00289065  0.01142229  1
  O  O408  1  0.61845365  0.00974089  0.50040078  1
  O  O409  1  0.61785177  0.50846161  0.00242266  1
  O  O410  1  0.62076765  0.51527888  0.49791337  1
  O  O411  1  0.37301970  0.36832110  0.11831097  1
  O  O412  1  0.36910119  0.36354480  0.62797660  1
  O  O413  1  0.38245705  0.87304415  0.11483179  1
  O  O414  1  0.36639017  0.87220909  0.61661005  1
  O  O415  1  0.86538789  0.37322142  0.11782624  1
  O  O416  1  0.85833405  0.37700515  0.62464972  1
  O  O417  1  0.86699256  0.86889819  0.11990835  1
  O  O418  1  0.87489391  0.87817202  0.60955583  1
  O  O419  1  0.13290482  0.12852520  0.38036835  1
  O  O420  1  0.12692162  0.13598868  0.88476324  1
  O  O421  1  0.11849739  0.63748458  0.38090647  1
  O  O422  1  0.15061276  0.61472767  0.87969198  1
  O  O423  1  0.62948252  0.13156011  0.37908891  1
  O  O424  1  0.63993997  0.13227835  0.87105193  1
  O  O425  1  0.62969290  0.63338988  0.38228895  1
  O  O426  1  0.62964568  0.62811800  0.88021510  1
