# generated using pymatgen
data_V85Zn86O256
_symmetry_space_group_name_H-M   'P 1'
_cell_length_a   16.92195346
_cell_length_b   16.92145259
_cell_length_c   16.91732589
_cell_angle_alpha   89.98344231
_cell_angle_beta   90.03813342
_cell_angle_gamma   90.01987914
_symmetry_Int_Tables_number   1
_chemical_formula_structural   V85Zn86O256
_chemical_formula_sum   'V85 Zn86 O256'
_cell_volume   4844.17375945
_cell_formula_units_Z   1
loop_
 _symmetry_equiv_pos_site_id
 _symmetry_equiv_pos_as_xyz
  1  'x, y, z'
loop_
 _atom_site_type_symbol
 _atom_site_label
 _atom_site_symmetry_multiplicity
 _atom_site_fract_x
 _atom_site_fract_y
 _atom_site_fract_z
 _atom_site_occupancy
  V  V0  1  0.12480513  0.87034017  0.24906010  1
  V  V1  1  0.24433624  0.74859227  -0.01105441  1
  V  V2  1  0.13044361  0.38145139  0.75088275  1
  V  V3  1  0.36815932  0.49922361  0.36785184  1
  V  V4  1  0.87526250  0.12216753  0.75451070  1
  V  V5  1  0.49917667  -0.00050166  -0.01599646  1
  V  V6  1  0.62547321  0.62592428  0.49860279  1
  V  V7  1  0.12798638  0.25062577  0.37602845  1
  V  V8  1  0.50108752  0.24667052  0.75669015  1
  V  V9  1  0.11883439  0.62336357  -0.00442068  1
  V  V10  1  0.75336502  0.11968627  0.37724131  1
  V  V11  1  0.49940788  0.12749406  0.12315824  1
  V  V12  1  0.61697735  0.87254740  0.75350830  1
  V  V13  1  0.13462104  -0.00477558  0.62678113  1
  V  V14  1  0.38117890  -0.00053878  0.37680142  1
  V  V15  1  0.37442935  0.75167530  0.12228628  1
  V  V16  1  0.75602296  -0.00498232  0.25341101  1
  V  V17  1  0.36299894  0.36829914  -0.00336461  1
  V  V18  1  -0.00672765  0.61302920  0.13032907  1
  V  V19  1  0.87755479  0.50189369  0.88395918  1
  V  V20  1  0.00339739  0.12161646  0.12582519  1
  V  V21  1  0.74923022  0.75137347  0.49922821  1
  V  V22  1  0.75126742  0.24986980  0.49987057  1
  V  V23  1  0.37122567  0.49784959  0.87224563  1
  V  V24  1  0.74911179  0.37100694  0.12008933  1
  V  V25  1  -0.00482948  -0.00560302  0.00195296  1
  V  V26  1  0.50185027  0.62518743  0.12215337  1
  V  V27  1  0.87606025  0.74946290  0.11985266  1
  V  V28  1  0.87633222  0.37645391  0.49974360  1
  V  V29  1  0.25128750  0.12260245  0.37542898  1
  V  V30  1  0.25653989  -0.00616827  0.76562974  1
  V  V31  1  0.25640785  0.37263935  0.62673239  1
  V  V32  1  0.62351797  0.87326259  0.25014522  1
  V  V33  1  0.12593278  0.74808802  0.38850242  1
  V  V34  1  0.12515702  0.87115146  0.75299377  1
  V  V35  1  0.36076481  0.25130196  0.12259900  1
  V  V36  1  0.36560266  0.62210690  0.74996180  1
  V  V37  1  0.62128868  0.37264801  0.77024482  1
  V  V38  1  0.13165040  0.50342396  0.62427808  1
  V  V39  1  0.87408487  0.75130929  0.62591902  1
  V  V40  1  0.00185431  0.37886424  0.88452801  1
  V  V41  1  -0.00577589  0.87665141  0.37249785  1
  V  V42  1  0.75100060  0.50371898  0.24761656  1
  V  V43  1  0.61350484  0.12198171  0.50375334  1
  V  V44  1  -0.00554398  0.00055624  0.49764056  1
  V  V45  1  0.87687576  0.50284930  0.36882743  1
  V  V46  1  0.37997165  0.87695296  -0.01462448  1
  V  V47  1  0.87286498  0.62581704  0.75132783  1
  V  V48  1  0.74871958  0.50424397  0.75134500  1
  V  V49  1  0.00238649  0.74866457  0.75804172  1
  V  V50  1  0.36009621  0.75058326  0.61895402  1
  V  V51  1  0.62420270  0.50397468  0.12142328  1
  V  V52  1  0.25068383  0.87514849  0.12237948  1
  V  V53  1  0.49834407  0.63033957  0.62673507  1
  V  V54  1  0.75124565  0.13873963  0.88213192  1
  V  V55  1  0.87453342  0.12324478  0.25390265  1
  V  V56  1  0.87290320  0.24873654  0.11720284  1
  V  V57  1  0.62465641  0.49836889  0.62591178  1
  V  V58  1  0.50078701  0.87465216  0.38501655  1
  V  V59  1  0.75300083  0.62739020  0.37051585  1
  V  V60  1  0.50011570  0.49309425  -0.00365866  1
  V  V61  1  0.74412438  0.63167317  0.88990794  1
  V  V62  1  0.00320787  0.62695711  0.62110967  1
  V  V63  1  0.75409622  0.87024752  0.10937797  1
  V  V64  1  0.74882306  0.88019955  0.62754282  1
  V  V65  1  0.62469589  0.00075085  0.12240572  1
  V  V66  1  0.00345944  0.25277050  0.75269844  1
  V  V67  1  0.14128723  0.49836260  0.12251806  1
  V  V68  1  0.61140830  0.00410191  0.62404059  1
  V  V69  1  0.13874076  0.38036188  0.24848735  1
  V  V70  1  0.87567025  0.25108879  0.62463293  1
  V  V71  1  0.49905212  0.37639869  0.37166873  1
  V  V72  1  -0.00064790  0.25352212  0.25147505  1
  V  V73  1  0.49966734  0.50223742  0.49568638  1
  V  V74  1  0.62024266  0.75236507  0.88840341  1
  V  V75  1  0.35519054  0.87272398  0.50055758  1
  V  V76  1  0.62502583  0.24972357  0.37381339  1
  V  V77  1  0.62815073  0.14017883  -0.00284578  1
  V  V78  1  0.00472076  0.50451029  0.49859931  1
  V  V79  1  0.12586244  0.12421714  0.50301385  1
  V  V80  1  -0.00711417  0.87206640  0.87986542  1
  V  V81  1  0.36191674  0.62281924  0.24556244  1
  V  V82  1  0.00258731  0.12396901  0.62690092  1
  V  V83  1  0.24540371  0.62724208  0.38873056  1
  V  V84  1  0.87379943  0.87846932  0.49714435  1
  Zn  Zn85  1  0.40123142  0.22648030  0.61830803  1
  Zn  Zn86  1  0.37308825  0.37280108  0.50041662  1
  Zn  Zn87  1  0.38859342  0.10842674  0.75055233  1
  Zn  Zn88  1  0.49833837  0.75041553  0.24970830  1
  Zn  Zn89  1  0.25433301  0.24697514  0.50833574  1
  Zn  Zn90  1  0.13992576  0.25283936  0.88891589  1
  Zn  Zn91  1  -0.00717726  0.74380453  0.25210846  1
  Zn  Zn92  1  0.75051905  0.37557088  0.62758945  1
  Zn  Zn93  1  0.25147668  -0.00264366  0.24999482  1
  Zn  Zn94  1  0.74800081  0.00237958  0.75435176  1
  Zn  Zn95  1  0.37615802  0.12253158  0.24844688  1
  Zn  Zn96  1  0.87479569  0.37431832  -0.00007351  1
  Zn  Zn97  1  0.12627773  -0.00248834  0.12494749  1
  Zn  Zn98  1  0.62288981  0.74878428  0.37305677  1
  Zn  Zn99  1  0.86907379  -0.00438822  0.88486255  1
  Zn  Zn100  1  0.62438447  0.37461636  0.24808360  1
  Zn  Zn101  1  0.49485556  0.75231980  0.75768263  1
  Zn  Zn102  1  0.13117490  0.12640122  -0.00394632  1
  Zn  Zn103  1  0.26256064  0.13267315  0.88420721  1
  Zn  Zn104  1  0.49885797  0.24833748  0.24807100  1
  Zn  Zn105  1  0.00297300  0.37845501  0.37407502  1
  Zn  Zn106  1  0.24217293  0.62209752  0.86961781  1
  Zn  Zn107  1  0.18679298  0.18654228  0.18980133  1
  Zn  Zn108  1  0.20864441  0.20125680  0.72079411  1
  Zn  Zn109  1  0.18323994  0.68941459  0.18548936  1
  Zn  Zn110  1  0.18460547  0.68855809  0.68558843  1
  Zn  Zn111  1  0.68680082  0.18648592  0.18784001  1
  Zn  Zn112  1  0.68602987  0.18959897  0.69010871  1
  Zn  Zn113  1  0.68855839  0.68926199  0.18435945  1
  Zn  Zn114  1  0.68473641  0.69034278  0.69076678  1
  Zn  Zn115  1  0.31428657  0.30756021  0.31100632  1
  Zn  Zn116  1  0.32063032  0.31452597  0.81125061  1
  Zn  Zn117  1  0.31127861  0.80879435  0.31224487  1
  Zn  Zn118  1  0.31018392  0.81029852  0.80658869  1
  Zn  Zn119  1  0.81236690  0.31532139  0.31006499  1
  Zn  Zn120  1  0.81380240  0.31565450  0.81111660  1
  Zn  Zn121  1  0.81490850  0.80865212  0.30650307  1
  Zn  Zn122  1  0.80899838  0.81247904  0.81407230  1
  Zn  Zn123  1  0.18941614  0.43818440  0.43845903  1
  Zn  Zn124  1  0.18859532  0.44006870  0.93857872  1
  Zn  Zn125  1  0.18319207  0.93987649  0.43418790  1
  Zn  Zn126  1  0.17796379  0.93587981  0.93940637  1
  Zn  Zn127  1  0.68829250  0.43709840  0.43736630  1
  Zn  Zn128  1  0.69113303  0.44392808  0.94336704  1
  Zn  Zn129  1  0.68438867  0.93940496  0.43875704  1
  Zn  Zn130  1  0.68418917  0.94437660  0.93284645  1
  Zn  Zn131  1  0.31502926  0.06089650  0.05620035  1
  Zn  Zn132  1  0.31711768  0.05921075  0.56535030  1
  Zn  Zn133  1  0.31299023  0.56290750  0.05622637  1
  Zn  Zn134  1  0.31577612  0.55965691  0.55973202  1
  Zn  Zn135  1  0.81303125  0.06115336  0.06350837  1
  Zn  Zn136  1  0.81126053  0.06347857  0.56443420  1
  Zn  Zn137  1  0.81397866  0.56491258  0.06394456  1
  Zn  Zn138  1  0.81447910  0.56307731  0.56073769  1
  Zn  Zn139  1  0.43355377  0.43474309  0.18557238  1
  Zn  Zn140  1  0.44200421  0.43817306  0.69105552  1
  Zn  Zn141  1  0.43800349  0.93966577  0.18669819  1
  Zn  Zn142  1  0.43478661  0.93266117  0.68205676  1
  Zn  Zn143  1  0.93885089  0.43551460  0.18794600  1
  Zn  Zn144  1  0.93905035  0.43887059  0.68993386  1
  Zn  Zn145  1  0.93422716  0.93417024  0.18701358  1
  Zn  Zn146  1  0.93969305  0.93823394  0.68800162  1
  Zn  Zn147  1  0.06462590  0.05863894  0.31174128  1
  Zn  Zn148  1  0.06690330  0.06057695  0.81844390  1
  Zn  Zn149  1  0.06796338  0.56237689  0.30947474  1
  Zn  Zn150  1  0.06090457  0.56159283  0.81067403  1
  Zn  Zn151  1  0.56313343  0.06080546  0.31098314  1
  Zn  Zn152  1  0.57070561  0.06804785  0.81174904  1
  Zn  Zn153  1  0.56119021  0.56478953  0.30550767  1
  Zn  Zn154  1  0.55892990  0.56651213  0.81452997  1
  Zn  Zn155  1  0.43525267  0.19038445  0.43799192  1
  Zn  Zn156  1  0.43990869  0.18985701  0.92741162  1
  Zn  Zn157  1  0.43488286  0.69011252  0.43500918  1
  Zn  Zn158  1  0.43723096  0.68332742  0.93893198  1
  Zn  Zn159  1  0.93852480  0.18712689  0.43618425  1
  Zn  Zn160  1  0.94850899  0.18652736  0.93814833  1
  Zn  Zn161  1  0.93689538  0.68913435  0.43632133  1
  Zn  Zn162  1  0.93664806  0.68633303  0.94301901  1
  Zn  Zn163  1  0.06617738  0.31460903  0.06541118  1
  Zn  Zn164  1  0.06523160  0.31425563  0.56339828  1
  Zn  Zn165  1  0.06027014  0.80702873  0.06243146  1
  Zn  Zn166  1  0.06248042  0.81422998  0.56551319  1
  Zn  Zn167  1  0.55938531  0.31530546  0.06188431  1
  Zn  Zn168  1  0.56286582  0.31505665  0.56046508  1
  Zn  Zn169  1  0.56119768  0.81608300  0.06244061  1
  Zn  Zn170  1  0.56173466  0.81229488  0.56378487  1
  O  O171  1  0.11089821  0.12037118  0.13387107  1
  O  O172  1  0.11806271  0.11521224  0.61764694  1
  O  O173  1  0.11838562  0.61271144  0.12171275  1
  O  O174  1  0.11130447  0.61889824  0.62884724  1
  O  O175  1  0.62108313  0.12027239  0.11775479  1
  O  O176  1  0.63303832  0.11173629  0.61935566  1
  O  O177  1  0.61477963  0.61809508  0.13029258  1
  O  O178  1  0.61839245  0.61784022  0.62226710  1
  O  O179  1  0.38031746  0.38243828  0.37333247  1
  O  O180  1  0.37553185  0.38129158  0.88741565  1
  O  O181  1  0.37958861  0.87739175  0.38252226  1
  O  O182  1  0.37559095  0.86345974  0.88695879  1
  O  O183  1  0.87719388  0.38461160  0.38123679  1
  O  O184  1  0.88063674  0.38500164  0.87537109  1
  O  O185  1  0.88666611  0.86907253  0.37935714  1
  O  O186  1  0.88670088  0.87719411  0.86744564  1
  O  O187  1  0.25864518  0.00568949  0.37438863  1
  O  O188  1  0.24733314  -0.00648523  0.86645352  1
  O  O189  1  0.25592191  0.51281264  0.37661007  1
  O  O190  1  0.26555998  0.50425916  0.88088269  1
  O  O191  1  0.74454747  0.00851680  0.36718745  1
  O  O192  1  0.75404796  0.01172772  0.87211884  1
  O  O193  1  0.75604071  0.50535141  0.36791641  1
  O  O194  1  0.75318719  0.51279214  0.86950583  1
  O  O195  1  0.23976814  0.50368507  0.12708469  1
  O  O196  1  0.23502860  0.49948696  0.61638055  1
  O  O197  1  0.25195558  0.98459131  0.12592652  1
  O  O198  1  0.23560940  0.99334097  0.62231169  1
  O  O199  1  0.74474514  0.49770771  0.13073491  1
  O  O200  1  0.74322859  0.50372250  0.63391333  1
  O  O201  1  0.74617261  0.98930796  0.13187046  1
  O  O202  1  0.74669601  0.98899020  0.62764907  1
  O  O203  1  0.00692893  0.36636866  0.25287413  1
  O  O204  1  0.00644774  0.37054011  0.75644809  1
  O  O205  1  0.00545659  0.87413822  0.25778735  1
  O  O206  1  0.00227646  0.86580969  0.75538427  1
  O  O207  1  0.50174052  0.37396200  0.26064560  1
  O  O208  1  0.51887348  0.37831651  0.75149949  1
  O  O209  1  0.50871632  0.87506066  0.25591293  1
  O  O210  1  0.51283061  0.87190174  0.74411381  1
  O  O211  1  0.49943107  0.12565034  0.23934705  1
  O  O212  1  0.50989307  0.14169167  0.75034438  1
  O  O213  1  0.48740110  0.62745592  0.23900023  1
  O  O214  1  0.49009666  0.62762743  0.74075185  1
  O  O215  1  0.99407827  0.12928042  0.24817848  1
  O  O216  1  0.99411058  0.13329855  0.74800558  1
  O  O217  1  1.00619740  0.62544612  0.23442126  1
  O  O218  1  0.99329878  0.63203259  0.74438679  1
  O  O219  1  0.38351037  0.26184818  0.00725770  1
  O  O220  1  0.37433303  0.25501798  0.50824577  1
  O  O221  1  0.36894466  0.75378688  0.00829395  1
  O  O222  1  0.37722453  0.76299890  0.50359786  1
  O  O223  1  0.88204624  0.24919026  0.01486183  1
  O  O224  1  0.87240173  0.25644395  0.50399751  1
  O  O225  1  0.87371190  0.74520548  0.01753438  1
  O  O226  1  0.86879388  0.75717682  0.50680511  1
  O  O227  1  0.12456818  0.24241507  0.49304265  1
  O  O228  1  0.11015174  0.24197886  0.99744573  1
  O  O229  1  0.11945484  0.75318508  0.48828505  1
  O  O230  1  0.13366136  0.73736288  1.00635264  1
  O  O231  1  0.63102171  0.24519098  0.49063352  1
  O  O232  1  0.62298611  0.23935343  1.00439066  1
  O  O233  1  0.63214850  0.74404011  0.49814895  1
  O  O234  1  0.62436543  0.75456302  0.98756934  1
  O  O235  1  0.49815521  0.23800377  0.12531403  1
  O  O236  1  0.50969671  0.26149746  0.64148321  1
  O  O237  1  0.49204513  0.74362533  0.12362480  1
  O  O238  1  0.49417029  0.73819024  0.62293700  1
  O  O239  1  0.99348310  0.24308539  0.13745763  1
  O  O240  1  0.99383727  0.24485595  0.62962339  1
  O  O241  1  0.99156515  0.74069505  0.12815798  1
  O  O242  1  0.99390190  0.74318848  0.63200459  1
  O  O243  1  0.00695163  0.24971677  0.36464761  1
  O  O244  1  -0.00342827  0.26200314  0.86457861  1
  O  O245  1  0.00636303  0.75546267  0.37241450  1
  O  O246  1  -0.00699557  0.75272022  0.86499706  1
  O  O247  1  0.50685791  0.25835759  0.37300381  1
  O  O248  1  0.50605641  0.25736325  0.85807937  1
  O  O249  1  0.50184768  0.75835446  0.36943763  1
  O  O250  1  0.51576368  0.74100220  0.87591070  1
  O  O251  1  0.24390783  0.12292492  0.49120195  1
  O  O252  1  0.24568010  0.12054008  0.99704970  1
  O  O253  1  0.25316129  0.62600327  0.48726217  1
  O  O254  1  0.24084231  0.63314576  0.99969779  1
  O  O255  1  0.74508509  0.13021139  0.49302984  1
  O  O256  1  0.74456888  0.12275127  0.99128895  1
  O  O257  1  0.74486170  0.62987360  0.49280009  1
  O  O258  1  0.74707936  0.62257134  0.98831734  1
  O  O259  1  0.26376937  0.37332627  -0.00081042  1
  O  O260  1  0.24971952  0.37188744  0.51078981  1
  O  O261  1  0.25469034  0.86894257  0.00433605  1
  O  O262  1  0.25701030  0.87110213  0.49298195  1
  O  O263  1  0.75417252  0.37970912  0.01550685  1
  O  O264  1  0.75921343  0.36982526  0.50116787  1
  O  O265  1  0.74538376  0.88122718  0.01198806  1
  O  O266  1  0.75430048  0.87184873  0.50550612  1
  O  O267  1  0.12391953  0.48802474  0.24073485  1
  O  O268  1  0.11730977  0.49261415  0.73720009  1
  O  O269  1  0.12868994  0.98397472  0.24917684  1
  O  O270  1  0.12795856  0.98957889  0.74384150  1
  O  O271  1  0.63252268  0.49824880  0.23953297  1
  O  O272  1  0.62972207  0.49636208  0.74578289  1
  O  O273  1  0.63358885  0.99140886  0.24369873  1
  O  O274  1  0.62739943  0.99434896  0.73926565  1
  O  O275  1  0.37182959  0.00019180  0.26076505  1
  O  O276  1  0.35930549  -0.01511242  0.74907924  1
  O  O277  1  0.37739726  0.50707023  0.25939444  1
  O  O278  1  0.38172171  0.50856169  0.76054292  1
  O  O279  1  0.86251271  0.00412261  0.24787120  1
  O  O280  1  0.87523067  0.01533633  0.74772207  1
  O  O281  1  0.86935876  0.49681979  0.26182991  1
  O  O282  1  0.86562448  0.50574272  0.75682508  1
  O  O283  1  0.12468346  0.37254858  0.36416297  1
  O  O284  1  0.11937331  0.37761176  0.86761200  1
  O  O285  1  0.11619587  0.86726033  0.36966173  1
  O  O286  1  0.10919656  0.87660180  0.86208419  1
  O  O287  1  0.61868246  0.36759904  0.37392026  1
  O  O288  1  0.63041962  0.38171132  0.86820934  1
  O  O289  1  0.61749547  0.87581538  0.36800305  1
  O  O290  1  0.63269719  0.86141336  0.86738512  1
  O  O291  1  0.38281708  0.13491321  0.12291504  1
  O  O292  1  0.37554321  0.11841552  0.63716697  1
  O  O293  1  0.37701571  0.63121468  0.12927054  1
  O  O294  1  0.38081080  0.62859864  0.62814390  1
  O  O295  1  0.88219911  0.13051672  0.13368417  1
  O  O296  1  0.88045206  0.13172616  0.63256459  1
  O  O297  1  0.88654774  0.62836066  0.12488208  1
  O  O298  1  0.88265696  0.62930150  0.63094206  1
  O  O299  1  0.26240271  0.24503844  0.12525567  1
  O  O300  1  0.24885793  0.26327505  0.62960201  1
  O  O301  1  0.25572657  0.75788751  0.11729767  1
  O  O302  1  0.26057509  0.74458419  0.62126317  1
  O  O303  1  0.76018678  0.25908547  0.13578487  1
  O  O304  1  0.75690360  0.25209073  0.61855437  1
  O  O305  1  0.75493967  0.76308507  0.12620722  1
  O  O306  1  0.75215793  0.76069413  0.62072523  1
  O  O307  1  0.24583459  0.24047889  0.37852904  1
  O  O308  1  0.24050545  0.23958692  0.83223445  1
  O  O309  1  0.24226827  0.73673974  0.37202631  1
  O  O310  1  0.25103391  0.74636277  0.88595232  1
  O  O311  1  0.74327871  0.24478337  0.37864880  1
  O  O312  1  0.75877572  0.23814973  0.87620849  1
  O  O313  1  0.74918555  0.74211879  0.37876390  1
  O  O314  1  0.74172535  0.73789188  0.87222260  1
  O  O315  1  -0.00058867  0.11454246  0.01256008  1
  O  O316  1  0.00426922  0.11726368  0.50298577  1
  O  O317  1  0.00875670  0.62841104  0.01509536  1
  O  O318  1  -0.00796996  0.61742341  0.50976967  1
  O  O319  1  0.50742510  0.11730801  0.00270392  1
  O  O320  1  0.51469245  0.12813020  0.49475654  1
  O  O321  1  0.48928205  0.61227136  0.01606358  1
  O  O322  1  0.50503327  0.62127362  0.50374189  1
  O  O323  1  0.50014523  0.38347481  0.48685796  1
  O  O324  1  0.49066309  0.38881784  1.00676926  1
  O  O325  1  0.49961542  0.87287804  0.48716823  1
  O  O326  1  0.49457128  0.88954628  1.00311590  1
  O  O327  1  0.99257499  0.38354132  0.49763077  1
  O  O328  1  0.99728668  0.37575461  0.98742088  1
  O  O329  1  0.99387791  0.88151778  0.49409439  1
  O  O330  1  1.00398809  0.87799477  0.99082655  1
  O  O331  1  0.49442386  0.49535378  0.37505347  1
  O  O332  1  0.48950807  0.51068581  0.88797614  1
  O  O333  1  0.48919369  0.99250260  0.37159153  1
  O  O334  1  0.50908544  1.00193302  0.88547854  1
  O  O335  1  0.99341809  0.50445635  0.38057786  1
  O  O336  1  0.98810997  0.49216934  0.86708237  1
  O  O337  1  1.00448794  0.98967734  0.38516613  1
  O  O338  1  0.99522533  0.99081397  0.88348391  1
  O  O339  1  -0.00087590  0.00545047  0.12260755  1
  O  O340  1  0.00540364  0.00599462  0.61806714  1
  O  O341  1  0.00299639  0.51038022  0.12691740  1
  O  O342  1  0.00413239  0.50779012  0.61765059  1
  O  O343  1  0.50529980  0.01135318  0.11994220  1
  O  O344  1  0.51303426  -0.00271009  0.62464669  1
  O  O345  1  0.50671220  0.50521506  0.12309821  1
  O  O346  1  0.50616192  0.51080906  0.61883400  1
  O  O347  1  0.23726481  0.37027380  0.25065680  1
  O  O348  1  0.23685339  0.37891515  0.74322123  1
  O  O349  1  0.24317725  0.87171794  0.24142503  1
  O  O350  1  0.23691014  0.88055910  0.75242763  1
  O  O351  1  0.74920316  0.38809017  0.24184432  1
  O  O352  1  0.74105931  0.38800804  0.75006706  1
  O  O353  1  0.74244798  0.88159281  0.24843480  1
  O  O354  1  0.73995823  0.87588009  0.74191135  1
  O  O355  1  0.25065289  0.12161038  0.26345769  1
  O  O356  1  0.24623503  0.09544983  0.74652789  1
  O  O357  1  0.25941678  0.62916164  0.25275714  1
  O  O358  1  0.26062288  0.62785389  0.74948658  1
  O  O359  1  0.75272090  0.11611424  0.25739298  1
  O  O360  1  0.75805256  0.12782363  0.76096474  1
  O  O361  1  0.74628119  0.61354003  0.25590530  1
  O  O362  1  0.75256544  0.61714907  0.75455845  1
  O  O363  1  0.36944146  0.11634296  0.37594294  1
  O  O364  1  0.37569306  0.12715817  0.86160504  1
  O  O365  1  0.36460883  0.62116700  0.36707354  1
  O  O366  1  0.37200906  0.61970154  0.86594463  1
  O  O367  1  0.86096650  0.12968163  0.37122166  1
  O  O368  1  0.86956149  0.12472702  0.87043170  1
  O  O369  1  0.86178464  0.61770573  0.37987489  1
  O  O370  1  0.86410946  0.62203702  0.87160704  1
  O  O371  1  0.12042152  0.38936969  0.13438486  1
  O  O372  1  0.13060239  0.38477538  0.63069719  1
  O  O373  1  0.13269288  0.87141044  0.13196915  1
  O  O374  1  0.11347671  0.88356010  0.63952060  1
  O  O375  1  0.63189754  0.38173071  0.12786865  1
  O  O376  1  0.62927059  0.39208591  0.62373495  1
  O  O377  1  0.63450733  0.87848975  0.13140816  1
  O  O378  1  0.63071390  0.88382942  0.62869109  1
  O  O379  1  0.11874729  0.25994481  0.25335365  1
  O  O380  1  0.10889441  0.26268354  0.74062158  1
  O  O381  1  0.12154970  0.75948474  0.25704267  1
  O  O382  1  0.11293371  0.75573242  0.74563081  1
  O  O383  1  0.62479170  0.25076116  0.26333966  1
  O  O384  1  0.62595149  0.26876722  0.74947136  1
  O  O385  1  0.62465786  0.76262333  0.25044256  1
  O  O386  1  0.62116852  0.75770788  0.75768257  1
  O  O387  1  0.37773472  0.24698065  0.23501920  1
  O  O388  1  0.39685154  0.26179077  0.74123489  1
  O  O389  1  0.37494734  0.74417282  0.23672363  1
  O  O390  1  0.37713999  0.74417378  0.73854233  1
  O  O391  1  0.88281235  0.24496557  0.24675573  1
  O  O392  1  0.88319778  0.24427179  0.74448585  1
  O  O393  1  0.87658938  0.75080117  0.23266727  1
  O  O394  1  0.87949400  0.74473555  0.74378355  1
  O  O395  1  0.38250828  0.49960051  0.48464452  1
  O  O396  1  0.37969461  0.48815298  0.99746028  1
  O  O397  1  0.37071218  0.98242854  0.49165391  1
  O  O398  1  0.39129703  0.99154203  1.00215019  1
  O  O399  1  0.88210250  0.49591373  0.49087250  1
  O  O400  1  0.87134919  0.49975715  0.98741504  1
  O  O401  1  0.88629947  0.99591480  0.50508162  1
  O  O402  1  0.88872485  1.00047453  1.00320466  1
  O  O403  1  0.11017891  0.00065349  0.00648935  1
  O  O404  1  0.11427879  0.00175801  0.50648403  1
  O  O405  1  0.12845334  0.50488958  0.01495278  1
  O  O406  1  0.11045152  0.49604383  0.50522024  1
  O  O407  1  0.61470426  0.00589307  0.00530122  1
  O  O408  1  0.62956389  0.00761342  0.51445904  1
  O  O409  1  0.61667926  0.49849336  0.01259248  1
  O  O410  1  0.62169578  0.50695983  0.50636329  1
  O  O411  1  0.37748428  0.36018293  0.11608315  1
  O  O412  1  0.35989538  0.39208267  0.62472532  1
  O  O413  1  0.37009175  0.86723598  0.11851779  1
  O  O414  1  0.37636297  0.86606610  0.60793336  1
  O  O415  1  0.86939457  0.36656322  0.12546300  1
  O  O416  1  0.87387652  0.37100361  0.61900062  1
  O  O417  1  0.86117081  0.86808470  0.12537080  1
  O  O418  1  0.86731871  0.87132250  0.62110979  1
  O  O419  1  0.13204401  0.12737063  0.38121755  1
  O  O420  1  0.12936391  0.13181326  0.87548230  1
  O  O421  1  0.13765363  0.63081824  0.37139801  1
  O  O422  1  0.12360477  0.61485456  0.88972098  1
  O  O423  1  0.63326480  0.13002494  0.38090200  1
  O  O424  1  0.64203649  0.12606489  0.88252085  1
  O  O425  1  0.63580653  0.62410114  0.37772939  1
  O  O426  1  0.63664731  0.63608253  0.87094481  1
