# generated using pymatgen
data_V85Zn86O256
_symmetry_space_group_name_H-M   'P 1'
_cell_length_a   16.94282735
_cell_length_b   16.94354804
_cell_length_c   16.94870083
_cell_angle_alpha   90.00244345
_cell_angle_beta   89.96390894
_cell_angle_gamma   89.99870003
_symmetry_Int_Tables_number   1
_chemical_formula_structural   V85Zn86O256
_chemical_formula_sum   'V85 Zn86 O256'
_cell_volume   4865.48984942
_cell_formula_units_Z   1
loop_
 _symmetry_equiv_pos_site_id
 _symmetry_equiv_pos_as_xyz
  1  'x, y, z'
loop_
 _atom_site_type_symbol
 _atom_site_label
 _atom_site_symmetry_multiplicity
 _atom_site_fract_x
 _atom_site_fract_y
 _atom_site_fract_z
 _atom_site_occupancy
  V  V0  1  0.49208238  0.12137044  0.13021603  1
  V  V1  1  0.00434377  0.63335351  0.62535612  1
  V  V2  1  0.50414093  0.00450418  0.50730402  1
  V  V3  1  -0.00373978  0.12572655  0.12341771  1
  V  V4  1  0.87309045  0.12874950  0.25000168  1
  V  V5  1  0.00576537  0.50532005  0.00073686  1
  V  V6  1  0.12271424  0.50397841  0.61727829  1
  V  V7  1  0.86892561  0.87370019  0.49927168  1
  V  V8  1  0.87181194  0.50122809  0.88170229  1
  V  V9  1  0.25921325  0.37403496  0.61528797  1
  V  V10  1  0.36811835  0.87450906  0.49543298  1
  V  V11  1  0.00454283  0.25732267  0.24868414  1
  V  V12  1  0.62871540  0.12245006  0.00182868  1
  V  V13  1  0.37375565  0.49559517  0.87803707  1
  V  V14  1  0.75075231  0.00070874  0.25067024  1
  V  V15  1  0.62332816  0.25484836  0.87360935  1
  V  V16  1  0.74500738  0.24971514  0.50873434  1
  V  V17  1  0.12287735  -0.00111590  0.12396529  1
  V  V18  1  0.87244317  0.86750955  -0.00279358  1
  V  V19  1  0.24051884  0.74243536  0.00340693  1
  V  V20  1  0.74246801  0.63534424  0.87443534  1
  V  V21  1  0.75339367  0.11712588  0.87530764  1
  V  V22  1  0.49932866  0.87451782  0.37579331  1
  V  V23  1  0.37220577  0.37510152  0.00307331  1
  V  V24  1  0.62501398  -0.00191948  0.12559289  1
  V  V25  1  0.86844390  0.75047652  0.62256097  1
  V  V26  1  -0.00382762  0.37760507  0.87891911  1
  V  V27  1  0.88182269  0.61996158  0.25509461  1
  V  V28  1  0.30543624  0.92840745  0.68007827  1
  V  V29  1  0.49448967  -0.00225619  -0.00670761  1
  V  V30  1  0.86807085  0.37955568  0.50321634  1
  V  V31  1  0.62628873  0.87161260  0.24998188  1
  V  V32  1  0.74143930  0.12840676  0.37855278  1
  V  V33  1  -0.00213963  -0.00297555  -0.00708941  1
  V  V34  1  0.24769703  0.87237968  0.12691334  1
  V  V35  1  0.25486149  0.12824064  0.36739551  1
  V  V36  1  0.12104711  0.74618715  0.37425498  1
  V  V37  1  0.51603831  0.49521041  0.00371770  1
  V  V38  1  -0.00078286  0.25134767  0.74979838  1
  V  V39  1  -0.00460228  0.50668926  0.49470882  1
  V  V40  1  0.75396883  0.61709708  0.37470806  1
  V  V41  1  0.63428055  0.75028844  0.38046670  1
  V  V42  1  0.63266446  0.62850611  0.50279820  1
  V  V43  1  0.12416908  0.37560076  0.74597848  1
  V  V44  1  0.37149979  0.87446378  -0.00628343  1
  V  V45  1  0.75366159  0.26177985  0.00336089  1
  V  V46  1  0.24461073  0.74838534  0.50269405  1
  V  V47  1  0.25986165  0.11249284  0.86567525  1
  V  V48  1  0.37518408  0.74318715  0.12445117  1
  V  V49  1  0.75312118  0.49174255  0.75111363  1
  V  V50  1  0.49958839  0.74693261  0.25111426  1
  V  V51  1  0.62827669  0.64161441  0.00218360  1
  V  V52  1  0.49787157  0.50029816  0.50334672  1
  V  V53  1  -0.00055275  0.38055601  0.37228689  1
  V  V54  1  0.63293296  0.49595353  0.62546759  1
  V  V55  1  0.24599994  0.48573200  0.24852427  1
  V  V56  1  0.74547038  0.88349121  0.62797333  1
  V  V57  1  0.12531909  0.12965310  0.49464327  1
  V  V58  1  0.25040656  0.25289388  -0.00265430  1
  V  V59  1  0.12674173  -0.00393105  0.62906914  1
  V  V60  1  0.01175801  0.63045440  0.12652674  1
  V  V61  1  0.62323829  0.87181919  0.76493433  1
  V  V62  1  0.24982501  0.49666577  0.74910847  1
  V  V63  1  0.37365998  0.62152729  0.25075636  1
  V  V64  1  0.00093464  0.12884111  0.62149608  1
  V  V65  1  0.24513789  0.62217070  0.37906378  1
  V  V66  1  0.37400311  0.49585290  0.37921905  1
  V  V67  1  0.50094335  0.37601761  0.37407274  1
  V  V68  1  -0.00254240  0.87447506  0.37500907  1
  V  V69  1  0.12790817  0.48371903  0.12697212  1
  V  V70  1  0.12431211  0.12425202  -0.00366150  1
  V  V71  1  0.25466121  0.00288964  0.24792964  1
  V  V72  1  0.11990739  0.74831097  0.86685854  1
  V  V73  1  0.24489520  0.62034485  0.88055356  1
  V  V74  1  0.37831012  0.62308484  0.75167842  1
  V  V75  1  0.87153215  0.26466631  0.12303883  1
  V  V76  1  0.36785386  0.24662083  0.12813703  1
  V  V77  1  0.74956276  0.86541366  0.12238649  1
  V  V78  1  0.37666923  0.74698313  0.62521453  1
  V  V79  1  0.11691264  0.87220080  0.25004053  1
  V  V80  1  0.88228414  0.75113278  0.13214847  1
  V  V81  1  0.87507798  0.11657251  0.74912415  1
  V  V82  1  0.87962261  0.63060481  0.75159385  1
  V  V83  1  0.50031301  0.25076365  0.24871690  1
  V  V84  1  0.12693738  0.24974981  0.87240445  1
  Zn  Zn85  1  0.62956673  0.37060724  0.74441618  1
  Zn  Zn86  1  0.62420416  0.25209250  0.37624291  1
  Zn  Zn87  1  0.51422427  0.74197405  0.76193025  1
  Zn  Zn88  1  0.87219928  -0.00718947  0.86923456  1
  Zn  Zn89  1  0.62041396  0.00337889  0.63656244  1
  Zn  Zn90  1  0.87108791  0.25585156  0.62875949  1
  Zn  Zn91  1  -0.00078370  0.00183545  0.49814678  1
  Zn  Zn92  1  0.49766746  0.37184404  0.87022734  1
  Zn  Zn93  1  0.87495152  0.00212339  0.37665924  1
  Zn  Zn94  1  0.74753845  0.49464934  0.23785081  1
  Zn  Zn95  1  0.49960457  0.24141406  0.73956354  1
  Zn  Zn96  1  0.51555109  0.61267866  0.13462272  1
  Zn  Zn97  1  0.50387913  0.62412066  0.62777424  1
  Zn  Zn98  1  0.49852849  0.86797379  0.87679258  1
  Zn  Zn99  1  0.56643269  0.16414670  0.56083367  1
  Zn  Zn100  1  0.12615644  0.25528007  0.36868948  1
  Zn  Zn101  1  0.37733141  0.00288253  0.36772128  1
  Zn  Zn102  1  0.25602260  0.25585797  0.49318539  1
  Zn  Zn103  1  0.38564227  0.23886128  0.61718904  1
  Zn  Zn104  1  0.12310395  0.87040469  0.73996140  1
  Zn  Zn105  1  -0.00437743  0.86703148  0.86447593  1
  Zn  Zn106  1  0.62885964  0.38608817  0.23669389  1
  Zn  Zn107  1  0.18489836  0.18751769  0.18391593  1
  Zn  Zn108  1  0.19524793  0.18562455  0.68415845  1
  Zn  Zn109  1  0.18755452  0.68415458  0.19454400  1
  Zn  Zn110  1  0.19187223  0.68382019  0.68758693  1
  Zn  Zn111  1  0.68522446  0.19509874  0.18666546  1
  Zn  Zn112  1  0.69091072  0.18115455  0.68997894  1
  Zn  Zn113  1  0.69190812  0.68306448  0.18965487  1
  Zn  Zn114  1  0.69253131  0.68723381  0.68751102  1
  Zn  Zn115  1  0.31758758  0.31082245  0.31332546  1
  Zn  Zn116  1  0.31716418  0.30476994  0.80593835  1
  Zn  Zn117  1  0.30854090  0.81149824  0.31198059  1
  Zn  Zn118  1  0.31583880  0.80427860  0.81698659  1
  Zn  Zn119  1  0.81297181  0.31845689  0.31746077  1
  Zn  Zn120  1  0.81397580  0.30947503  0.81751995  1
  Zn  Zn121  1  0.81366053  0.80900244  0.31083178  1
  Zn  Zn122  1  0.81303156  0.81170068  0.80668483  1
  Zn  Zn123  1  0.17953920  0.43919600  0.43640996  1
  Zn  Zn124  1  0.18397831  0.43531907  0.94069068  1
  Zn  Zn125  1  0.18484153  0.94144597  0.43741459  1
  Zn  Zn126  1  0.18631175  0.93250965  0.93639883  1
  Zn  Zn127  1  0.68659772  0.43735628  0.43255645  1
  Zn  Zn128  1  0.69245525  0.43545778  1.07716215  1
  Zn  Zn129  1  0.69012698  0.93765036  0.43930730  1
  Zn  Zn130  1  0.68887314  0.93576455  0.93964144  1
  Zn  Zn131  1  0.30957085  0.06346752  0.05760757  1
  Zn  Zn132  1  0.31362806  0.06431244  0.54925401  1
  Zn  Zn133  1  0.30973708  0.55866572  0.06445264  1
  Zn  Zn134  1  0.31157645  0.56253341  0.56204124  1
  Zn  Zn135  1  0.81301450  0.05936562  0.06334268  1
  Zn  Zn136  1  0.81145062  0.06352985  0.56215272  1
  Zn  Zn137  1  0.81723303  0.57248503  0.05832946  1
  Zn  Zn138  1  0.81294246  0.56328514  0.56251089  1
  Zn  Zn139  1  0.43671312  0.43403285  0.18506885  1
  Zn  Zn140  1  0.44340543  0.43045992  0.69107083  1
  Zn  Zn141  1  0.43640831  0.93249903  0.18339229  1
  Zn  Zn142  1  0.40811206  1.09035340  0.71723897  1
  Zn  Zn143  1  0.93338843  0.44221476  0.18595842  1
  Zn  Zn144  1  0.93705964  0.44158968  0.68585360  1
  Zn  Zn145  1  0.93655810  0.93983661  0.18682583  1
  Zn  Zn146  1  0.94430652  0.93571023  0.68547706  1
  Zn  Zn147  1  0.06258138  0.06274148  0.31129952  1
  Zn  Zn148  1  0.06536808  0.06152481  0.80937658  1
  Zn  Zn149  1  0.06229323  0.56134659  0.30952883  1
  Zn  Zn150  1  0.06339078  0.56394768  0.80896877  1
  Zn  Zn151  1  0.56131386  0.06130447  0.31161817  1
  Zn  Zn152  1  0.56884341  0.05542714  0.81273132  1
  Zn  Zn153  1  0.56732548  0.55894263  0.31265409  1
  Zn  Zn154  1  0.56438415  0.55668664  0.81621703  1
  Zn  Zn155  1  0.42852692  0.19062042  0.43578380  1
  Zn  Zn156  1  0.43797488  0.18126836  0.93459764  1
  Zn  Zn157  1  0.43974919  0.68455069  0.43812746  1
  Zn  Zn158  1  0.43885620  0.68241535  0.94050362  1
  Zn  Zn159  1  0.93302852  0.19419072  0.43571078  1
  Zn  Zn160  1  0.93550178  0.18849237  0.93663727  1
  Zn  Zn161  1  0.93829678  0.69141396  0.43858332  1
  Zn  Zn162  1  0.93689264  0.68528820  0.94285342  1
  Zn  Zn163  1  0.05811060  0.31273405  0.05911451  1
  Zn  Zn164  1  0.06293049  0.31484612  0.55822246  1
  Zn  Zn165  1  0.06093290  0.81203567  0.05747333  1
  Zn  Zn166  1  0.06008655  0.81363675  0.55888406  1
  Zn  Zn167  1  0.55626733  0.30609762  0.05703335  1
  Zn  Zn168  1  0.56179434  0.32491146  0.56102521  1
  Zn  Zn169  1  0.55840515  0.80993583  0.06371621  1
  Zn  Zn170  1  0.55967229  0.81406490  0.56507228  1
  O  O171  1  0.11627612  0.11937380  0.11580364  1
  O  O172  1  0.12146491  0.12150457  0.61543382  1
  O  O173  1  0.11421615  0.62106811  0.13247546  1
  O  O174  1  0.11634278  0.61749674  0.63066321  1
  O  O175  1  0.61843635  0.12146623  0.11568955  1
  O  O176  1  0.64507868  0.11113145  0.61786102  1
  O  O177  1  0.62924933  0.63158336  0.10811409  1
  O  O178  1  0.62530998  0.61928512  0.61785231  1
  O  O179  1  0.38373759  0.38883722  0.37099305  1
  O  O180  1  0.37379873  0.37728826  0.88541234  1
  O  O181  1  0.38327821  0.87151544  0.37921314  1
  O  O182  1  0.36658575  0.87515440  0.89175730  1
  O  O183  1  0.88850903  0.37097127  0.39129346  1
  O  O184  1  0.88827354  0.38571106  0.86910152  1
  O  O185  1  0.88050423  0.87343551  0.38008577  1
  O  O186  1  0.87480876  0.87343436  0.88222468  1
  O  O187  1  0.24866635  0.00652589  0.36338009  1
  O  O188  1  0.24200298  0.01444563  0.88203754  1
  O  O189  1  0.25364683  0.50431540  0.37171991  1
  O  O190  1  0.25123850  0.50364738  0.87143079  1
  O  O191  1  0.75235273  0.00798956  0.36897813  1
  O  O192  1  0.75388510  0.01277417  0.88289063  1
  O  O193  1  0.74914533  0.51576159  0.37506131  1
  O  O194  1  0.76342698  0.51267755  0.86664029  1
  O  O195  1  0.23613283  0.50178574  0.13284486  1
  O  O196  1  0.24036527  0.49568911  0.62732430  1
  O  O197  1  0.24182653  0.99487314  0.12864610  1
  O  O198  1  0.24616112  0.98972310  0.61907379  1
  O  O199  1  0.76810026  0.49936454  0.12359664  1
  O  O200  1  0.74510200  0.50969084  0.63838507  1
  O  O201  1  0.74404476  0.99033280  0.13119939  1
  O  O202  1  0.75447870  0.98447823  0.62451475  1
  O  O203  1  -0.01030724  0.36945769  0.25895395  1
  O  O204  1  0.00547949  0.37246664  0.75507824  1
  O  O205  1  0.01037493  0.87849628  0.25410152  1
  O  O206  1  0.00881694  0.87693281  0.75332621  1
  O  O207  1  0.49970978  0.36781086  0.25598897  1
  O  O208  1  0.51234147  0.36855505  0.75502608  1
  O  O209  1  0.50540070  0.86735304  0.25533044  1
  O  O210  1  0.52023559  0.86798351  0.75538629  1
  O  O211  1  0.50207844  0.12911277  0.23725420  1
  O  O212  1  0.50133017  0.12594889  0.76173891  1
  O  O213  1  0.49184683  0.62938185  0.25045261  1
  O  O214  1  0.48965083  0.62288153  0.75153571  1
  O  O215  1  0.99153209  0.13121595  0.24408663  1
  O  O216  1  0.99630389  0.13229694  0.74269760  1
  O  O217  1  0.98988325  0.62547953  0.24387227  1
  O  O218  1  0.99065655  0.61949438  0.73897119  1
  O  O219  1  0.36818863  0.25375049  0.00383541  1
  O  O220  1  0.36859231  0.25260827  0.50444309  1
  O  O221  1  0.36472974  0.75249467  0.00933639  1
  O  O222  1  0.37011692  0.75429389  0.50447164  1
  O  O223  1  0.86173282  0.24435773  0.00698127  1
  O  O224  1  0.86923687  0.26302722  0.50441121  1
  O  O225  1  0.87982705  0.76057331  0.01175831  1
  O  O226  1  0.87965673  0.76395903  0.50758148  1
  O  O227  1  0.12801250  0.23931247  0.49686910  1
  O  O228  1  0.13158000  0.24650231  0.99471588  1
  O  O229  1  0.13427639  0.75581391  0.48723685  1
  O  O230  1  0.13673326  0.75050819  0.99270514  1
  O  O231  1  0.63210965  0.25223513  0.49623941  1
  O  O232  1  0.63506826  0.23932751  0.99433585  1
  O  O233  1  0.61678843  0.74144993  0.49151016  1
  O  O234  1  0.62045404  0.73970144  0.99600298  1
  O  O235  1  0.48881496  0.23920031  0.12772407  1
  O  O236  1  0.50765330  0.24541555  0.61915381  1
  O  O237  1  0.49032668  0.74356243  0.13220948  1
  O  O238  1  0.48517609  0.74649035  0.62591766  1
  O  O239  1  0.99078118  0.24486785  0.12702065  1
  O  O240  1  1.00199309  0.24078799  0.62942192  1
  O  O241  1  0.99582186  0.74229614  0.12112927  1
  O  O242  1  0.99282604  0.73799499  0.61660991  1
  O  O243  1  0.00024934  0.25783440  0.36376627  1
  O  O244  1  0.00449708  0.25982490  0.87217053  1
  O  O245  1  0.00913811  0.76232781  0.37835210  1
  O  O246  1  0.01798026  0.74309914  0.88242657  1
  O  O247  1  0.49639167  0.25866251  0.36543754  1
  O  O248  1  0.51732374  0.24806917  0.88425750  1
  O  O249  1  0.50694834  0.75832826  0.37113973  1
  O  O250  1  0.48082749  0.75568412  0.87003656  1
  O  O251  1  0.23998110  0.12563342  0.48332384  1
  O  O252  1  0.24267312  0.13475096  0.99252117  1
  O  O253  1  0.25341848  0.63147880  0.48657001  1
  O  O254  1  0.25401049  0.63046661  0.99193108  1
  O  O255  1  0.76227122  0.13622426  0.48782375  1
  O  O256  1  0.74287196  0.12710841  0.99787539  1
  O  O257  1  0.74095031  0.62496334  0.49305237  1
  O  O258  1  0.73847227  0.62378493  0.98664588  1
  O  O259  1  0.25499045  0.36097631  -0.00353583  1
  O  O260  1  0.24284090  0.37957010  0.51229582  1
  O  O261  1  0.25318968  0.86578544  0.00924179  1
  O  O262  1  0.26088941  0.86465112  0.48656399  1
  O  O263  1  0.74916039  0.35883812  -0.00353542  1
  O  O264  1  0.76184044  0.36945369  0.49169110  1
  O  O265  1  0.75996021  0.87921802  0.01095098  1
  O  O266  1  0.75728095  0.87546660  0.51122784  1
  O  O267  1  0.13170938  0.50155555  0.23714182  1
  O  O268  1  0.12996788  0.49497592  0.74024916  1
  O  O269  1  0.13015325  0.99170667  0.24238627  1
  O  O270  1  0.12663999  1.00231136  0.73247702  1
  O  O271  1  0.62986313  0.50423881  0.24132348  1
  O  O272  1  0.63569661  0.50086393  0.74380188  1
  O  O273  1  0.62997188  0.99130289  0.24423239  1
  O  O274  1  0.62948761  0.97935987  0.75105132  1
  O  O275  1  0.35863059  -0.01008289  0.24695388  1
  O  O276  1  0.36638549  -0.01857243  0.73663669  1
  O  O277  1  0.36755646  0.50418449  0.25439544  1
  O  O278  1  0.37092384  0.50358064  0.75730604  1
  O  O279  1  0.86805097  0.00971025  0.24989541  1
  O  O280  1  0.88254026  0.01295722  0.75079567  1
  O  O281  1  0.87608685  0.51774523  0.25112543  1
  O  O282  1  0.87133021  0.50987970  0.75638143  1
  O  O283  1  0.10694549  0.37218537  0.37968669  1
  O  O284  1  0.11606894  0.37117870  0.86737387  1
  O  O285  1  0.11776985  0.87088856  0.36818658  1
  O  O286  1  0.12735054  0.85647241  0.87361962  1
  O  O287  1  0.60886291  0.37614437  0.37293603  1
  O  O288  1  0.62871892  0.35433291  0.87890185  1
  O  O289  1  0.62029739  0.86721589  0.37132862  1
  O  O290  1  0.63000848  0.86951452  0.86827103  1
  O  O291  1  0.38259298  0.13165777  0.11853130  1
  O  O292  1  0.35217722  0.12740285  0.62994438  1
  O  O293  1  0.37198311  0.63313529  0.13076953  1
  O  O294  1  0.37673666  0.62877939  0.63399188  1
  O  O295  1  0.87838568  0.12922929  0.13423870  1
  O  O296  1  0.88407270  0.12821897  0.63165223  1
  O  O297  1  0.88606350  0.63413582  0.13371395  1
  O  O298  1  0.87965669  0.63273985  0.63100669  1
  O  O299  1  0.26012243  0.24233590  0.11595666  1
  O  O300  1  0.24325710  0.27002504  0.62240252  1
  O  O301  1  0.25312154  0.74970431  0.12070115  1
  O  O302  1  0.25789112  0.73933265  0.60897371  1
  O  O303  1  0.75749073  0.24439469  0.11198782  1
  O  O304  1  0.75202591  0.24906961  0.61243419  1
  O  O305  1  0.75904365  0.76092038  0.12978497  1
  O  O306  1  0.76393993  0.75690363  0.62373540  1
  O  O307  1  0.24495309  0.24338639  0.36989350  1
  O  O308  1  0.24435544  0.24463006  0.88088482  1
  O  O309  1  0.24494855  0.74098550  0.38204613  1
  O  O310  1  0.24364959  0.73919438  0.88425054  1
  O  O311  1  0.74899100  0.24289188  0.38426392  1
  O  O312  1  0.74607711  0.23999706  0.88760563  1
  O  O313  1  0.73808881  0.74385720  0.37128873  1
  O  O314  1  0.75677375  0.73317921  0.87143850  1
  O  O315  1  0.00325998  0.11804191  0.00339297  1
  O  O316  1  0.00407811  0.12723324  0.50483310  1
  O  O317  1  -0.00069625  0.61367700  0.01079053  1
  O  O318  1  -0.00922874  0.61378595  0.50712567  1
  O  O319  1  0.50623363  0.11593016  0.00859374  1
  O  O320  1  0.49769996  0.10868398  0.48460301  1
  O  O321  1  0.51547513  0.61472009  -0.00042590  1
  O  O322  1  0.51225506  0.61538970  0.49881213  1
  O  O323  1  0.50192927  0.39262052  0.49004143  1
  O  O324  1  0.49186368  0.38302091  0.99439739  1
  O  O325  1  0.48805143  0.87847093  0.49261633  1
  O  O326  1  0.48834411  0.88010097  1.00482877  1
  O  O327  1  0.99253479  0.38626410  0.49546832  1
  O  O328  1  1.00485076  0.38827746  0.98921746  1
  O  O329  1  0.99209055  0.87925066  0.49002983  1
  O  O330  1  0.99251367  0.88131249  0.99339883  1
  O  O331  1  0.49171153  0.49706375  0.38001471  1
  O  O332  1  0.49348152  0.49753367  0.88854996  1
  O  O333  1  0.49776897  0.98485572  0.37196848  1
  O  O334  1  0.50476069  0.99099002  0.89148376  1
  O  O335  1  1.00348200  0.49624250  0.38409221  1
  O  O336  1  0.99908799  0.49708460  0.88197305  1
  O  O337  1  0.99788644  0.98759123  0.37349461  1
  O  O338  1  0.99958185  1.00078543  0.88580710  1
  O  O339  1  0.00311861  0.00458837  0.11427251  1
  O  O340  1  0.00823282  0.01479982  0.62067063  1
  O  O341  1  0.00965096  0.50521636  0.11990751  1
  O  O342  1  0.00511426  0.51061328  0.61800848  1
  O  O343  1  0.50554362  0.00413880  0.12148506  1
  O  O344  1  0.49930464  0.00076423  0.60651353  1
  O  O345  1  0.48841375  0.50241590  0.10670273  1
  O  O346  1  0.50817553  0.50211777  0.61786436  1
  O  O347  1  0.25237160  0.38688485  0.25529201  1
  O  O348  1  0.24208304  0.38096683  0.74107655  1
  O  O349  1  0.23789651  0.88006170  0.24568781  1
  O  O350  1  0.24892826  0.87087616  0.74398560  1
  O  O351  1  0.74322523  0.38027093  0.26056546  1
  O  O352  1  0.75156032  0.38777751  0.75775502  1
  O  O353  1  0.74519446  0.87934933  0.24390008  1
  O  O354  1  0.74459388  0.86951580  0.73435171  1
  O  O355  1  0.23932515  0.11372664  0.25400195  1
  O  O356  1  0.24468401  0.12652601  0.76679792  1
  O  O357  1  0.25602036  0.61706086  0.26217256  1
  O  O358  1  0.26054022  0.61608406  0.75703958  1
  O  O359  1  0.75615911  0.12367706  0.25382390  1
  O  O360  1  0.76410176  0.13125449  0.76347941  1
  O  O361  1  0.76452957  0.62604247  0.25738870  1
  O  O362  1  0.75719251  0.61919274  0.76017366  1
  O  O363  1  0.35913293  0.12174815  0.36934415  1
  O  O364  1  0.36062216  0.12242642  0.87779659  1
  O  O365  1  0.36901775  0.61538306  0.36985839  1
  O  O366  1  0.36426269  0.61621219  0.87038883  1
  O  O367  1  0.86963144  0.12649208  0.36137845  1
  O  O368  1  0.87015304  0.12256421  0.86831858  1
  O  O369  1  0.86980626  0.63779376  0.36235983  1
  O  O370  1  0.87170839  0.62106560  0.86914763  1
  O  O371  1  0.12066950  0.38527798  0.12548644  1
  O  O372  1  0.12633143  0.38583066  0.62941511  1
  O  O373  1  0.12778223  0.87661027  0.13149072  1
  O  O374  1  0.12136988  0.88745435  0.61971011  1
  O  O375  1  0.62068655  0.36526882  0.12333416  1
  O  O376  1  0.63134228  0.39191780  0.62436652  1
  O  O377  1  0.63228580  0.87498363  0.12873775  1
  O  O378  1  0.63727239  0.87775534  0.62340126  1
  O  O379  1  0.10769479  0.24783852  0.24406652  1
  O  O380  1  0.11892820  0.25600647  0.75348042  1
  O  O381  1  0.13177205  0.75957825  0.26404753  1
  O  O382  1  0.13316496  0.74738123  0.76373368  1
  O  O383  1  0.60903748  0.24973975  0.25217969  1
  O  O384  1  0.63161274  0.24751270  0.76576997  1
  O  O385  1  0.62001044  0.75235683  0.25750731  1
  O  O386  1  0.62785628  0.76326278  0.74091729  1
  O  O387  1  0.38532118  0.25369408  0.23811707  1
  O  O388  1  0.38399516  0.25766566  0.73324523  1
  O  O389  1  0.37713253  0.74313417  0.24429653  1
  O  O390  1  0.36864882  0.73773212  0.73932817  1
  O  O391  1  0.88087400  0.24484145  0.24155269  1
  O  O392  1  0.88376388  0.24393380  0.74953200  1
  O  O393  1  0.87580711  0.74350000  0.23825010  1
  O  O394  1  0.87499389  0.73796496  0.74109239  1
  O  O395  1  0.38439460  0.50905283  0.49028699  1
  O  O396  1  0.37304019  0.49021804  0.99506479  1
  O  O397  1  0.38226467  0.98886704  0.49069737  1
  O  O398  1  0.38283081  0.98672239  1.01268450  1
  O  O399  1  0.88004066  0.48981186  0.50226812  1
  O  O400  1  0.88668496  0.50740004  0.98650539  1
  O  O401  1  0.87752371  0.98823424  0.49744164  1
  O  O402  1  0.88310498  0.98782133  1.00079058  1
  O  O403  1  0.11631944  0.00087718  0.00534885  1
  O  O404  1  0.12312602  0.01276633  0.50614891  1
  O  O405  1  0.12095377  0.49911833  0.01517643  1
  O  O406  1  0.11364612  0.50073238  0.51086673  1
  O  O407  1  0.61834824  0.00409234  0.00759496  1
  O  O408  1  0.60535709  -0.01057719  0.49633057  1
  O  O409  1  0.61616321  0.50016188  0.00153135  1
  O  O410  1  0.62202480  0.50835784  0.50604343  1
  O  O411  1  0.37787440  0.36307825  0.11069944  1
  O  O412  1  0.35844542  0.38745983  0.62356736  1
  O  O413  1  0.36693975  0.85943633  0.12177667  1
  O  O414  1  0.36429060  0.86454540  0.61524317  1
  O  O415  1  0.88135469  0.36336799  0.12196876  1
  O  O416  1  0.88180462  0.37475723  0.60884466  1
  O  O417  1  0.87024589  0.86895048  0.12127375  1
  O  O418  1  0.86920936  0.86973135  0.61951873  1
  O  O419  1  0.12988219  0.12773331  0.37925878  1
  O  O420  1  0.12671971  0.13271390  0.88087658  1
  O  O421  1  0.13247452  0.63363464  0.36920010  1
  O  O422  1  0.13731510  0.63122247  0.87010812  1
  O  O423  1  0.63843014  0.12613776  0.36819365  1
  O  O424  1  0.63402921  0.12782639  0.88742839  1
  O  O425  1  0.63336974  0.63212202  0.38211401  1
  O  O426  1  0.63630330  0.62228260  0.88201167  1
