# generated using pymatgen
data_V85Zn86O256
_symmetry_space_group_name_H-M   'P 1'
_cell_length_a   16.92696472
_cell_length_b   16.92192305
_cell_length_c   16.91974820
_cell_angle_alpha   89.97726016
_cell_angle_beta   89.98167982
_cell_angle_gamma   89.99283895
_symmetry_Int_Tables_number   1
_chemical_formula_structural   V85Zn86O256
_chemical_formula_sum   'V85 Zn86 O256'
_cell_volume   4846.43777188
_cell_formula_units_Z   1
loop_
 _symmetry_equiv_pos_site_id
 _symmetry_equiv_pos_as_xyz
  1  'x, y, z'
loop_
 _atom_site_type_symbol
 _atom_site_label
 _atom_site_symmetry_multiplicity
 _atom_site_fract_x
 _atom_site_fract_y
 _atom_site_fract_z
 _atom_site_occupancy
  V  V0  1  0.24728421  0.25070788  0.50112056  1
  V  V1  1  0.88033056  0.86736109  0.49823676  1
  V  V2  1  0.49233877  0.49099403  0.00427649  1
  V  V3  1  0.25422175  0.26252241  -0.00184378  1
  V  V4  1  0.48845482  0.62217389  0.62843438  1
  V  V5  1  0.86765475  0.00329023  0.88065961  1
  V  V6  1  0.11937960  0.75354044  0.37612536  1
  V  V7  1  0.74844257  0.24769806  0.49975607  1
  V  V8  1  0.87485103  0.62885924  0.24599437  1
  V  V9  1  0.50613264  0.00149432  -0.00000471  1
  V  V10  1  0.75289627  0.74920795  0.01109155  1
  V  V11  1  0.63194402  0.74286128  0.87152895  1
  V  V12  1  0.87493265  0.49914128  0.37449741  1
  V  V13  1  0.37373889  0.62394477  0.24505541  1
  V  V14  1  0.37787738  0.25712336  0.11921717  1
  V  V15  1  -0.00049437  -0.00485893  0.49888533  1
  V  V16  1  0.24533492  0.38313768  0.62344416  1
  V  V17  1  0.62401205  0.62440703  0.49991160  1
  V  V18  1  -0.00182585  0.37238552  0.36586140  1
  V  V19  1  0.49717781  0.87977800  0.39235937  1
  V  V20  1  0.81568140  0.80940026  0.67654682  1
  V  V21  1  0.87409528  0.24763754  0.62607044  1
  V  V22  1  0.12907736  0.62424075  0.50758824  1
  V  V23  1  0.37452629  0.37001544  0.49854099  1
  V  V24  1  -0.00668039  0.62956783  0.62550575  1
  V  V25  1  0.62554174  0.61836794  0.00663809  1
  V  V26  1  0.24142482  0.00342118  0.74965908  1
  V  V27  1  0.24717410  0.88223420  0.61783954  1
  V  V28  1  0.25094131  0.87473462  0.12552700  1
  V  V29  1  0.12679623  0.12920441  0.00291913  1
  V  V30  1  0.00843181  0.87338238  0.88004636  1
  V  V31  1  -0.00178500  0.00679495  0.00346273  1
  V  V32  1  0.24644949  0.62370742  0.36785889  1
  V  V33  1  0.00555765  0.49832888  0.50641092  1
  V  V34  1  -0.00121883  0.63607321  0.12495859  1
  V  V35  1  0.36915579  0.49715038  0.36720751  1
  V  V36  1  0.37887658  0.00339205  0.86489814  1
  V  V37  1  0.37419679  0.24377436  0.63170590  1
  V  V38  1  0.62514194  0.37980304  0.24705493  1
  V  V39  1  0.12258171  0.12255445  0.50439783  1
  V  V40  1  0.25210879  0.12392677  0.37267192  1
  V  V41  1  0.88877184  0.24811600  0.13073774  1
  V  V42  1  0.50253305  0.76042135  0.24801714  1
  V  V43  1  0.13203244  0.50511654  0.12788408  1
  V  V44  1  0.37494816  0.75722295  0.61819600  1
  V  V45  1  0.86543932  0.12531003  0.75591717  1
  V  V46  1  0.01345273  0.75025680  0.75168330  1
  V  V47  1  0.00056203  0.25096431  0.75108684  1
  V  V48  1  0.74774721  0.50534548  0.75617308  1
  V  V49  1  0.11936129  0.24768336  0.36580741  1
  V  V50  1  0.75019974  0.75737084  0.50273868  1
  V  V51  1  0.49863460  0.49886727  0.49857827  1
  V  V52  1  0.12306411  0.38655299  0.74469915  1
  V  V53  1  0.89291822  0.12882782  0.25153787  1
  V  V54  1  0.61998956  0.37386453  0.76197738  1
  V  V55  1  0.87218487  0.50914600  0.87557378  1
  V  V56  1  0.63126098  -0.00640364  0.14128391  1
  V  V57  1  0.87194539  -0.00585893  0.37066863  1
  V  V58  1  0.62727041  0.23920467  0.87726354  1
  V  V59  1  0.87553488  0.37375998  0.49925924  1
  V  V60  1  0.00064680  0.37758205  0.87379609  1
  V  V61  1  0.62585564  -0.01987882  0.63568524  1
  V  V62  1  0.13421652  0.38005210  0.24940033  1
  V  V63  1  0.37863766  0.48943544  0.86838841  1
  V  V64  1  0.00355438  0.50287855  0.00163324  1
  V  V65  1  0.49596787  0.24496124  0.75665387  1
  V  V66  1  0.25495363  0.63419365  0.86687503  1
  V  V67  1  0.00155923  0.12028836  0.62839477  1
  V  V68  1  0.11890348  0.87661796  0.25391371  1
  V  V69  1  0.74821164  0.62206378  0.37801033  1
  V  V70  1  0.62521583  0.10926684  0.50872994  1
  V  V71  1  0.49483902  0.74638068  0.75151890  1
  V  V72  1  0.87494997  0.37514051  0.00153736  1
  V  V73  1  0.37602148  0.87380976  -0.00249444  1
  V  V74  1  0.62169092  0.49658334  0.62694804  1
  V  V75  1  0.12332196  0.00527003  0.12720048  1
  V  V76  1  0.50620427  0.87352170  0.86787836  1
  V  V77  1  0.74822242  0.37489511  0.62631860  1
  V  V78  1  0.74833141  0.37836920  0.12456659  1
  V  V79  1  0.61951348  0.24749167  0.37675370  1
  V  V80  1  0.25575293  0.12868667  0.87132912  1
  V  V81  1  0.49979976  0.37232380  0.37472408  1
  V  V82  1  0.74795368  0.12035238  0.36392966  1
  V  V83  1  0.37449025  0.12335583  0.24466020  1
  V  V84  1  0.75369842  0.24042079  -0.00121728  1
  Zn  Zn85  1  0.25511339  0.75704770  0.49502461  1
  Zn  Zn86  1  0.25546133  0.50739662  0.74465020  1
  Zn  Zn87  1  0.75015820  -0.00873089  0.74961920  1
  Zn  Zn88  1  0.87738618  0.87059962  0.01125048  1
  Zn  Zn89  1  0.49551790  0.11653939  0.62591363  1
  Zn  Zn90  1  0.25270411  -0.00222854  0.25322796  1
  Zn  Zn91  1  0.50150167  0.24875202  0.24500519  1
  Zn  Zn92  1  0.74526128  0.50403983  0.24234124  1
  Zn  Zn93  1  0.12788733  0.87658646  0.75127929  1
  Zn  Zn94  1  0.50440126  0.12510476  0.12438784  1
  Zn  Zn95  1  0.25664203  0.38399307  0.12317938  1
  Zn  Zn96  1  0.63326045  0.11828198  0.00122570  1
  Zn  Zn97  1  0.50243988  0.62272296  0.12750930  1
  Zn  Zn98  1  0.12510991  0.63724598  -0.00862435  1
  Zn  Zn99  1  0.75729221  -0.12559710  0.14897350  1
  Zn  Zn100  1  0.36976835  -0.01911501  0.40621679  1
  Zn  Zn101  1  0.37558440  0.74975524  0.12162914  1
  Zn  Zn102  1  0.87026519  0.62995512  0.74887082  1
  Zn  Zn103  1  0.12692726  0.25399412  0.87437476  1
  Zn  Zn104  1  0.23958328  0.75641997  -0.00998704  1
  Zn  Zn105  1  0.62752648  0.75776782  0.37035345  1
  Zn  Zn106  1  -0.00418267  0.75722467  0.25066577  1
  Zn  Zn107  1  0.18905553  0.19189198  0.18542696  1
  Zn  Zn108  1  0.18630004  0.19208313  0.68997087  1
  Zn  Zn109  1  0.18687781  0.69165358  0.18525891  1
  Zn  Zn110  1  0.19133198  0.68874333  0.68624236  1
  Zn  Zn111  1  0.68828443  0.18839966  0.18378810  1
  Zn  Zn112  1  0.68651347  0.18758712  0.68962290  1
  Zn  Zn113  1  0.68511816  0.68790908  0.18896500  1
  Zn  Zn114  1  0.67561578  0.68148799  0.69050050  1
  Zn  Zn115  1  0.31192939  0.30603353  0.30948998  1
  Zn  Zn116  1  0.31161249  0.31851023  0.81218381  1
  Zn  Zn117  1  0.31294031  0.81092408  0.31141615  1
  Zn  Zn118  1  0.31721150  0.81569393  0.80521335  1
  Zn  Zn119  1  0.80932341  0.30847736  0.30983913  1
  Zn  Zn120  1  0.81085594  0.31616800  0.81571907  1
  Zn  Zn121  1  0.81599446  0.80847037  0.31815168  1
  Zn  Zn122  1  0.81919096  0.81146720  0.84076341  1
  Zn  Zn123  1  0.18638122  0.43884393  0.43567541  1
  Zn  Zn124  1  0.18793668  0.44620774  0.93192059  1
  Zn  Zn125  1  0.18459776  0.94038939  0.43791325  1
  Zn  Zn126  1  0.18896538  0.94091488  0.93845125  1
  Zn  Zn127  1  0.68662578  0.43590347  0.43683948  1
  Zn  Zn128  1  0.68650143  0.43556300  0.93984468  1
  Zn  Zn129  1  0.68210354  0.93517691  0.32156376  1
  Zn  Zn130  1  0.68655078  0.93140954  0.93810919  1
  Zn  Zn131  1  0.31354178  0.06295779  0.05868180  1
  Zn  Zn132  1  0.30984995  0.06315753  0.56683909  1
  Zn  Zn133  1  0.31238002  0.56724246  0.05248336  1
  Zn  Zn134  1  0.31368946  0.56229249  0.55608289  1
  Zn  Zn135  1  0.81452662  0.06060979  0.07437093  1
  Zn  Zn136  1  0.80723316  0.05515886  0.56276282  1
  Zn  Zn137  1  0.81097967  0.56555607  0.06107738  1
  Zn  Zn138  1  0.81248218  0.56092733  0.56389262  1
  Zn  Zn139  1  0.44113230  0.43709289  0.18595767  1
  Zn  Zn140  1  0.43655990  0.42991722  0.68905070  1
  Zn  Zn141  1  0.43852015  0.94124820  0.18632343  1
  Zn  Zn142  1  0.43886181  0.93675390  0.68440911  1
  Zn  Zn143  1  0.93767050  0.44224180  0.18642660  1
  Zn  Zn144  1  0.93557277  0.44034371  0.68638480  1
  Zn  Zn145  1  0.93726201  0.94034262  0.18653941  1
  Zn  Zn146  1  0.94473565  0.94313339  0.69335648  1
  Zn  Zn147  1  0.06223907  0.05791489  0.31677130  1
  Zn  Zn148  1  0.06152281  0.06493342  0.81925301  1
  Zn  Zn149  1  0.06159110  0.56227845  0.31253309  1
  Zn  Zn150  1  0.06618389  0.56656822  0.81199190  1
  Zn  Zn151  1  0.55169524  0.06417550  0.31874310  1
  Zn  Zn152  1  0.56615326  0.06264536  0.80808633  1
  Zn  Zn153  1  0.55949801  0.56336185  0.31136043  1
  Zn  Zn154  1  0.55746512  0.56356416  0.81672171  1
  Zn  Zn155  1  0.42460784  0.15622666  0.45462695  1
  Zn  Zn156  1  0.43906171  0.18878050  0.93699471  1
  Zn  Zn157  1  0.43707390  0.68899225  0.43333921  1
  Zn  Zn158  1  0.43522668  0.68222799  0.93633334  1
  Zn  Zn159  1  0.93643372  0.18557154  0.43612370  1
  Zn  Zn160  1  0.93869580  0.18796275  0.93887400  1
  Zn  Zn161  1  0.93850934  0.68583671  0.43692952  1
  Zn  Zn162  1  0.93946464  0.68758638  0.93668321  1
  Zn  Zn163  1  0.06660399  0.31611134  0.06267715  1
  Zn  Zn164  1  0.06212379  0.30946163  0.56102431  1
  Zn  Zn165  1  0.06498937  0.81600031  0.06279619  1
  Zn  Zn166  1  0.06597789  0.81048392  0.56602967  1
  Zn  Zn167  1  0.56485618  0.31166491  0.06035103  1
  Zn  Zn168  1  0.56053660  0.30794356  0.56538709  1
  Zn  Zn169  1  0.56435922  0.81331193  0.06264859  1
  Zn  Zn170  1  0.56306881  0.81062095  0.55988979  1
  O  O171  1  0.13381936  0.12010149  0.11278863  1
  O  O172  1  0.11521547  0.13380767  0.61571917  1
  O  O173  1  0.11682124  0.61981634  0.12518780  1
  O  O174  1  0.11823301  0.62981052  0.61259689  1
  O  O175  1  0.62453213  0.11267782  0.12314173  1
  O  O176  1  0.62835001  0.12481233  0.61517263  1
  O  O177  1  0.62360604  0.62442033  0.11120341  1
  O  O178  1  0.61303633  0.61545560  0.61822085  1
  O  O179  1  0.37736542  0.37834788  0.37721422  1
  O  O180  1  0.37197813  0.39012505  0.87855989  1
  O  O181  1  0.38581953  0.87322953  0.37349529  1
  O  O182  1  0.38291746  0.88268202  0.87969017  1
  O  O183  1  0.88071951  0.37731677  0.37787310  1
  O  O184  1  0.88211395  0.38472965  0.88159052  1
  O  O185  1  0.87612651  0.88269463  0.38587867  1
  O  O186  1  0.88886382  0.88613901  0.88841890  1
  O  O187  1  0.25494489  0.01017827  0.37552663  1
  O  O188  1  0.25873323  0.00759484  0.86899212  1
  O  O189  1  0.25873054  0.50797154  0.37741787  1
  O  O190  1  0.26422585  0.50636232  0.87188887  1
  O  O191  1  0.75865464  0.00810108  0.37566072  1
  O  O192  1  0.76407604  -0.00964700  0.87346721  1
  O  O193  1  0.75565107  0.50941005  0.37728403  1
  O  O194  1  0.75897554  0.49301357  0.86777885  1
  O  O195  1  0.23603445  0.50170010  0.11493767  1
  O  O196  1  0.25701706  0.48731557  0.62367047  1
  O  O197  1  0.24034850  0.99181043  0.12261661  1
  O  O198  1  0.25416208  0.99201217  0.63414804  1
  O  O199  1  0.75608821  0.48417485  0.12373057  1
  O  O200  1  0.74287246  0.49319017  0.63165074  1
  O  O201  1  0.73477123  0.99770782  0.12719494  1
  O  O202  1  0.73381064  1.00012861  0.63006000  1
  O  O203  1  0.00673644  0.38174824  0.26238582  1
  O  O204  1  0.00441320  0.37195116  0.75188067  1
  O  O205  1  0.01430883  0.87649003  0.24791284  1
  O  O206  1  0.00390332  0.86905091  0.75829161  1
  O  O207  1  0.50732281  0.37004008  0.25662669  1
  O  O208  1  0.51311167  0.36319289  0.74473085  1
  O  O209  1  0.49439456  0.86207845  0.25011277  1
  O  O210  1  0.49638041  0.86626972  0.76160441  1
  O  O211  1  0.48901304  0.13025672  0.24872391  1
  O  O212  1  0.50631954  0.14031033  0.74623088  1
  O  O213  1  0.48906516  0.63086866  0.24923735  1
  O  O214  1  0.50505722  0.63218162  0.73913167  1
  O  O215  1  0.99229842  0.13008470  0.26125459  1
  O  O216  1  0.99536698  0.12985709  0.74406153  1
  O  O217  1  0.99245652  0.62365037  0.24159473  1
  O  O218  1  0.99802928  0.63265604  0.74383000  1
  O  O219  1  0.36649895  0.24664217  0.00647972  1
  O  O220  1  0.36729518  0.25205827  0.50739086  1
  O  O221  1  0.37756835  0.76511577  -0.00029709  1
  O  O222  1  0.37331811  0.74292392  0.51355059  1
  O  O223  1  0.87071255  0.25559407  0.00590711  1
  O  O224  1  0.86807248  0.25389301  0.50435826  1
  O  O225  1  0.85631032  0.74507856  -0.00667333  1
  O  O226  1  0.87392636  0.75962792  0.49807364  1
  O  O227  1  0.12609097  0.24063268  0.48972284  1
  O  O228  1  0.13275890  0.24439211  0.99847916  1
  O  O229  1  0.12929064  0.74272479  0.49334587  1
  O  O230  1  0.12506244  0.75172822  0.99624999  1
  O  O231  1  0.63492718  0.25095914  0.49392737  1
  O  O232  1  0.63491947  0.24621637  0.99374009  1
  O  O233  1  0.63454238  0.74128417  0.49990483  1
  O  O234  1  0.62950057  0.74042627  0.99348485  1
  O  O235  1  0.49262337  0.24607451  0.12170051  1
  O  O236  1  0.48951629  0.24925859  0.63396604  1
  O  O237  1  0.49697932  0.74820399  0.13494892  1
  O  O238  1  0.49616119  0.74277604  0.63087188  1
  O  O239  1  0.98784435  0.25448243  0.11914523  1
  O  O240  1  0.99268376  0.24089856  0.62930789  1
  O  O241  1  1.00178889  0.73926010  0.12796290  1
  O  O242  1  1.00183099  0.74156813  0.63582675  1
  O  O243  1  0.00786669  0.26029049  0.38233494  1
  O  O244  1  0.00061703  0.26013729  0.86950354  1
  O  O245  1  0.01547612  0.74348222  0.37325862  1
  O  O246  1  -0.00982341  0.76113421  0.86450475  1
  O  O247  1  0.51239240  0.25243599  0.37716912  1
  O  O248  1  0.51111961  0.24858651  0.86948011  1
  O  O249  1  0.49852666  0.75799833  0.36482797  1
  O  O250  1  0.50329907  0.75373218  0.86856730  1
  O  O251  1  0.23793181  0.13158520  0.49491927  1
  O  O252  1  0.24521326  0.13188197  0.98921734  1
  O  O253  1  0.24257069  0.62576163  0.48985053  1
  O  O254  1  0.24851658  0.63380925  0.98622189  1
  O  O255  1  0.74149110  0.12920326  0.49272328  1
  O  O256  1  0.75488637  0.13737851  1.00657989  1
  O  O257  1  0.74628859  0.62923737  0.49654013  1
  O  O258  1  0.73657989  0.63324805  1.00255352  1
  O  O259  1  0.24155016  0.36483448  -0.00120070  1
  O  O260  1  0.25182409  0.36913039  0.50446423  1
  O  O261  1  0.25910988  0.87697093  0.00453192  1
  O  O262  1  0.24989529  0.87972811  0.51301378  1
  O  O263  1  0.75604161  0.36817427  0.00698562  1
  O  O264  1  0.75636588  0.36913224  0.50480582  1
  O  O265  1  0.75016580  0.85498535  -0.00340441  1
  O  O266  1  0.76204615  0.85800199  0.50551757  1
  O  O267  1  0.12136172  0.49291539  0.24106859  1
  O  O268  1  0.12460056  0.48925538  0.74597420  1
  O  O269  1  0.12819110  0.99631286  0.24452477  1
  O  O270  1  0.13789781  1.00321998  0.75496015  1
  O  O271  1  0.62617882  0.48495936  0.25732415  1
  O  O272  1  0.62800756  0.49263211  0.75000185  1
  O  O273  1  0.62053849  1.00327564  0.24498644  1
  O  O274  1  0.63246458  0.99652993  0.74194851  1
  O  O275  1  0.37143274  0.01593505  0.24461004  1
  O  O276  1  0.36850773  -0.00265903  0.76110818  1
  O  O277  1  0.37981035  0.50518814  0.26026224  1
  O  O278  1  0.37673498  0.49457892  0.76217518  1
  O  O279  1  0.88443607  0.01001973  0.26463551  1
  O  O280  1  0.87405972  0.00843822  0.75967821  1
  O  O281  1  0.87234655  0.50852408  0.25917210  1
  O  O282  1  0.86528283  0.49864178  0.75812838  1
  O  O283  1  0.11826780  0.36910330  0.36880954  1
  O  O284  1  0.11779906  0.37763466  0.86486014  1
  O  O285  1  0.13228726  0.86670983  0.36722450  1
  O  O286  1  0.11222930  0.88440312  0.87379308  1
  O  O287  1  0.62131343  0.36583283  0.37042303  1
  O  O288  1  0.63038425  0.36550177  0.86572885  1
  O  O289  1  0.60458343  0.87196871  0.37920653  1
  O  O290  1  0.61531318  0.85758336  0.88097119  1
  O  O291  1  0.37500669  0.13400205  0.12879317  1
  O  O292  1  0.37274325  0.14051652  0.63099480  1
  O  O293  1  0.37096005  0.62515484  0.13639224  1
  O  O294  1  0.38444394  0.62821287  0.62168480  1
  O  O295  1  0.87396619  0.13298612  0.14136802  1
  O  O296  1  0.88063936  0.12876868  0.63160819  1
  O  O297  1  0.88388491  0.61766925  0.13471221  1
  O  O298  1  0.88884758  0.62005072  0.62734093  1
  O  O299  1  0.25738296  0.25447664  0.11422715  1
  O  O300  1  0.25511934  0.25897334  0.62113027  1
  O  O301  1  0.25286431  0.76508103  0.12251073  1
  O  O302  1  0.25834936  0.76217120  0.62403479  1
  O  O303  1  0.75938847  0.25980842  0.11788466  1
  O  O304  1  0.75524137  0.25536248  0.62053496  1
  O  O305  1  0.74435890  0.75214219  0.11397963  1
  O  O306  1  0.75175706  0.74491983  0.62462346  1
  O  O307  1  0.23846739  0.24550230  0.38101651  1
  O  O308  1  0.25066045  0.24498777  0.87988957  1
  O  O309  1  0.24175095  0.74152264  0.37664635  1
  O  O310  1  0.26014610  0.73914552  0.86972508  1
  O  O311  1  0.74010126  0.24314891  0.38102790  1
  O  O312  1  0.74402795  0.25548008  0.88758982  1
  O  O313  1  0.74867153  0.73603634  0.38703667  1
  O  O314  1  0.73526038  0.74571763  0.88135387  1
  O  O315  1  0.01132353  0.11563718  -0.00501240  1
  O  O316  1  0.00332290  0.12029244  0.50830245  1
  O  O317  1  0.00092770  0.61900477  0.00670381  1
  O  O318  1  0.00625671  0.61857615  0.50649233  1
  O  O319  1  0.50155758  0.10976783  -0.00176808  1
  O  O320  1  0.52461116  0.13689782  0.50708978  1
  O  O321  1  0.50985198  0.61968616  0.00356079  1
  O  O322  1  0.50365044  0.61849406  0.50445589  1
  O  O323  1  0.49440566  0.37779047  0.49455425  1
  O  O324  1  0.51220765  0.39356785  0.99930121  1
  O  O325  1  0.49311795  0.87010922  0.49179712  1
  O  O326  1  0.49569267  0.88352676  0.99159408  1
  O  O327  1  0.99636761  0.38124770  0.49324731  1
  O  O328  1  0.99576963  0.38443692  0.99534831  1
  O  O329  1  0.99472229  0.88426220  0.51028156  1
  O  O330  1  1.00034643  0.88979199  0.99743625  1
  O  O331  1  0.49176847  0.49251456  0.37988666  1
  O  O332  1  0.48604793  0.50643824  0.88482343  1
  O  O333  1  0.49250655  0.98341764  0.37340811  1
  O  O334  1  0.49742107  0.99288322  0.87691914  1
  O  O335  1  0.99463311  0.49326698  0.38515064  1
  O  O336  1  0.99454091  0.49748833  0.88151816  1
  O  O337  1  0.98942162  1.00580122  0.39156807  1
  O  O338  1  0.99247844  0.99547017  0.88361800  1
  O  O339  1  0.01525638  0.00155317  0.11850483  1
  O  O340  1  -0.00373906  0.01327119  0.61701586  1
  O  O341  1  0.00787068  0.50741416  0.11697838  1
  O  O342  1  -0.00205550  0.50507692  0.61222956  1
  O  O343  1  0.51127890  0.00083939  0.11661295  1
  O  O344  1  0.51757169  0.00198577  0.63406190  1
  O  O345  1  0.49590409  0.50380690  0.11042450  1
  O  O346  1  0.50079511  0.50395121  0.62034980  1
  O  O347  1  0.23744714  0.37356130  0.24937581  1
  O  O348  1  0.23977927  0.37730153  0.74046485  1
  O  O349  1  0.24319008  0.87789605  0.24181696  1
  O  O350  1  0.24837670  0.88617696  0.74343156  1
  O  O351  1  0.74339759  0.37681797  0.24309858  1
  O  O352  1  0.74201096  0.38295119  0.74487645  1
  O  O353  1  0.73887330  0.86120135  0.26000475  1
  O  O354  1  0.76477407  0.86475773  0.74463362  1
  O  O355  1  0.25231358  0.12457843  0.25717951  1
  O  O356  1  0.24558740  0.12220501  0.76265177  1
  O  O357  1  0.25592650  0.63040291  0.26021802  1
  O  O358  1  0.24918847  0.62309845  0.75873557  1
  O  O359  1  0.75589055  0.13173955  0.26236091  1
  O  O360  1  0.76353367  0.12605941  0.74969934  1
  O  O361  1  0.75474987  0.62324948  0.25826929  1
  O  O362  1  0.74927863  0.60951717  0.74419457  1
  O  O363  1  0.35826483  0.14184785  0.36053706  1
  O  O364  1  0.36770156  0.11583745  0.87935868  1
  O  O365  1  0.36716666  0.61720898  0.36684018  1
  O  O366  1  0.36287873  0.61469117  0.87717726  1
  O  O367  1  0.86628039  0.11930509  0.37125330  1
  O  O368  1  0.88216649  0.11678990  0.86695779  1
  O  O369  1  0.86797562  0.61706870  0.37260051  1
  O  O370  1  0.87800567  0.61266675  0.86996316  1
  O  O371  1  0.12542489  0.38467060  0.13448342  1
  O  O372  1  0.13353265  0.36887924  0.62986704  1
  O  O373  1  0.13196654  0.88473035  0.13271743  1
  O  O374  1  0.14260357  0.87277396  0.62918131  1
  O  O375  1  0.63495250  0.36698757  0.13557312  1
  O  O376  1  0.62957377  0.37916781  0.63285851  1
  O  O377  1  0.62616982  0.89122472  0.12341747  1
  O  O378  1  0.62446071  0.88142420  0.62589413  1
  O  O379  1  0.12574319  0.25785172  0.25986985  1
  O  O380  1  0.11535014  0.26048390  0.75248872  1
  O  O381  1  0.12326601  0.75917524  0.25714358  1
  O  O382  1  0.11612908  0.75174501  0.75110647  1
  O  O383  1  0.62599022  0.25748881  0.25993943  1
  O  O384  1  0.62258989  0.25599725  0.75883372  1
  O  O385  1  0.60597174  0.73932997  0.25398876  1
  O  O386  1  0.61542641  0.74546474  0.76405334  1
  O  O387  1  0.37442615  0.24136988  0.23747098  1
  O  O388  1  0.38469544  0.26080150  0.74456026  1
  O  O389  1  0.38404237  0.74051068  0.24781502  1
  O  O390  1  0.38803118  0.75108206  0.73743976  1
  O  O391  1  0.87528697  0.24278817  0.24314104  1
  O  O392  1  0.88087046  0.24519157  0.74778144  1
  O  O393  1  0.88031888  0.73306039  0.26048898  1
  O  O394  1  0.87378318  0.75312007  0.74469477  1
  O  O395  1  0.37969601  0.49158415  0.48800408  1
  O  O396  1  0.38661645  0.50025929  0.99314908  1
  O  O397  1  0.38842317  1.04967187  0.49113696  1
  O  O398  1  0.38239608  0.99115661  0.99033367  1
  O  O399  1  0.88149398  0.49259153  0.49413205  1
  O  O400  1  0.88360897  0.49752549  0.99410602  1
  O  O401  1  0.87914719  0.98930361  0.49551499  1
  O  O402  1  0.88373046  1.00781068  0.99693673  1
  O  O403  1  0.12091876  0.00910094  0.00702344  1
  O  O404  1  0.11509636  0.01379131  0.49517910  1
  O  O405  1  0.11319650  0.50162998  0.00552792  1
  O  O406  1  0.11603948  0.50972772  0.49393956  1
  O  O407  1  0.61941793  0.00003763  0.00118547  1
  O  O408  1  0.62604670  0.01042357  0.51339517  1
  O  O409  1  0.61714859  0.51444102  -0.01137858  1
  O  O410  1  0.61815093  0.50264714  0.50613210  1
  O  O411  1  0.37283705  0.36269913  0.13026537  1
  O  O412  1  0.36693694  0.36640872  0.61687849  1
  O  O413  1  0.36730083  0.87909873  0.11600525  1
  O  O414  1  0.36318509  0.86900630  0.62854171  1
  O  O415  1  0.87149915  0.36936364  0.12101062  1
  O  O416  1  0.86970302  0.36840129  0.61957753  1
  O  O417  1  0.86821353  0.88350231  0.12244980  1
  O  O418  1  0.87589773  0.87399933  0.62250837  1
  O  O419  1  0.13206280  0.13143835  0.37905308  1
  O  O420  1  0.13364434  0.12823413  0.88680938  1
  O  O421  1  0.13136346  0.62934084  0.38096195  1
  O  O422  1  0.14658367  0.61417681  0.87593200  1
  O  O423  1  0.62977615  0.12810866  0.38452589  1
  O  O424  1  0.62845233  0.13521109  0.87661472  1
  O  O425  1  0.63257354  0.62292291  0.38254879  1
  O  O426  1  0.61812514  0.63778703  0.88552775  1
