# generated using pymatgen
data_V85Zn86O256
_symmetry_space_group_name_H-M   'P 1'
_cell_length_a   16.92314665
_cell_length_b   16.93065110
_cell_length_c   16.93150920
_cell_angle_alpha   90.03429805
_cell_angle_beta   90.03649032
_cell_angle_gamma   89.98144541
_symmetry_Int_Tables_number   1
_chemical_formula_structural   V85Zn86O256
_chemical_formula_sum   'V85 Zn86 O256'
_cell_volume   4851.21207193
_cell_formula_units_Z   1
loop_
 _symmetry_equiv_pos_site_id
 _symmetry_equiv_pos_as_xyz
  1  'x, y, z'
loop_
 _atom_site_type_symbol
 _atom_site_label
 _atom_site_symmetry_multiplicity
 _atom_site_fract_x
 _atom_site_fract_y
 _atom_site_fract_z
 _atom_site_occupancy
  V  V0  1  0.00240671  0.49275076  -0.00241084  1
  V  V1  1  0.50032788  0.12799884  0.12789891  1
  V  V2  1  0.60908848  0.25102677  0.36376041  1
  V  V3  1  0.24459295  0.12729382  0.86916701  1
  V  V4  1  0.12049661  0.12720157  -0.00101797  1
  V  V5  1  0.01515707  0.24580345  0.24589039  1
  V  V6  1  0.62103939  0.00126632  0.12610486  1
  V  V7  1  0.88325069  0.87338559  -0.00269313  1
  V  V8  1  0.75077359  0.87407727  0.62561731  1
  V  V9  1  0.87607195  0.74773777  0.62671456  1
  V  V10  1  0.38381773  -0.00097223  0.38194116  1
  V  V11  1  0.25058554  0.87631415  0.63011396  1
  V  V12  1  0.62126601  0.13359018  0.50029302  1
  V  V13  1  0.75237918  0.13591194  0.38075561  1
  V  V14  1  0.49920703  0.87539228  0.87742438  1
  V  V15  1  0.62420765  0.87280460  0.74777895  1
  V  V16  1  0.01026153  0.62029999  0.62781196  1
  V  V17  1  0.25126451  0.87844829  0.12545228  1
  V  V18  1  0.38708209  0.38204890  0.49148848  1
  V  V19  1  0.37785627  0.49903541  0.87142880  1
  V  V20  1  0.12622345  0.62852529  0.49270694  1
  V  V21  1  0.49483717  0.74835503  0.74492700  1
  V  V22  1  0.24173999  0.25090134  0.49799497  1
  V  V23  1  0.88197224  0.62189909  0.25218442  1
  V  V24  1  0.88412807  0.88190386  0.50408392  1
  V  V25  1  0.24881625  0.75231199  0.50182335  1
  V  V26  1  0.87305653  0.36587882  0.49909349  1
  V  V27  1  0.87683447  0.00035805  0.87472919  1
  V  V28  1  0.25597226  0.63150958  0.36474758  1
  V  V29  1  0.00592097  0.62437998  0.12820421  1
  V  V30  1  0.55776296  0.05218334  -0.04455139  1
  V  V31  1  0.49718940  0.75175437  0.25286971  1
  V  V32  1  0.49976683  0.25123687  0.75498089  1
  V  V33  1  0.61920667  -0.00199121  0.61236339  1
  V  V34  1  0.37964880  0.87499057  0.50610888  1
  V  V35  1  0.13003673  0.48507697  0.12969531  1
  V  V36  1  0.36817054  0.37897356  0.00925544  1
  V  V37  1  0.88499742  0.00268810  0.38124664  1
  V  V38  1  0.24942647  0.62992231  0.87584513  1
  V  V39  1  0.24306366  0.12580372  0.37736961  1
  V  V40  1  0.72991419  0.24657820  -0.00281998  1
  V  V41  1  0.37342158  0.25279117  0.62260548  1
  V  V42  1  0.38006840  0.12963812  0.25139847  1
  V  V43  1  0.25148954  -0.00073513  0.25204741  1
  V  V44  1  0.12407919  0.88409085  0.75896190  1
  V  V45  1  0.74647882  0.49297451  0.24956967  1
  V  V46  1  0.74701063  0.49811147  0.74860019  1
  V  V47  1  0.62067095  0.50124225  0.61007845  1
  V  V48  1  0.37399311  0.62665086  0.74251023  1
  V  V49  1  0.50299916  0.62786865  0.12379355  1
  V  V50  1  -0.00519471  0.25598501  0.75217077  1
  V  V51  1  0.00005433  0.00109293  -0.00203551  1
  V  V52  1  0.01644565  0.36777565  0.37034730  1
  V  V53  1  0.74898291  0.00298354  0.75042678  1
  V  V54  1  0.75211157  0.74714962  0.00040193  1
  V  V55  1  0.37896276  0.88302097  0.00388891  1
  V  V56  1  0.87905109  0.12715847  0.24197479  1
  V  V57  1  0.25036142  0.48425290  0.25217777  1
  V  V58  1  0.50029218  0.62338804  0.61193831  1
  V  V59  1  0.11983785  0.00526740  0.12646514  1
  V  V60  1  0.36885510  0.12188365  0.74661286  1
  V  V61  1  0.88178743  0.74841948  0.12831117  1
  V  V62  1  0.12087329  0.26323666  0.87356035  1
  V  V63  1  -0.00397657  0.12204364  0.62128658  1
  V  V64  1  0.75119070  0.74569883  0.50203596  1
  V  V65  1  0.63166153  0.87478000  0.25461712  1
  V  V66  1  0.37495944  0.74736941  0.12705639  1
  V  V67  1  0.75060317  0.62009211  0.38233176  1
  V  V68  1  0.74679777  0.36582695  0.62123201  1
  V  V69  1  0.75347760  0.00178752  0.25354315  1
  V  V70  1  0.87652990  0.62364776  0.74942558  1
  V  V71  1  0.75192960  0.87337885  0.12758889  1
  V  V72  1  0.62125120  0.37445295  0.75766398  1
  V  V73  1  0.36732677  0.00205274  0.87671670  1
  V  V74  1  0.75147596  0.37083513  0.12599183  1
  V  V75  1  0.24323096  0.38427914  0.62465015  1
  V  V76  1  0.11642061  0.86655022  0.25381951  1
  V  V77  1  0.12208665  -0.00080319  0.61654434  1
  V  V78  1  0.75112209  0.62233160  0.87458606  1
  V  V79  1  0.00241127  0.75295359  0.75914736  1
  V  V80  1  0.62908153  0.74743355  0.37979103  1
  V  V81  1  0.62533315  0.74819583  0.87407460  1
  V  V82  1  0.87821875  0.49432192  0.37511386  1
  V  V83  1  0.87852315  0.48887753  0.87467156  1
  V  V84  1  0.00798638  0.49541562  0.50267876  1
  Zn  Zn85  1  0.49189051  0.11878864  0.61671527  1
  Zn  Zn86  1  0.11646999  0.38417313  0.74649460  1
  Zn  Zn87  1  0.87027494  0.24598104  0.62534652  1
  Zn  Zn88  1  0.87808729  0.36501586  -0.00318600  1
  Zn  Zn89  1  0.11846668  0.12339428  0.49655570  1
  Zn  Zn90  1  0.50197212  0.50186458  -0.00019615  1
  Zn  Zn91  1  0.24789926  0.75228810  0.00066352  1
  Zn  Zn92  1  0.12685889  0.62774475  0.00105313  1
  Zn  Zn93  1  0.39192045  0.50271486  0.36971790  1
  Zn  Zn94  1  0.24637362  0.25885317  0.00528171  1
  Zn  Zn95  1  0.56223717  0.40089937  0.28812301  1
  Zn  Zn96  1  0.87178206  0.12727285  0.75175779  1
  Zn  Zn97  1  0.50165836  0.36910171  0.88654150  1
  Zn  Zn98  1  0.87977632  0.24647432  0.11965187  1
  Zn  Zn99  1  0.24193371  0.50596327  0.74444932  1
  Zn  Zn100  1  0.12201932  0.75371217  0.88079803  1
  Zn  Zn101  1  0.62536128  0.62359462  0.00002652  1
  Zn  Zn102  1  0.62810924  0.50216404  0.12405705  1
  Zn  Zn103  1  0.37315433  0.26456496  0.13559970  1
  Zn  Zn104  1  0.50597719  0.87879114  0.38392100  1
  Zn  Zn105  1  0.73511344  0.12589335  0.88089712  1
  Zn  Zn106  1  0.01030692  0.86436717  0.38259738  1
  Zn  Zn107  1  0.19299175  0.18641438  0.18401087  1
  Zn  Zn108  1  0.18338808  0.19090302  0.68675308  1
  Zn  Zn109  1  0.18761804  0.69005953  0.18551292  1
  Zn  Zn110  1  0.18688845  0.69226416  0.68739950  1
  Zn  Zn111  1  0.68945215  0.18650235  0.18533265  1
  Zn  Zn112  1  0.68289646  0.18629254  0.68807457  1
  Zn  Zn113  1  0.69179652  0.68538057  0.19223713  1
  Zn  Zn114  1  0.68412627  0.68293523  0.68604565  1
  Zn  Zn115  1  0.31223907  0.30926909  0.31698925  1
  Zn  Zn116  1  0.31056864  0.31357490  0.81320802  1
  Zn  Zn117  1  0.31139927  0.81464321  0.31544918  1
  Zn  Zn118  1  0.31169365  0.81307401  0.81019121  1
  Zn  Zn119  1  0.81776586  0.30984380  0.31059910  1
  Zn  Zn120  1  0.80465103  0.30736025  0.81552992  1
  Zn  Zn121  1  0.84788541  0.79626318  0.32995773  1
  Zn  Zn122  1  0.81463991  0.81395667  0.81344302  1
  Zn  Zn123  1  0.19297321  0.44141809  0.43975394  1
  Zn  Zn124  1  0.18996167  0.44612190  0.93567136  1
  Zn  Zn125  1  0.18991820  0.93707713  0.43681970  1
  Zn  Zn126  1  0.19104499  0.93962834  0.93825396  1
  Zn  Zn127  1  0.68718316  0.43009994  0.43570077  1
  Zn  Zn128  1  0.68719783  0.43531676  0.94405910  1
  Zn  Zn129  1  0.69863337  0.93835049  0.43763202  1
  Zn  Zn130  1  0.69630746  0.92913042  0.93488071  1
  Zn  Zn131  1  0.30742061  0.07446189  0.06391344  1
  Zn  Zn132  1  0.30593668  0.05832069  0.56316983  1
  Zn  Zn133  1  0.31220625  0.56272478  0.06341703  1
  Zn  Zn134  1  0.31671756  0.56289371  0.55660861  1
  Zn  Zn135  1  0.80671119  0.06594862  0.06053318  1
  Zn  Zn136  1  0.80867557  0.06492417  0.56277497  1
  Zn  Zn137  1  0.81576128  0.55901299  0.06179611  1
  Zn  Zn138  1  0.81662386  0.55461605  0.56329205  1
  Zn  Zn139  1  0.43237257  0.44627974  0.19344776  1
  Zn  Zn140  1  0.43605186  0.43849241  0.68422105  1
  Zn  Zn141  1  0.44128675  0.93942332  0.19157640  1
  Zn  Zn142  1  0.43506797  0.93789801  0.68805995  1
  Zn  Zn143  1  0.93868900  0.43203741  0.18719242  1
  Zn  Zn144  1  0.93580951  0.43700089  0.68521008  1
  Zn  Zn145  1  0.93849526  0.94147730  0.18617532  1
  Zn  Zn146  1  0.94083679  0.93824167  0.68957536  1
  Zn  Zn147  1  0.06095108  0.05965551  0.31241256  1
  Zn  Zn148  1  0.05751229  0.06565819  0.81054828  1
  Zn  Zn149  1  0.06695609  0.55935591  0.31348239  1
  Zn  Zn150  1  0.06620260  0.56024466  0.81415380  1
  Zn  Zn151  1  0.56399272  0.06482492  0.31409484  1
  Zn  Zn152  1  0.55584081  0.05988438  0.79035564  1
  Zn  Zn153  1  0.56295990  0.57213991  0.31400342  1
  Zn  Zn154  1  0.56171421  0.56127491  0.80888836  1
  Zn  Zn155  1  0.43552430  0.18732862  0.43931077  1
  Zn  Zn156  1  0.43242612  0.19361141  0.93869146  1
  Zn  Zn157  1  0.43128618  0.69393627  0.43551644  1
  Zn  Zn158  1  0.43416651  0.69004208  0.93769853  1
  Zn  Zn159  1  0.94112453  0.18913102  0.43554036  1
  Zn  Zn160  1  0.93525983  0.18642852  0.93596234  1
  Zn  Zn161  1  0.94163673  0.68805092  0.43928278  1
  Zn  Zn162  1  0.93880856  0.67936222  0.94028657  1
  Zn  Zn163  1  0.06163613  0.31113245  0.06340414  1
  Zn  Zn164  1  0.06027429  0.30795564  0.56419023  1
  Zn  Zn165  1  0.06433432  0.81303682  0.06569134  1
  Zn  Zn166  1  0.06535927  0.80832767  0.56824546  1
  Zn  Zn167  1  0.54764437  0.32969451  0.09473218  1
  Zn  Zn168  1  0.56273190  0.30856448  0.56281015  1
  Zn  Zn169  1  0.56325584  0.81390504  0.06174297  1
  Zn  Zn170  1  0.56278587  0.80823977  0.56235111  1
  O  O171  1  0.12851659  0.11218437  0.11469799  1
  O  O172  1  0.11871948  0.11509028  0.62566747  1
  O  O173  1  0.11403397  0.62240799  0.12701412  1
  O  O174  1  0.11498968  0.63066056  0.61458017  1
  O  O175  1  0.61627607  0.11360016  0.13023466  1
  O  O176  1  0.62403690  0.11670426  0.61561159  1
  O  O177  1  0.61796445  0.62852735  0.12393902  1
  O  O178  1  0.61793534  0.60987819  0.62600390  1
  O  O179  1  0.37289280  0.37481722  0.38861071  1
  O  O180  1  0.37711445  0.38585182  0.87697874  1
  O  O181  1  0.37629293  0.88265547  0.38545327  1
  O  O182  1  0.37816589  0.88487038  0.87904407  1
  O  O183  1  0.88304077  0.37786593  0.38238816  1
  O  O184  1  0.87043849  0.38661876  0.87284493  1
  O  O185  1  0.86130321  0.89188175  0.39118678  1
  O  O186  1  0.86936521  0.88643045  0.88567157  1
  O  O187  1  0.25954246  0.00416249  0.36915425  1
  O  O188  1  0.26097505  0.00706195  0.87290017  1
  O  O189  1  0.24545493  0.51030537  0.36188558  1
  O  O190  1  0.26096501  0.51404264  0.87105276  1
  O  O191  1  0.75690717  0.01239099  0.36879843  1
  O  O192  1  0.75510982  0.00084544  0.86636487  1
  O  O193  1  0.75583471  0.50262110  0.36992761  1
  O  O194  1  0.75679194  0.50499891  0.87003028  1
  O  O195  1  0.23699545  0.50852922  0.13710317  1
  O  O196  1  0.25395930  0.48683656  0.62077192  1
  O  O197  1  0.24354509  0.99748049  0.13319981  1
  O  O198  1  0.23827194  0.98740841  0.62564244  1
  O  O199  1  0.75484923  0.49509091  0.13468543  1
  O  O200  1  0.73965558  0.49352970  0.62950981  1
  O  O201  1  0.74176883  0.99453950  0.13186322  1
  O  O202  1  0.74249155  0.99481103  0.63388609  1
  O  O203  1  -0.00026042  0.36307195  0.26260581  1
  O  O204  1  -0.00141112  0.36119851  0.74267194  1
  O  O205  1  0.01446256  0.88127597  0.24816331  1
  O  O206  1  0.01286931  0.86649712  0.74688948  1
  O  O207  1  0.50498037  0.36262881  0.20065147  1
  O  O208  1  0.50534802  0.36817845  0.74742007  1
  O  O209  1  0.51575100  0.86781507  0.25221789  1
  O  O210  1  0.50301352  0.86711292  0.75518077  1
  O  O211  1  0.49137615  0.11734671  0.24206056  1
  O  O212  1  0.48774214  0.13488049  0.74086885  1
  O  O213  1  0.50616242  0.64593967  0.24199297  1
  O  O214  1  0.49315378  0.63161897  0.74278816  1
  O  O215  1  0.99353376  0.13746030  0.26007286  1
  O  O216  1  0.99691549  0.13475704  0.73986063  1
  O  O217  1  0.98966490  0.61759248  0.24586371  1
  O  O218  1  0.99722920  0.63023480  0.74264379  1
  O  O219  1  0.37209674  0.27049687  -0.00386244  1
  O  O220  1  0.36658419  0.25646333  0.50637838  1
  O  O221  1  0.37394051  0.76506592  0.00839775  1
  O  O222  1  0.35889694  0.76007887  0.49766878  1
  O  O223  1  0.87020170  0.24817435  0.00256467  1
  O  O224  1  0.87969467  0.26260253  0.50260925  1
  O  O225  1  0.87363886  0.75485699  0.00681353  1
  O  O226  1  0.86860776  0.75505938  0.51156741  1
  O  O227  1  0.13818189  0.24569443  0.50486069  1
  O  O228  1  0.12353422  0.24284992  0.99293808  1
  O  O229  1  0.13437696  0.74346073  0.49991992  1
  O  O230  1  0.12805339  0.74854734  0.99832087  1
  O  O231  1  0.62410942  0.24185287  0.49037107  1
  O  O232  1  0.63350580  0.25805642  1.00978726  1
  O  O233  1  0.63400411  0.75562464  0.48743760  1
  O  O234  1  0.63450669  0.75143772  0.99148679  1
  O  O235  1  0.48862204  0.22892594  0.11423050  1
  O  O236  1  0.48460173  0.24887785  0.63070624  1
  O  O237  1  0.49530255  0.74859872  0.13183551  1
  O  O238  1  0.50999564  0.73992845  0.63809929  1
  O  O239  1  0.99953396  0.25430904  0.14167590  1
  O  O240  1  0.99684020  0.24177766  0.63417268  1
  O  O241  1  0.99151431  0.73998107  0.12216971  1
  O  O242  1  0.99513562  0.74062756  0.63544638  1
  O  O243  1  0.00156483  0.26088353  0.36673020  1
  O  O244  1  0.00875418  0.24295462  0.86430838  1
  O  O245  1  -0.04249453  0.76594182  0.36323893  1
  O  O246  1  -0.00227695  0.74296571  0.86254048  1
  O  O247  1  0.50951074  0.24519114  0.37131468  1
  O  O248  1  0.49340447  0.25158976  0.85958834  1
  O  O249  1  0.50984699  0.75295234  0.36966903  1
  O  O250  1  0.50510697  0.75413233  0.86507742  1
  O  O251  1  0.24969047  0.13224923  0.49311665  1
  O  O252  1  0.23601466  0.12038834  0.98473597  1
  O  O253  1  0.24399051  0.63146957  0.49461705  1
  O  O254  1  0.25148198  0.62921978  0.99053271  1
  O  O255  1  0.73690685  0.12061103  0.49129419  1
  O  O256  1  0.74334071  0.13857528  1.00060697  1
  O  O257  1  0.75972822  0.62520904  0.48879361  1
  O  O258  1  0.75292310  0.63187122  0.99299009  1
  O  O259  1  0.26326533  0.37811708  -0.00795241  1
  O  O260  1  0.25595816  0.36906774  0.50769135  1
  O  O261  1  0.25833678  0.87586723  0.00841361  1
  O  O262  1  0.25442819  0.86897121  0.50645166  1
  O  O263  1  0.75503334  0.36318643  0.00501813  1
  O  O264  1  0.76105941  0.38116470  0.50878144  1
  O  O265  1  0.76355162  0.86733066  0.00732083  1
  O  O266  1  0.75952121  0.86784010  0.50994612  1
  O  O267  1  0.13297300  0.50092333  0.23809809  1
  O  O268  1  0.12862473  0.49619441  0.74954096  1
  O  O269  1  0.13148243  0.99803296  0.24179309  1
  O  O270  1  0.11821588  0.98726897  0.74497289  1
  O  O271  1  0.64072629  0.50131152  0.24893233  1
  O  O272  1  0.62972465  0.49246476  0.74127916  1
  O  O273  1  0.63146304  0.99304287  0.24640838  1
  O  O274  1  0.63293196  0.99069950  0.74113382  1
  O  O275  1  0.36748458  0.00054942  0.26038293  1
  O  O276  1  0.38060817  0.01453006  0.75900160  1
  O  O277  1  0.35282621  0.50474926  0.24877976  1
  O  O278  1  0.37112121  0.50863300  0.75460923  1
  O  O279  1  0.87281703  0.00590525  0.25916414  1
  O  O280  1  0.86626083  -0.00227717  0.75788060  1
  O  O281  1  0.87093953  0.50466337  0.25571325  1
  O  O282  1  0.86955686  0.50455055  0.75533610  1
  O  O283  1  0.11419553  0.37669161  0.38077616  1
  O  O284  1  0.12949935  0.36561224  0.87545911  1
  O  O285  1  0.12436272  0.88119463  0.36001453  1
  O  O286  1  0.13018214  0.87545198  0.86260649  1
  O  O287  1  0.62751667  0.35711462  0.37262856  1
  O  O288  1  0.62045510  0.38263057  0.86121726  1
  O  O289  1  0.62839309  0.87053642  0.36988487  1
  O  O290  1  0.62003273  0.86945641  0.86794343  1
  O  O291  1  0.38711154  0.10607802  0.13926669  1
  O  O292  1  0.36969742  0.13059995  0.63112731  1
  O  O293  1  0.38110020  0.64236633  0.11975583  1
  O  O294  1  0.38300130  0.61846628  0.63475127  1
  O  O295  1  0.87405764  0.11953176  0.13930329  1
  O  O296  1  0.88003302  0.12546863  0.62925010  1
  O  O297  1  0.88536991  0.62775641  0.13114572  1
  O  O298  1  0.88432724  0.62778811  0.63045094  1
  O  O299  1  0.26723661  0.22478651  0.11254532  1
  O  O300  1  0.25817669  0.25664776  0.61890160  1
  O  O301  1  0.25966537  0.75955700  0.12660457  1
  O  O302  1  0.24347209  0.76488520  0.61630358  1
  O  O303  1  0.75406362  0.25444684  0.11804880  1
  O  O304  1  0.74821593  0.26217499  0.62848139  1
  O  O305  1  0.75730018  0.75285048  0.11807065  1
  O  O306  1  0.75423219  0.75208381  0.62226429  1
  O  O307  1  0.25360895  0.23776755  0.38492052  1
  O  O308  1  0.23978730  0.24286004  0.87711517  1
  O  O309  1  0.25147302  0.73849349  0.38071100  1
  O  O310  1  0.25216228  0.74007744  0.87607606  1
  O  O311  1  0.75057510  0.23812603  0.37313123  1
  O  O312  1  0.74245386  0.24568027  0.88930411  1
  O  O313  1  0.74985355  0.73953633  0.38102020  1
  O  O314  1  0.74755125  0.74361343  0.87951044  1
  O  O315  1  0.01254082  0.11684567  -0.00525820  1
  O  O316  1  0.00152707  0.13215678  0.51488363  1
  O  O317  1  0.00048609  0.61237627  0.01207423  1
  O  O318  1  0.00668641  0.61870714  0.50461926  1
  O  O319  1  0.49210815  0.11712703  0.00473974  1
  O  O320  1  0.51278490  0.12508382  0.50067134  1
  O  O321  1  0.50264890  0.63034060  0.00899515  1
  O  O322  1  0.49286490  0.63531949  0.51296014  1
  O  O323  1  0.48488290  0.37075502  0.50459265  1
  O  O324  1  0.48628669  0.38163833  1.00292400  1
  O  O325  1  0.48453453  0.86718334  0.50272827  1
  O  O326  1  0.49192012  0.87242545  0.99066579  1
  O  O327  1  0.99740511  0.37860303  0.49309490  1
  O  O328  1  0.99871328  0.38802650  1.00370002  1
  O  O329  1  0.98774549  0.86801553  0.50308453  1
  O  O330  1  0.98891878  0.88041171  1.00381127  1
  O  O331  1  0.49859083  0.48611444  0.33483287  1
  O  O332  1  0.48711229  0.50254454  0.87468750  1
  O  O333  1  0.48836270  0.99727371  0.37213020  1
  O  O334  1  0.49364158  0.99771351  0.87894662  1
  O  O335  1  0.99824458  0.48731163  0.37960305  1
  O  O336  1  0.99039588  0.50849552  0.88533615  1
  O  O337  1  0.98752802  0.99323684  0.37516396  1
  O  O338  1  0.99215918  1.00125199  0.88646810  1
  O  O339  1  0.00711969  -0.00212877  0.11104172  1
  O  O340  1  0.00790466  0.00955639  0.63027616  1
  O  O341  1  0.01190674  0.50342693  0.12350902  1
  O  O342  1  -0.00482159  0.50884870  0.61519819  1
  O  O343  1  0.51498982  0.00070542  0.12584482  1
  O  O344  1  0.51407994  0.00126995  0.63304187  1
  O  O345  1  0.49680466  0.52223166  0.12772615  1
  O  O346  1  0.51257842  0.50705070  0.62697342  1
  O  O347  1  0.24918462  0.38502656  0.25594366  1
  O  O348  1  0.25284176  0.37529232  0.73187173  1
  O  O349  1  0.24334586  0.88579553  0.24722983  1
  O  O350  1  0.23583621  0.87017830  0.74306329  1
  O  O351  1  0.76017100  0.38308555  0.24308025  1
  O  O352  1  0.74081231  0.37897580  0.74253538  1
  O  O353  1  0.74266215  0.87924269  0.24651924  1
  O  O354  1  0.74542498  0.88242529  0.74528007  1
  O  O355  1  0.25610776  0.11288263  0.25799674  1
  O  O356  1  0.25437734  0.13017736  0.75969347  1
  O  O357  1  0.24319324  0.62685293  0.26400600  1
  O  O358  1  0.25851167  0.62852706  0.75262056  1
  O  O359  1  0.76028370  0.12058748  0.25764125  1
  O  O360  1  0.74552859  0.11339081  0.75468715  1
  O  O361  1  0.76189231  0.61564813  0.25927473  1
  O  O362  1  0.75590543  0.61813794  0.75397722  1
  O  O363  1  0.36850122  0.11636792  0.37052698  1
  O  O364  1  0.36593349  0.12104312  0.87008919  1
  O  O365  1  0.35966399  0.62041260  0.38006776  1
  O  O366  1  0.37098972  0.62170809  0.86369778  1
  O  O367  1  0.87009107  0.11975237  0.37304080  1
  O  O368  1  0.86947395  0.10960505  0.87362318  1
  O  O369  1  0.87122095  0.61488949  0.36866202  1
  O  O370  1  0.86768410  0.61800069  0.86791259  1
  O  O371  1  0.12831926  0.38670368  0.12277856  1
  O  O372  1  0.14050315  0.37025745  0.62242358  1
  O  O373  1  0.13032253  0.88665122  0.13308534  1
  O  O374  1  0.12837035  0.88188345  0.63397154  1
  O  O375  1  0.64719170  0.38249791  0.12200569  1
  O  O376  1  0.62874745  0.38377151  0.62847505  1
  O  O377  1  0.63205886  0.87879656  0.13321965  1
  O  O378  1  0.63045871  0.87999237  0.62742698  1
  O  O379  1  0.11451490  0.24034453  0.24816239  1
  O  O380  1  0.11614373  0.25623099  0.75737557  1
  O  O381  1  0.12664872  0.76844399  0.24440556  1
  O  O382  1  0.11688554  0.76054907  0.75296664  1
  O  O383  1  0.62678725  0.24044742  0.26528226  1
  O  O384  1  0.61170995  0.26023050  0.74093213  1
  O  O385  1  0.62574314  0.75786361  0.26178214  1
  O  O386  1  0.61998358  0.75478649  0.75506146  1
  O  O387  1  0.37063247  0.23348650  0.25159153  1
  O  O388  1  0.37647495  0.24197535  0.74260287  1
  O  O389  1  0.38605225  0.76349707  0.24134837  1
  O  O390  1  0.38528645  0.74284859  0.75206502  1
  O  O391  1  0.88525102  0.23995107  0.24753191  1
  O  O392  1  0.87923993  0.24728655  0.75049202  1
  O  O393  1  0.86371455  0.73599191  0.23347887  1
  O  O394  1  0.88125623  0.74595583  0.74507289  1
  O  O395  1  0.37499437  0.48680277  0.49272000  1
  O  O396  1  0.37540453  0.49466392  0.99164409  1
  O  O397  1  0.36872352  0.98994940  0.49297496  1
  O  O398  1  0.36902974  0.99109317  0.99288488  1
  O  O399  1  0.88874889  0.49089551  0.49433226  1
  O  O400  1  0.88323365  0.49764865  0.99025918  1
  O  O401  1  0.87085741  0.99291711  0.49594038  1
  O  O402  1  0.87950337  0.99415546  0.99670386  1
  O  O403  1  0.11754459  0.00317490  0.00411274  1
  O  O404  1  0.12585739  -0.00130791  0.51250060  1
  O  O405  1  0.12111506  0.50406559  0.01173482  1
  O  O406  1  0.11445589  0.50786931  0.49747426  1
  O  O407  1  0.62751259  -0.00927832  0.00819871  1
  O  O408  1  0.62995952  0.00237158  0.50850303  1
  O  O409  1  0.62083981  0.50543736  0.00407780  1
  O  O410  1  0.62722569  0.49566194  0.51132162  1
  O  O411  1  0.36636145  0.38228052  0.11193267  1
  O  O412  1  0.36694394  0.36935685  0.61558723  1
  O  O413  1  0.37377834  0.87366972  0.11916743  1
  O  O414  1  0.36353889  0.88177493  0.61988720  1
  O  O415  1  0.86637623  0.37299484  0.12079649  1
  O  O416  1  0.86387166  0.37518128  0.61696912  1
  O  O417  1  0.87222286  0.86616058  0.12159056  1
  O  O418  1  0.87080237  0.87020869  0.62234653  1
  O  O419  1  0.13877397  0.11296239  0.37847029  1
  O  O420  1  0.12972581  0.13036792  0.87781177  1
  O  O421  1  0.13316788  0.62348879  0.38608711  1
  O  O422  1  0.13617064  0.62948182  0.87739502  1
  O  O423  1  0.63160830  0.13232122  0.38166522  1
  O  O424  1  0.61317328  0.10445697  0.88317277  1
  O  O425  1  0.63840221  0.63504613  0.37153490  1
  O  O426  1  0.63470572  0.63031698  0.87238033  1
