# generated using pymatgen
data_V85Zn86O256
_symmetry_space_group_name_H-M   'P 1'
_cell_length_a   16.92771312
_cell_length_b   16.92419740
_cell_length_c   16.92125804
_cell_angle_alpha   89.99332971
_cell_angle_beta   90.09624712
_cell_angle_gamma   90.02529817
_symmetry_Int_Tables_number   1
_chemical_formula_structural   V85Zn86O256
_chemical_formula_sum   'V85 Zn86 O256'
_cell_volume   4847.72932416
_cell_formula_units_Z   1
loop_
 _symmetry_equiv_pos_site_id
 _symmetry_equiv_pos_as_xyz
  1  'x, y, z'
loop_
 _atom_site_type_symbol
 _atom_site_label
 _atom_site_symmetry_multiplicity
 _atom_site_fract_x
 _atom_site_fract_y
 _atom_site_fract_z
 _atom_site_occupancy
  V  V0  1  0.12689389  -0.01142393  0.62365129  1
  V  V1  1  0.37640750  0.50083125  0.87432106  1
  V  V2  1  0.26567168  0.37077101  0.62210891  1
  V  V3  1  -0.01027070  0.49988769  -0.00632416  1
  V  V4  1  0.36782574  0.36762896  0.00934391  1
  V  V5  1  -0.00795375  0.62225997  0.61414868  1
  V  V6  1  0.49520465  0.13251576  0.62144561  1
  V  V7  1  0.24869602  0.75028474  0.00493445  1
  V  V8  1  0.00053285  0.12226244  0.62396626  1
  V  V9  1  0.74268951  0.25047966  -0.00237327  1
  V  V10  1  0.36463870  0.86351793  0.49626740  1
  V  V11  1  0.87134857  0.88016242  -0.00597921  1
  V  V12  1  0.00310660  0.38661944  0.37993862  1
  V  V13  1  0.12908087  0.25099672  0.87490898  1
  V  V14  1  0.25332728  0.00409316  0.74646724  1
  V  V15  1  0.25116487  0.50090983  0.74570325  1
  V  V16  1  0.87631152  0.24920591  0.62435208  1
  V  V17  1  0.00128616  0.25082062  0.74987916  1
  V  V18  1  0.12332165  0.62283672  0.00169286  1
  V  V19  1  0.51128766  0.75432653  0.25344730  1
  V  V20  1  0.75282289  0.25149463  0.49715646  1
  V  V21  1  0.75266789  0.86577890  0.62679305  1
  V  V22  1  0.74320824  0.12901304  0.87324287  1
  V  V23  1  0.48342620  0.38012402  0.37782544  1
  V  V24  1  0.75129870  0.38121661  0.12632256  1
  V  V25  1  0.50176892  0.87679426  0.87778090  1
  V  V26  1  0.11696940  0.75127673  0.87501423  1
  V  V27  1  0.38103889  0.88839960  0.00476681  1
  V  V28  1  0.48903960  0.24889742  0.24783865  1
  V  V29  1  0.87516926  0.63087331  0.74719222  1
  V  V30  1  0.62725205  0.00134385  0.14181257  1
  V  V31  1  0.74497316  0.75396805  -0.00321316  1
  V  V32  1  0.12662763  0.36711857  0.24712777  1
  V  V33  1  0.62422437  0.62573229  -0.00173682  1
  V  V34  1  0.25809781  0.49665088  0.25276223  1
  V  V35  1  0.24969772  0.62452761  0.87510871  1
  V  V36  1  -0.00852510  0.61994102  0.12731090  1
  V  V37  1  0.87012402  -0.00334486  0.36569892  1
  V  V38  1  0.49974735  0.49968605  -0.00037411  1
  V  V39  1  0.30800059  0.81599439  0.67092919  1
  V  V40  1  0.50564285  0.36997759  0.87683119  1
  V  V41  1  0.49838192  -0.00028531  0.49949977  1
  V  V42  1  0.75475379  0.49910665  0.75300581  1
  V  V43  1  0.74869810  0.37665920  0.62409260  1
  V  V44  1  0.62626100  0.00193288  0.62480039  1
  V  V45  1  0.75552189  0.62017990  0.87838018  1
  V  V46  1  0.62726500  0.50174882  0.12955266  1
  V  V47  1  0.74988378  0.12421281  0.36478649  1
  V  V48  1  0.11762759  0.24522324  0.37574059  1
  V  V49  1  0.87929665  0.25030937  0.13073790  1
  V  V50  1  0.25961442  0.62386863  0.37782775  1
  V  V51  1  0.49687107  0.63948779  0.63192865  1
  V  V52  1  0.87483117  0.37592680  -0.00870644  1
  V  V53  1  0.12724511  0.61208330  0.49734682  1
  V  V54  1  0.75321456  -0.00094919  0.75375076  1
  V  V55  1  0.25042675  0.87629791  0.12628985  1
  V  V56  1  0.51178122  0.87337604  0.37334725  1
  V  V57  1  0.37611244  0.13403213  0.74915357  1
  V  V58  1  -0.00132487  0.87166819  0.37390688  1
  V  V59  1  0.62340844  0.62469526  0.49365634  1
  V  V60  1  0.62441227  0.25385727  0.37463593  1
  V  V61  1  0.37542901  0.74946049  0.12935817  1
  V  V62  1  0.62079948  0.11592490  -0.00120490  1
  V  V63  1  0.37573931  0.00110812  0.37186501  1
  V  V64  1  0.49089738  0.12556374  0.12656239  1
  V  V65  1  -0.00548467  0.00145300  -0.00723127  1
  V  V66  1  0.87231177  0.74797707  0.12794486  1
  V  V67  1  0.74724315  0.88099125  0.13684256  1
  V  V68  1  -0.00239346  -0.00251187  0.49890283  1
  V  V69  1  0.50919041  0.25084092  0.75036497  1
  V  V70  1  0.13094080  0.74824360  0.38226847  1
  V  V71  1  0.12444472  0.12448296  -0.00155457  1
  V  V72  1  0.87420420  0.86651770  0.50291110  1
  V  V73  1  0.87762130  0.12097860  0.76015481  1
  V  V74  1  0.62774766  0.38031121  0.25569564  1
  V  V75  1  0.12655821  0.37531320  0.74658342  1
  V  V76  1  0.25111903  0.00346752  0.25172716  1
  V  V77  1  0.26292270  0.25223973  0.50066895  1
  V  V78  1  0.61857795  0.86680829  0.74868433  1
  V  V79  1  0.12033366  -0.00229209  0.12640240  1
  V  V80  1  0.48711497  0.49703135  0.50110731  1
  V  V81  1  0.00057470  0.74337592  0.25201194  1
  V  V82  1  0.13129654  0.49484246  0.12466295  1
  V  V83  1  0.25483581  0.13038532  0.37475759  1
  V  V84  1  0.74363006  0.74769303  0.49171098  1
  Zn  Zn85  1  0.62570658  0.12621502  0.49893372  1
  Zn  Zn86  1  0.12098821  0.49431379  0.61715973  1
  Zn  Zn87  1  -0.00020129  0.12809673  0.13077231  1
  Zn  Zn88  1  0.86628876  0.50998337  0.37102564  1
  Zn  Zn89  1  0.88001528  0.12738563  0.25148164  1
  Zn  Zn90  1  0.62893253  0.37393914  0.75625446  1
  Zn  Zn91  1  0.49901232  0.62615044  0.12737496  1
  Zn  Zn92  1  0.12204214  0.87192243  0.74871650  1
  Zn  Zn93  1  0.25368341  0.12599532  0.87595652  1
  Zn  Zn94  1  -0.00523038  0.87878166  0.87027452  1
  Zn  Zn95  1  0.74683153  0.62013177  0.35779245  1
  Zn  Zn96  1  0.12545828  0.87249299  0.25215908  1
  Zn  Zn97  1  0.12778721  0.12347550  0.50171759  1
  Zn  Zn98  1  -0.00319927  0.38169232  0.86881672  1
  Zn  Zn99  1  0.24836276  0.25141121  0.01415325  1
  Zn  Zn100  1  0.37699061  0.63855194  0.74783072  1
  Zn  Zn101  1  -0.00475920  0.75246541  0.74273631  1
  Zn  Zn102  1  0.61530153  0.74489262  0.86831114  1
  Zn  Zn103  1  0.62336705  0.50068537  0.62680209  1
  Zn  Zn104  1  0.38052700  0.00545590  0.87758850  1
  Zn  Zn105  1  0.37857682  0.62207290  0.25260107  1
  Zn  Zn106  1  0.88652777  0.38220274  0.50241971  1
  Zn  Zn107  1  0.18361441  0.18184752  0.19003876  1
  Zn  Zn108  1  0.18814800  0.18670354  0.68290583  1
  Zn  Zn109  1  0.18558500  0.68319798  0.19168978  1
  Zn  Zn110  1  0.17860013  0.68109813  0.68755145  1
  Zn  Zn111  1  0.68534663  0.19228464  0.18636880  1
  Zn  Zn112  1  0.68602928  0.18835481  0.68580401  1
  Zn  Zn113  1  0.68179177  0.69458728  0.17939165  1
  Zn  Zn114  1  0.68594460  0.68367075  0.68299707  1
  Zn  Zn115  1  0.30856059  0.31281428  0.19064576  1
  Zn  Zn116  1  0.31592763  0.31292463  0.81421286  1
  Zn  Zn117  1  0.31338081  0.81311655  0.31284482  1
  Zn  Zn118  1  0.30865180  0.81688883  0.83286701  1
  Zn  Zn119  1  0.81475440  0.32559736  0.31127852  1
  Zn  Zn120  1  0.81176946  0.30875764  0.81154493  1
  Zn  Zn121  1  0.81211784  0.80045781  0.31222903  1
  Zn  Zn122  1  0.80934356  0.81008794  0.81311735  1
  Zn  Zn123  1  0.19612490  0.43262985  0.43232898  1
  Zn  Zn124  1  0.18673778  0.43775643  0.93598191  1
  Zn  Zn125  1  0.18640919  0.93717759  0.43806419  1
  Zn  Zn126  1  0.18857886  0.93792926  0.93574613  1
  Zn  Zn127  1  0.69177265  0.44535306  0.43881495  1
  Zn  Zn128  1  0.68875864  0.44084314  0.93913742  1
  Zn  Zn129  1  0.69008253  0.94007513  0.43873672  1
  Zn  Zn130  1  0.68555679  0.94043252  0.93635697  1
  Zn  Zn131  1  0.30691167  0.06840526  0.06571413  1
  Zn  Zn132  1  0.31424617  0.06126654  0.56134131  1
  Zn  Zn133  1  0.31345866  0.56197410  0.06374969  1
  Zn  Zn134  1  0.31208584  0.56876148  0.56451149  1
  Zn  Zn135  1  0.80939193  0.06333481  0.06329191  1
  Zn  Zn136  1  0.81374237  0.06091465  0.56001931  1
  Zn  Zn137  1  0.81255224  0.55768131  0.20964770  1
  Zn  Zn138  1  0.81417728  0.55857494  0.55454861  1
  Zn  Zn139  1  0.44372073  0.43868687  0.18884794  1
  Zn  Zn140  1  0.44074467  0.44048273  0.68786509  1
  Zn  Zn141  1  0.44175844  0.94101384  0.18913977  1
  Zn  Zn142  1  0.44193464  0.94386468  0.69008171  1
  Zn  Zn143  1  0.94683695  0.42938489  0.18747548  1
  Zn  Zn144  1  0.93486546  0.44297206  0.68558240  1
  Zn  Zn145  1  0.93776331  0.93389789  0.18515566  1
  Zn  Zn146  1  0.93637829  0.93549620  0.68838326  1
  Zn  Zn147  1  0.06015314  0.06434628  0.31106844  1
  Zn  Zn148  1  0.06650422  0.06025080  0.81134896  1
  Zn  Zn149  1  0.06762674  0.56129496  0.30967844  1
  Zn  Zn150  1  0.06090041  0.56376296  0.80964242  1
  Zn  Zn151  1  0.56062736  0.06650700  0.31193566  1
  Zn  Zn152  1  0.56225507  0.05932011  0.81232116  1
  Zn  Zn153  1  0.56065705  0.56389468  0.31539769  1
  Zn  Zn154  1  0.56524035  0.56094209  0.80900616  1
  Zn  Zn155  1  0.43755957  0.18851513  0.43306190  1
  Zn  Zn156  1  0.44042164  0.18770550  0.93762047  1
  Zn  Zn157  1  0.44154211  0.68796448  0.43783580  1
  Zn  Zn158  1  0.43754540  0.69291778  0.93800147  1
  Zn  Zn159  1  0.93571561  0.18683744  0.43724112  1
  Zn  Zn160  1  0.93839116  0.19170307  0.93921514  1
  Zn  Zn161  1  0.93223859  0.68125822  0.43689170  1
  Zn  Zn162  1  0.93310308  0.68584781  0.94038931  1
  Zn  Zn163  1  0.06232453  0.31425281  0.06067374  1
  Zn  Zn164  1  0.06976652  0.30957033  0.56016682  1
  Zn  Zn165  1  0.05867992  0.81342894  0.06031211  1
  Zn  Zn166  1  0.06159318  0.80456731  0.56119265  1
  Zn  Zn167  1  0.56142401  0.30999812  0.06254518  1
  Zn  Zn168  1  0.56236127  0.31533741  0.56151086  1
  Zn  Zn169  1  0.56158988  0.81757581  0.06564091  1
  Zn  Zn170  1  0.56120363  0.81387030  0.55918739  1
  O  O171  1  0.12199897  0.11230368  0.11695199  1
  O  O172  1  0.11219457  0.11558891  0.62719344  1
  O  O173  1  0.11463817  0.61877664  0.11949216  1
  O  O174  1  0.11832536  0.61807740  0.61314613  1
  O  O175  1  0.62410026  0.11601651  0.12036393  1
  O  O176  1  0.61684493  0.11813669  0.62352084  1
  O  O177  1  0.62174293  0.61726239  0.11585535  1
  O  O178  1  0.61137188  0.62278079  0.61929352  1
  O  O179  1  0.38825884  0.37480542  0.37065266  1
  O  O180  1  0.38352158  0.38366661  0.88303188  1
  O  O181  1  0.38051964  0.88072083  0.38404588  1
  O  O182  1  0.38184343  0.88070789  0.88811293  1
  O  O183  1  0.89898811  0.36396140  0.37629408  1
  O  O184  1  0.87560397  0.36881736  0.88694871  1
  O  O185  1  0.87727265  0.87808565  0.38128229  1
  O  O186  1  0.87287850  0.86923984  0.88950009  1
  O  O187  1  0.25503001  0.00538404  0.37045693  1
  O  O188  1  0.25092354  0.00043698  0.85855090  1
  O  O189  1  0.24686234  0.50901541  0.36381681  1
  O  O190  1  0.25741957  0.50430261  0.86892602  1
  O  O191  1  0.75800490  0.01183325  0.38188279  1
  O  O192  1  0.74544488  0.00997854  0.86125422  1
  O  O193  1  0.74665796  0.50234299  0.36258642  1
  O  O194  1  0.74762775  0.50912004  0.86846551  1
  O  O195  1  0.23677062  0.50663098  0.13046341  1
  O  O196  1  0.24918539  0.49218347  0.63183704  1
  O  O197  1  0.24248378  0.99783534  0.13371257  1
  O  O198  1  0.24061435  1.00660187  0.63474090  1
  O  O199  1  0.74275244  0.48744889  0.12496418  1
  O  O200  1  0.74969175  0.49100870  0.63196571  1
  O  O201  1  0.73877273  0.99516267  0.12461942  1
  O  O202  1  0.74310191  0.99599682  0.63196302  1
  O  O203  1  0.01846457  0.37293010  0.26239781  1
  O  O204  1  0.00795201  0.37179664  0.74852401  1
  O  O205  1  0.00241159  0.86222670  0.25363866  1
  O  O206  1  0.00024773  0.86974035  0.75378602  1
  O  O207  1  0.51092962  0.37098632  0.25670210  1
  O  O208  1  0.50098312  0.36794883  0.75761675  1
  O  O209  1  0.49252497  0.86421136  0.25956553  1
  O  O210  1  0.51007241  0.87833673  0.75529032  1
  O  O211  1  0.50347671  0.13485982  0.23853904  1
  O  O212  1  0.49608695  0.13177529  0.74381379  1
  O  O213  1  0.49812929  0.63907572  0.25066914  1
  O  O214  1  0.49826094  0.62307473  0.73739458  1
  O  O215  1  0.99332836  0.12141249  0.24396372  1
  O  O216  1  0.99341806  0.12653330  0.74536430  1
  O  O217  1  1.00662513  0.63487619  0.24195733  1
  O  O218  1  0.99034017  0.62679949  0.74350573  1
  O  O219  1  0.37228350  0.26534859  -0.00561150  1
  O  O220  1  0.36204935  0.24833771  0.49630753  1
  O  O221  1  0.36978961  0.75849696  0.01247578  1
  O  O222  1  0.37791545  0.76463305  0.49712197  1
  O  O223  1  0.86337000  0.25541648  0.00586073  1
  O  O224  1  0.86869331  0.25428397  0.50664012  1
  O  O225  1  0.86705729  0.75525682  0.00967443  1
  O  O226  1  0.86620080  0.76138814  0.49940786  1
  O  O227  1  0.13490819  0.24335639  0.49166027  1
  O  O228  1  0.12480379  0.24370508  0.99212397  1
  O  O229  1  0.12041050  0.73862316  0.48604364  1
  O  O230  1  0.12853852  0.74320610  0.99702575  1
  O  O231  1  0.63085918  0.25052699  0.48808813  1
  O  O232  1  0.63789649  0.24112371  1.00639350  1
  O  O233  1  0.62981896  0.73812287  0.50615695  1
  O  O234  1  0.62967720  0.74415443  1.00146376  1
  O  O235  1  0.50754446  0.23717848  0.13443077  1
  O  O236  1  0.50492230  0.24217370  0.63150308  1
  O  O237  1  0.49224360  0.75244416  0.13488282  1
  O  O238  1  0.50062108  0.73835738  0.62352436  1
  O  O239  1  0.98253601  0.25027576  0.11600395  1
  O  O240  1  0.99845721  0.24143821  0.62965861  1
  O  O241  1  0.99345895  0.74274415  0.12901735  1
  O  O242  1  1.00682135  0.72897275  0.62772366  1
  O  O243  1  0.01498849  0.24737267  0.37972709  1
  O  O244  1  0.01120382  0.25272691  0.86777219  1
  O  O245  1  0.00454774  0.75220683  0.36712730  1
  O  O246  1  0.00993546  0.74793355  0.87890256  1
  O  O247  1  0.50812137  0.25735951  0.37084891  1
  O  O248  1  0.49602558  0.25951961  0.86561803  1
  O  O249  1  0.49735988  0.75796639  0.36242827  1
  O  O250  1  0.49964936  0.76653987  0.87618743  1
  O  O251  1  0.25022327  0.13294361  0.49527230  1
  O  O252  1  0.23625267  0.12637441  0.99618481  1
  O  O253  1  0.24158101  0.62194111  0.49060122  1
  O  O254  1  0.24451879  0.63027823  0.99575916  1
  O  O255  1  0.75009645  0.13832040  0.49466254  1
  O  O256  1  0.74435555  0.13097119  0.99112997  1
  O  O257  1  0.73600762  0.63425194  0.51022100  1
  O  O258  1  0.73605157  0.63390038  0.99229091  1
  O  O259  1  0.26469039  0.37559989  -0.00345229  1
  O  O260  1  0.24742706  0.36142494  0.50682339  1
  O  O261  1  0.25667174  0.86965401  0.00669669  1
  O  O262  1  0.26524226  0.87749364  0.49725947  1
  O  O263  1  0.75474328  0.36948898  0.00472377  1
  O  O264  1  0.74807782  0.36373929  0.50709161  1
  O  O265  1  0.75263379  0.87071536  0.00413325  1
  O  O266  1  0.75349651  0.86912437  0.50749850  1
  O  O267  1  0.13302716  0.49247700  0.24158078  1
  O  O268  1  0.13767052  0.49258126  0.75147119  1
  O  O269  1  0.13089568  0.99569576  0.24212903  1
  O  O270  1  0.13353540  0.99539853  0.74219676  1
  O  O271  1  0.61580351  0.49434469  0.23798771  1
  O  O272  1  0.63883943  0.49645215  0.74693755  1
  O  O273  1  0.62835442  1.00445620  0.24082645  1
  O  O274  1  0.63207355  0.99408979  0.73946866  1
  O  O275  1  0.36742896  -0.00618963  0.26361553  1
  O  O276  1  0.36911768  0.01269643  0.74880831  1
  O  O277  1  0.36245882  0.50143890  0.24022885  1
  O  O278  1  0.36615215  0.49835008  0.76135540  1
  O  O279  1  0.87649442  -0.00478949  0.26288056  1
  O  O280  1  0.86516211  0.00936701  0.74489749  1
  O  O281  1  0.87680673  0.48194836  0.25511836  1
  O  O282  1  0.86258677  0.51145001  0.74824112  1
  O  O283  1  0.12003558  0.36491700  0.37043539  1
  O  O284  1  0.12514497  0.36884478  0.86292782  1
  O  O285  1  0.11801633  0.86582056  0.37649747  1
  O  O286  1  0.12323198  0.86465485  0.87414349  1
  O  O287  1  0.62212385  0.37008022  0.36886667  1
  O  O288  1  0.61016814  0.38109751  0.87801528  1
  O  O289  1  0.61093569  0.88254429  0.38062804  1
  O  O290  1  0.61936457  0.87470313  0.86664521  1
  O  O291  1  0.39197410  0.11907249  0.12196784  1
  O  O292  1  0.38845285  0.12031292  0.63128783  1
  O  O293  1  0.37840969  0.63550505  0.12557815  1
  O  O294  1  0.39019241  0.62384264  0.62865054  1
  O  O295  1  0.86999589  0.14073611  0.12437773  1
  O  O296  1  0.88465059  0.12719756  0.63230257  1
  O  O297  1  0.88700643  0.63155106  0.12451711  1
  O  O298  1  0.88503357  0.62146080  0.62894038  1
  O  O299  1  0.25050250  0.24348801  0.12662621  1
  O  O300  1  0.24674553  0.25493843  0.61047577  1
  O  O301  1  0.25463593  0.75512071  0.12440479  1
  O  O302  1  0.24473671  0.75598559  0.62392540  1
  O  O303  1  0.75518486  0.26083748  0.11713073  1
  O  O304  1  0.75534481  0.25411277  0.61838906  1
  O  O305  1  0.75491914  0.75845875  0.11205390  1
  O  O306  1  0.74600159  0.76266781  0.61870113  1
  O  O307  1  0.24255342  0.24007292  0.38710117  1
  O  O308  1  0.23779170  0.25011047  0.87557686  1
  O  O309  1  0.23972671  0.74056041  0.36568708  1
  O  O310  1  0.23888624  0.74398731  0.88513929  1
  O  O311  1  0.74595079  0.24858599  0.38043980  1
  O  O312  1  0.75065925  0.23805993  0.88053552  1
  O  O313  1  0.74510607  0.75134150  0.38938293  1
  O  O314  1  0.74511339  0.74469332  0.88610162  1
  O  O315  1  0.00809311  0.11995039  0.00305238  1
  O  O316  1  -0.00109717  0.11716339  0.50921638  1
  O  O317  1  0.00215844  0.61705620  0.00746003  1
  O  O318  1  0.00617111  0.62599000  0.50849262  1
  O  O319  1  0.50953939  0.13363852  0.01340631  1
  O  O320  1  0.50122597  0.12022295  0.50558575  1
  O  O321  1  0.51075406  0.62130357  -0.00203048  1
  O  O322  1  0.50603000  0.61839064  0.50641416  1
  O  O323  1  0.50327715  0.38868050  0.49437260  1
  O  O324  1  0.49152217  0.37861479  0.99544362  1
  O  O325  1  0.49171120  0.88198675  0.49395072  1
  O  O326  1  0.49070855  0.87555971  0.99549045  1
  O  O327  1  1.00771607  0.37115128  0.48508080  1
  O  O328  1  0.99212997  0.38121286  0.99588555  1
  O  O329  1  0.99114761  0.87550555  0.49597383  1
  O  O330  1  0.98933513  0.88318124  0.99816156  1
  O  O331  1  0.50321736  0.49415814  0.38930401  1
  O  O332  1  0.49234344  0.49591500  0.87893464  1
  O  O333  1  0.49266765  0.99679119  0.37783154  1
  O  O334  1  0.49771017  0.98583431  0.87119063  1
  O  O335  1  1.00525636  0.48746447  0.37314073  1
  O  O336  1  1.00657190  0.49933991  0.88764377  1
  O  O337  1  0.99379075  0.99093912  0.38118504  1
  O  O338  1  1.00488253  0.99976837  0.88845709  1
  O  O339  1  0.00709964  -0.00219307  0.11422619  1
  O  O340  1  0.00520898  0.00505690  0.62018105  1
  O  O341  1  0.00925383  0.50512460  0.11873698  1
  O  O342  1  0.00502855  0.51582115  0.63048762  1
  O  O343  1  0.51325127  0.01281223  0.13178827  1
  O  O344  1  0.50851863  0.00839884  0.62011676  1
  O  O345  1  0.50858626  0.50243509  0.11642117  1
  O  O346  1  0.50257951  0.50344148  0.61422115  1
  O  O347  1  0.23873960  0.38415356  0.25139162  1
  O  O348  1  0.24549020  0.37915534  0.74406408  1
  O  O349  1  0.24759630  0.88545242  0.24510786  1
  O  O350  1  0.25549172  0.87911909  0.74042029  1
  O  O351  1  0.73517014  0.36853667  0.24058919  1
  O  O352  1  0.75173567  0.38086486  0.74473461  1
  O  O353  1  0.75458072  0.86644974  0.23515006  1
  O  O354  1  0.74635434  0.88283473  0.74441581  1
  O  O355  1  0.24706269  0.11102308  0.25989013  1
  O  O356  1  0.25854349  0.12130349  0.74950208  1
  O  O357  1  0.25090068  0.61520523  0.25848233  1
  O  O358  1  0.25260050  0.61606541  0.75402465  1
  O  O359  1  0.75458694  0.13374878  0.26228217  1
  O  O360  1  0.75530760  0.12080275  0.75483021  1
  O  O361  1  0.75122039  0.64085292  0.24396796  1
  O  O362  1  0.75396472  0.61951497  0.75570932  1
  O  O363  1  0.36465656  0.11580410  0.37774863  1
  O  O364  1  0.37413897  0.12335040  0.86738673  1
  O  O365  1  0.36335654  0.63120066  0.37411397  1
  O  O366  1  0.36987317  0.62000145  0.87184140  1
  O  O367  1  0.86747181  0.11567616  0.37530056  1
  O  O368  1  0.86892018  0.13006780  0.86433392  1
  O  O369  1  0.86386843  0.62806275  0.37059604  1
  O  O370  1  0.86158448  0.62860684  0.86915932  1
  O  O371  1  0.11963807  0.38260494  0.13292209  1
  O  O372  1  0.13212862  0.37515391  0.63567929  1
  O  O373  1  0.13042108  0.88491629  0.12263033  1
  O  O374  1  0.11932247  0.88523070  0.62380066  1
  O  O375  1  0.63049937  0.38206087  0.12970540  1
  O  O376  1  0.63896571  0.37363756  0.62881964  1
  O  O377  1  0.63099697  0.89342775  0.12065620  1
  O  O378  1  0.62999029  0.88272670  0.63045998  1
  O  O379  1  0.13338929  0.25572244  0.26337329  1
  O  O380  1  0.12147061  0.25555670  0.75418699  1
  O  O381  1  0.11687367  0.75079106  0.25862431  1
  O  O382  1  0.12360434  0.75073166  0.76154368  1
  O  O383  1  0.61923714  0.25794740  0.26010085  1
  O  O384  1  0.61373714  0.25131572  0.75068010  1
  O  O385  1  0.60922277  0.75816014  0.24211420  1
  O  O386  1  0.63387116  0.76363662  0.74994742  1
  O  O387  1  0.39024580  0.25823073  0.25215286  1
  O  O388  1  0.38380955  0.23953678  0.75229024  1
  O  O389  1  0.37844298  0.75054345  0.23853385  1
  O  O390  1  0.35879486  0.75967682  0.74100148  1
  O  O391  1  0.86956279  0.25564421  0.23257028  1
  O  O392  1  0.88167587  0.24131883  0.74386987  1
  O  O393  1  0.88477978  0.75548596  0.23457683  1
  O  O394  1  0.87164109  0.73597820  0.75121026  1
  O  O395  1  0.38863478  0.50423676  0.50213575  1
  O  O396  1  0.37845098  0.49340476  0.99162194  1
  O  O397  1  0.37945068  0.99307441  0.48998379  1
  O  O398  1  0.36663951  0.99094827  1.00155200  1
  O  O399  1  0.87029409  0.49223952  0.48728289  1
  O  O400  1  0.88777390  0.48929376  1.00623808  1
  O  O401  1  0.87877008  0.98927615  0.49173306  1
  O  O402  1  0.88173990  0.99334372  1.00522700  1
  O  O403  1  0.11995288  0.00629851  0.00527987  1
  O  O404  1  0.11809745  0.00193260  0.50670928  1
  O  O405  1  0.11989802  0.50291921  0.00686721  1
  O  O406  1  0.12929363  0.50834994  0.49565337  1
  O  O407  1  0.62871709  0.01318856  0.00744635  1
  O  O408  1  0.62090103  0.00197787  0.51208783  1
  O  O409  1  0.62127010  0.50697041  0.00890644  1
  O  O410  1  0.61946561  0.51198337  0.50590002  1
  O  O411  1  0.37790982  0.37711111  0.11303171  1
  O  O412  1  0.36442926  0.37483781  0.63135343  1
  O  O413  1  0.37097533  0.87205619  0.12133882  1
  O  O414  1  0.37521428  0.87615122  0.61569149  1
  O  O415  1  0.86909104  0.36632707  0.11461267  1
  O  O416  1  0.86605846  0.36818249  0.62482210  1
  O  O417  1  0.86722648  0.86887197  0.11477586  1
  O  O418  1  0.86344824  0.88213092  0.61564365  1
  O  O419  1  0.13559128  0.12827483  0.37673220  1
  O  O420  1  0.12609587  0.13282982  0.88131145  1
  O  O421  1  0.13181444  0.62985731  0.38024618  1
  O  O422  1  0.13029959  0.63034952  0.88143952  1
  O  O423  1  0.63193653  0.13397817  0.37673124  1
  O  O424  1  0.63166135  0.12126585  0.88296782  1
  O  O425  1  0.62490135  0.62540539  0.38997799  1
  O  O426  1  0.63221855  0.62660046  0.87968408  1
