# generated using pymatgen
data_V85Zn86O256
_symmetry_space_group_name_H-M   'P 1'
_cell_length_a   16.92350927
_cell_length_b   16.93592589
_cell_length_c   16.92362936
_cell_angle_alpha   89.97817276
_cell_angle_beta   89.93561766
_cell_angle_gamma   89.99158248
_symmetry_Int_Tables_number   1
_chemical_formula_structural   V85Zn86O256
_chemical_formula_sum   'V85 Zn86 O256'
_cell_volume   4850.56762017
_cell_formula_units_Z   1
loop_
 _symmetry_equiv_pos_site_id
 _symmetry_equiv_pos_as_xyz
  1  'x, y, z'
loop_
 _atom_site_type_symbol
 _atom_site_label
 _atom_site_symmetry_multiplicity
 _atom_site_fract_x
 _atom_site_fract_y
 _atom_site_fract_z
 _atom_site_occupancy
  V  V0  1  0.37382604  0.62607765  0.24213150  1
  V  V1  1  0.60619335  0.75310095  0.37736965  1
  V  V2  1  0.87314566  0.37057941  0.00713307  1
  V  V3  1  0.86580847  0.25123644  0.62964955  1
  V  V4  1  0.75523841  0.01285947  0.75095571  1
  V  V5  1  0.37934135  -0.00290768  0.37315262  1
  V  V6  1  0.74538727  0.25854783  0.49936254  1
  V  V7  1  0.86073693  0.50071458  0.87861031  1
  V  V8  1  0.87413570  0.51658960  0.36656144  1
  V  V9  1  -0.00370803  0.50448626  0.50579131  1
  V  V10  1  0.25559020  0.62481997  0.87166170  1
  V  V11  1  0.50241113  -0.00376696  0.49738074  1
  V  V12  1  0.87008629  0.01542373  0.87507362  1
  V  V13  1  0.50378372  0.24751677  0.76113642  1
  V  V14  1  0.37474174  0.12489755  0.75385492  1
  V  V15  1  0.12357190  0.37510594  0.75169288  1
  V  V16  1  0.25108354  0.25061191  0.50261967  1
  V  V17  1  0.50321949  -0.00142432  -0.00249212  1
  V  V18  1  0.12290243  0.75032319  0.87649104  1
  V  V19  1  0.63110455  -0.00493047  0.12283136  1
  V  V20  1  -0.01264955  0.87378444  0.87853410  1
  V  V21  1  0.25071537  0.87381143  0.62579503  1
  V  V22  1  -0.00464466  0.25190664  0.24187690  1
  V  V23  1  0.24180007  -0.00419307  0.25224620  1
  V  V24  1  0.87618920  0.74141497  0.62403715  1
  V  V25  1  0.62517240  -0.00039762  0.62564302  1
  V  V26  1  0.12223566  0.12689145  0.50224619  1
  V  V27  1  0.12355407  0.00089166  0.62638440  1
  V  V28  1  0.62923865  0.73832352  0.87268748  1
  V  V29  1  0.24874414  0.00065497  0.75262113  1
  V  V30  1  0.62981892  0.12902971  -0.01113149  1
  V  V31  1  0.87587778  0.00154930  0.37534112  1
  V  V32  1  0.12212507  0.50841964  0.12825193  1
  V  V33  1  0.75145472  0.87328126  0.62700545  1
  V  V34  1  0.87602350  0.12811042  0.23986598  1
  V  V35  1  0.88207414  0.73583171  0.12311653  1
  V  V36  1  0.00014078  0.74211438  0.74609327  1
  V  V37  1  0.11924427  0.62866765  0.00305233  1
  V  V38  1  0.25809388  0.50200153  0.74839629  1
  V  V39  1  0.75530190  0.74613725  -0.00452156  1
  V  V40  1  0.37982716  0.87087972  0.49930828  1
  V  V41  1  0.41013651  0.28123643  0.14147222  1
  V  V42  1  0.87055954  0.62205487  0.75435564  1
  V  V43  1  0.74781712  0.12632526  0.37630863  1
  V  V44  1  0.12233849  0.25228676  0.37703458  1
  V  V45  1  0.12500402  0.38189321  0.25187737  1
  V  V46  1  0.74688184  0.52080167  0.25118037  1
  V  V47  1  0.75272044  -0.00177972  0.24935705  1
  V  V48  1  0.61212139  0.25828794  0.35943575  1
  V  V49  1  0.12533155  0.00460941  0.11991334  1
  V  V50  1  0.87746546  0.87541700  0.50027400  1
  V  V51  1  0.00481327  0.87668694  0.36561170  1
  V  V52  1  0.49261291  0.76026713  0.23823994  1
  V  V53  1  0.00054709  0.00375679  -0.00182882  1
  V  V54  1  -0.00217997  0.73969344  0.24640013  1
  V  V55  1  0.75083858  0.74512964  0.48818011  1
  V  V56  1  0.12387670  0.62569845  0.50177360  1
  V  V57  1  0.25746387  0.74914406  0.00451990  1
  V  V58  1  0.50783510  0.37430313  0.87901469  1
  V  V59  1  0.12230078  0.87446430  0.75130595  1
  V  V60  1  0.24209645  0.37749236  0.12392228  1
  V  V61  1  0.25035661  0.61189515  0.37153947  1
  V  V62  1  -0.00322727  0.50364960  0.00166748  1
  V  V63  1  0.74789875  0.36642550  0.13898920  1
  V  V64  1  0.24746632  0.24517307  0.00895685  1
  V  V65  1  0.25038691  0.12535992  0.37415554  1
  V  V66  1  0.50209811  0.50368980  0.00164450  1
  V  V67  1  -0.00331986  0.24361968  0.75006888  1
  V  V68  1  0.76622973  0.87444218  0.12012706  1
  V  V69  1  0.37378296  -0.00037223  0.87768985  1
  V  V70  1  0.00031269  0.00039285  0.50042953  1
  V  V71  1  -0.00710347  0.37581809  0.37663043  1
  V  V72  1  0.50175612  0.61538635  0.62742274  1
  V  V73  1  0.37800521  0.25157003  0.62715680  1
  V  V74  1  0.49872982  0.11870868  0.13130451  1
  V  V75  1  0.50372705  0.87187739  0.87128189  1
  V  V76  1  0.39231955  0.49548387  0.37251746  1
  V  V77  1  0.12510848  0.24495210  0.88106355  1
  V  V78  1  0.24950329  0.87132881  0.12964823  1
  V  V79  1  0.74760560  0.24946371  -0.01071068  1
  V  V80  1  0.12035321  0.50640483  0.62847544  1
  V  V81  1  0.63073213  0.36927907  0.73813734  1
  V  V82  1  0.25011984  0.74910418  0.49879879  1
  V  V83  1  0.12801152  0.75353651  0.36692605  1
  V  V84  1  0.74429416  0.49851115  0.73424507  1
  Zn  Zn85  1  0.52425737  0.48572785  0.50675310  1
  Zn  Zn86  1  0.38043067  0.37212268  0.48805380  1
  Zn  Zn87  1  0.24635022  0.12277583  0.88414492  1
  Zn  Zn88  1  0.49509895  0.74014879  0.75055703  1
  Zn  Zn89  1  0.62358592  0.87656912  0.25356168  1
  Zn  Zn90  1  -0.00661257  0.12333186  0.62868464  1
  Zn  Zn91  1  0.37911425  0.49997826  0.87182539  1
  Zn  Zn92  1  -0.00273161  0.37517822  0.87651296  1
  Zn  Zn93  1  0.50277687  0.63109492  0.12136029  1
  Zn  Zn94  1  0.50049064  0.12262092  0.62707354  1
  Zn  Zn95  1  0.86844516  0.38050334  0.50542141  1
  Zn  Zn96  1  0.62822870  0.61792522  0.49865723  1
  Zn  Zn97  1  0.37362972  0.73987975  0.63687335  1
  Zn  Zn98  1  0.00352191  0.13184165  0.11512993  1
  Zn  Zn99  1  0.63101217  0.62189203  0.00166068  1
  Zn  Zn100  1  0.37790976  0.87029536  0.00592514  1
  Zn  Zn101  1  0.62329878  0.12571076  0.49844478  1
  Zn  Zn102  1  0.62791960  0.87286794  0.75184690  1
  Zn  Zn103  1  0.37551869  0.12827946  0.24891763  1
  Zn  Zn104  1  0.24921611  0.37660894  0.62357273  1
  Zn  Zn105  1  0.62400653  0.50322989  0.13290444  1
  Zn  Zn106  1  0.37246133  0.37666976  -0.00503374  1
  Zn  Zn107  1  0.18395869  0.18704341  0.19133226  1
  Zn  Zn108  1  0.18709309  0.18638870  0.69022106  1
  Zn  Zn109  1  0.18770363  0.68750904  0.18916697  1
  Zn  Zn110  1  0.18905865  0.68599157  0.68714312  1
  Zn  Zn111  1  0.68749466  0.18430580  0.18279430  1
  Zn  Zn112  1  0.68529617  0.18821169  0.68727467  1
  Zn  Zn113  1  0.68423162  0.69131485  0.18651522  1
  Zn  Zn114  1  0.68320003  0.68404318  0.68601206  1
  Zn  Zn115  1  0.31022286  0.31518787  0.30827011  1
  Zn  Zn116  1  0.31237833  0.31444335  0.81599241  1
  Zn  Zn117  1  0.31367054  0.81350231  0.31339861  1
  Zn  Zn118  1  0.31325192  0.81304528  0.81624497  1
  Zn  Zn119  1  0.81180618  0.31094833  0.31612086  1
  Zn  Zn120  1  0.81264406  0.31467631  0.81424144  1
  Zn  Zn121  1  0.81697234  0.81372099  0.30690389  1
  Zn  Zn122  1  0.81051796  0.81294573  0.81083783  1
  Zn  Zn123  1  0.18646060  0.43600012  0.44122821  1
  Zn  Zn124  1  0.18563603  0.43680928  0.93708673  1
  Zn  Zn125  1  0.18818251  0.93657228  0.43824844  1
  Zn  Zn126  1  0.18354239  0.93437942  0.94112617  1
  Zn  Zn127  1  0.68510040  0.43497650  0.42330920  1
  Zn  Zn128  1  0.68374046  0.43230920  0.93781609  1
  Zn  Zn129  1  0.68740661  0.93242843  0.43735565  1
  Zn  Zn130  1  0.69222421  0.93220183  0.93751333  1
  Zn  Zn131  1  0.31346438  0.05904702  0.06393879  1
  Zn  Zn132  1  0.31401396  0.06323559  0.56382868  1
  Zn  Zn133  1  0.31079877  0.55927440  0.05988125  1
  Zn  Zn134  1  0.31790569  0.56063077  0.56037012  1
  Zn  Zn135  1  0.81622324  0.06372341  0.05592544  1
  Zn  Zn136  1  0.81241018  0.06826796  0.56402014  1
  Zn  Zn137  1  0.80984644  0.56316895  0.06695699  1
  Zn  Zn138  1  0.81125454  0.56318677  0.56047703  1
  Zn  Zn139  1  0.43514895  0.44904585  0.18519681  1
  Zn  Zn140  1  0.44193076  0.43218557  0.68410597  1
  Zn  Zn141  1  0.43241054  0.93792917  0.18703075  1
  Zn  Zn142  1  0.43685831  0.93244086  0.68757108  1
  Zn  Zn143  1  0.93572717  0.44194729  0.18587059  1
  Zn  Zn144  1  0.93534596  0.43294190  0.68800043  1
  Zn  Zn145  1  0.94172425  0.93796606  0.18745836  1
  Zn  Zn146  1  0.93592875  0.93551943  0.69092218  1
  Zn  Zn147  1  0.06354431  0.06523174  0.31045990  1
  Zn  Zn148  1  0.06095533  0.06439051  0.81565313  1
  Zn  Zn149  1  0.06164560  0.56405613  0.31586838  1
  Zn  Zn150  1  0.06051221  0.56233853  0.81743930  1
  Zn  Zn151  1  0.56528947  0.06066494  0.31293395  1
  Zn  Zn152  1  0.56553539  0.06007964  0.81057528  1
  Zn  Zn153  1  0.56578406  0.57517396  0.31388234  1
  Zn  Zn154  1  0.56423564  0.55817304  0.80899671  1
  Zn  Zn155  1  0.43937622  0.18310093  0.43890891  1
  Zn  Zn156  1  0.43385663  0.19009137  0.94974809  1
  Zn  Zn157  1  0.43745905  0.67828689  0.44405157  1
  Zn  Zn158  1  0.43839675  0.68562338  0.93428478  1
  Zn  Zn159  1  0.93252077  0.18937076  0.43948976  1
  Zn  Zn160  1  0.93543320  0.19048843  0.93884906  1
  Zn  Zn161  1  0.94136821  0.68911414  0.43798533  1
  Zn  Zn162  1  0.93379072  0.68700900  0.93769239  1
  Zn  Zn163  1  0.06257118  0.31580345  0.06087754  1
  Zn  Zn164  1  0.05803715  0.31671258  0.56670384  1
  Zn  Zn165  1  0.06403601  0.81962174  0.06402062  1
  Zn  Zn166  1  0.06184279  0.81203965  0.56129880  1
  Zn  Zn167  1  0.56682652  0.31916397  0.07321016  1
  Zn  Zn168  1  0.56024174  0.30855530  0.55815572  1
  Zn  Zn169  1  0.56978549  0.81317630  0.05888345  1
  Zn  Zn170  1  0.56185456  0.80694354  0.56666104  1
  O  O171  1  0.12063434  0.11043677  0.13273469  1
  O  O172  1  0.12201395  0.11870613  0.61921285  1
  O  O173  1  0.12682497  0.61962312  0.11697270  1
  O  O174  1  0.12612171  0.61331833  0.62047375  1
  O  O175  1  0.61967213  0.11040348  0.11754390  1
  O  O176  1  0.62502560  0.11069846  0.62198340  1
  O  O177  1  0.62320148  0.62224531  0.12139840  1
  O  O178  1  0.60982975  0.63211153  0.61731685  1
  O  O179  1  0.37236517  0.39121289  0.36579692  1
  O  O180  1  0.38894763  0.37642565  0.87526877  1
  O  O181  1  0.36772518  0.88835848  0.38677955  1
  O  O182  1  0.38236436  0.88648258  0.88109836  1
  O  O183  1  0.88573921  0.38115617  0.37685248  1
  O  O184  1  0.87508168  0.38366418  0.88733324  1
  O  O185  1  0.88375374  0.88151549  0.38012796  1
  O  O186  1  0.88556385  0.87846901  0.87053731  1
  O  O187  1  0.25377049  0.00484976  0.37010782  1
  O  O188  1  0.25720871  -0.00020599  0.87372271  1
  O  O189  1  0.24310850  0.51073891  0.37332155  1
  O  O190  1  0.24815726  0.50745660  0.86749243  1
  O  O191  1  0.75591921  0.00459877  0.37102808  1
  O  O192  1  0.76298266  -0.00632197  0.86743056  1
  O  O193  1  0.76645932  0.49569431  0.36039653  1
  O  O194  1  0.75869041  0.49547400  0.86937781  1
  O  O195  1  0.23081945  0.49340284  0.11678341  1
  O  O196  1  0.24166577  0.49942969  0.63134694  1
  O  O197  1  0.24357855  0.99684150  0.13257712  1
  O  O198  1  0.24387687  0.99493135  0.63115479  1
  O  O199  1  0.75462540  0.49507835  0.14192701  1
  O  O200  1  0.75898645  0.49323959  0.63651884  1
  O  O201  1  0.74785981  0.99413078  0.12548047  1
  O  O202  1  0.74697614  0.99365583  0.62901122  1
  O  O203  1  0.00404170  0.37039985  0.25540554  1
  O  O204  1  0.00996737  0.36782621  0.75266510  1
  O  O205  1  -0.00141903  0.86917713  0.26202875  1
  O  O206  1  0.00369485  0.86364035  0.75684546  1
  O  O207  1  0.48766079  0.34806120  0.17166197  1
  O  O208  1  0.51064786  0.36702387  0.75528429  1
  O  O209  1  0.49840434  0.86437140  0.24789821  1
  O  O210  1  0.50363839  0.87869009  0.76414938  1
  O  O211  1  0.49945910  0.11543261  0.23490137  1
  O  O212  1  0.49420199  0.13028216  0.75126688  1
  O  O213  1  0.49125682  0.63950176  0.24778176  1
  O  O214  1  0.50446583  0.62160700  0.73555452  1
  O  O215  1  0.99234075  0.13533508  0.25214755  1
  O  O216  1  1.00375673  0.13988703  0.74948540  1
  O  O217  1  1.00303042  0.64040978  0.25390200  1
  O  O218  1  0.99286161  0.63602405  0.75461746  1
  O  O219  1  0.37202376  0.25937296  0.02680705  1
  O  O220  1  0.36758408  0.24664145  0.50829175  1
  O  O221  1  0.36105107  0.74940664  -0.00424534  1
  O  O222  1  0.36820280  0.75947191  0.49570663  1
  O  O223  1  0.86339031  0.25847031  -0.00040479  1
  O  O224  1  0.86582413  0.25365358  0.50886155  1
  O  O225  1  0.87257247  0.75029239  0.01228987  1
  O  O226  1  0.87022448  0.75345777  0.50667287  1
  O  O227  1  0.13006845  0.24834358  0.49719627  1
  O  O228  1  0.13213370  0.25421982  0.99250817  1
  O  O229  1  0.12847292  0.74426598  0.49250976  1
  O  O230  1  0.12890421  0.74410641  0.99680793  1
  O  O231  1  0.63174441  0.24447872  0.49253373  1
  O  O232  1  0.63808002  0.24363807  1.00693670  1
  O  O233  1  0.63470493  0.75575312  0.48900836  1
  O  O234  1  0.63565545  0.74767625  0.99119979  1
  O  O235  1  0.50475051  0.22111964  0.10847265  1
  O  O236  1  0.49246337  0.24444507  0.63840975  1
  O  O237  1  0.50099916  0.75369871  0.13478606  1
  O  O238  1  0.49459271  0.74074587  0.62751940  1
  O  O239  1  1.00524237  0.25008142  0.13754243  1
  O  O240  1  0.99211682  0.24853183  0.63326911  1
  O  O241  1  0.99016900  0.75885060  0.13058890  1
  O  O242  1  0.98927840  0.75535495  0.63390587  1
  O  O243  1  0.00311052  0.25945071  0.37169246  1
  O  O244  1  0.00578708  0.25318942  0.86958342  1
  O  O245  1  0.00596288  0.75768039  0.36887125  1
  O  O246  1  0.00253356  0.75653681  0.86945279  1
  O  O247  1  0.51289084  0.23985298  0.37468022  1
  O  O248  1  0.49247796  0.25316165  0.86689303  1
  O  O249  1  0.50404243  0.75200635  0.37291964  1
  O  O250  1  0.50930158  0.75690273  0.87555559  1
  O  O251  1  0.24446926  0.13417685  0.49583396  1
  O  O252  1  0.25842279  0.14056106  1.00357717  1
  O  O253  1  0.24465512  0.63094365  0.49211667  1
  O  O254  1  0.23956408  0.63072238  0.99457649  1
  O  O255  1  0.74975535  0.13326021  0.49018171  1
  O  O256  1  0.74493740  0.14072355  1.00814067  1
  O  O257  1  0.75032387  0.64305006  0.50589388  1
  O  O258  1  0.75221126  0.63993694  1.00358865  1
  O  O259  1  0.24859799  0.36711087  0.00751174  1
  O  O260  1  0.25327506  0.36152331  0.50003962  1
  O  O261  1  0.24957129  0.86429401  0.00615155  1
  O  O262  1  0.25578910  0.86885000  0.50595315  1
  O  O263  1  0.75399656  0.36605453  0.00757745  1
  O  O264  1  0.75158774  0.36131332  0.48986358  1
  O  O265  1  0.74762408  0.86181577  0.01066137  1
  O  O266  1  0.75820777  0.86887711  0.51009712  1
  O  O267  1  0.11404920  0.49412273  0.24084464  1
  O  O268  1  0.12609482  0.49443323  0.74523583  1
  O  O269  1  0.13617146  1.00093683  0.24692209  1
  O  O270  1  0.12803189  0.99572211  0.74691807  1
  O  O271  1  0.64273161  0.50822842  0.25646847  1
  O  O272  1  0.63848497  0.48875045  0.74980483  1
  O  O273  1  0.63424173  0.99761271  0.24132889  1
  O  O274  1  0.63464458  0.99532217  0.74230756  1
  O  O275  1  0.36474261  0.00103910  0.25947750  1
  O  O276  1  0.36995666  0.00351883  0.75808469  1
  O  O277  1  0.37791778  0.51156812  0.26162930  1
  O  O278  1  0.36023414  0.49162497  0.74886544  1
  O  O279  1  0.87329105  0.00719980  0.25658194  1
  O  O280  1  0.86961219  -0.00296517  0.76278934  1
  O  O281  1  0.87338515  0.50354528  0.26084959  1
  O  O282  1  0.86752490  0.50288851  0.75661435  1
  O  O283  1  0.11362987  0.37491127  0.36945327  1
  O  O284  1  0.12200850  0.36601539  0.86802207  1
  O  O285  1  0.11644345  0.86556374  0.38224574  1
  O  O286  1  0.11616294  0.86906999  0.86824339  1
  O  O287  1  0.62438571  0.35758273  0.36548676  1
  O  O288  1  0.61291886  0.37490199  0.86490218  1
  O  O289  1  0.63270416  0.85783545  0.37015886  1
  O  O290  1  0.61792908  0.86760160  0.87482326  1
  O  O291  1  0.39282937  0.11393865  0.12692865  1
  O  O292  1  0.37447928  0.13394884  0.63426414  1
  O  O293  1  0.37062416  0.62026536  0.13896772  1
  O  O294  1  0.39071849  0.62615564  0.61594473  1
  O  O295  1  0.88008686  0.11937325  0.13702450  1
  O  O296  1  0.87775824  0.14355445  0.62191110  1
  O  O297  1  0.88123370  0.63744110  0.12297914  1
  O  O298  1  0.87244124  0.63491808  0.63487506  1
  O  O299  1  0.23406099  0.26227990  0.12000977  1
  O  O300  1  0.25504184  0.24929489  0.61769833  1
  O  O301  1  0.24200000  0.75902830  0.11672206  1
  O  O302  1  0.25115696  0.75462322  0.61687572  1
  O  O303  1  0.74967848  0.26328907  0.12293362  1
  O  O304  1  0.75773200  0.24708018  0.61734988  1
  O  O305  1  0.76354883  0.75630438  0.12212670  1
  O  O306  1  0.75685761  0.75732226  0.61971719  1
  O  O307  1  0.24514407  0.24600325  0.38143561  1
  O  O308  1  0.24391435  0.25013102  0.88697941  1
  O  O309  1  0.24254985  0.74673583  0.38113288  1
  O  O310  1  0.24128573  0.74466227  0.88262802  1
  O  O311  1  0.74464327  0.24138092  0.38075923  1
  O  O312  1  0.74947764  0.25371939  0.89006553  1
  O  O313  1  0.75702520  0.75678829  0.38758752  1
  O  O314  1  0.74330698  0.75618188  0.88314285  1
  O  O315  1  -0.00624093  0.11170197  -0.00034659  1
  O  O316  1  0.00519824  0.11797847  0.49903100  1
  O  O317  1  0.01103390  0.61988411  -0.00580309  1
  O  O318  1  0.00774991  0.61305520  0.49521114  1
  O  O319  1  0.50672391  0.11108140  0.00396783  1
  O  O320  1  0.50033726  0.10867041  0.50596210  1
  O  O321  1  0.50138413  0.61747959  0.00031042  1
  O  O322  1  0.50623061  0.61655678  0.50810777  1
  O  O323  1  0.49064369  0.37767438  0.50863875  1
  O  O324  1  0.50160704  0.38112064  0.99402014  1
  O  O325  1  0.49082542  0.88432294  0.50580889  1
  O  O326  1  0.50106084  0.88352545  0.99223256  1
  O  O327  1  0.99999652  0.38756865  0.49202684  1
  O  O328  1  0.99002763  0.38294309  1.00014411  1
  O  O329  1  0.99512977  0.88047597  0.49136611  1
  O  O330  1  1.00609265  0.88790871  0.98812763  1
  O  O331  1  0.49317266  0.50359133  0.37392046  1
  O  O332  1  0.49900237  0.49250529  0.88018288  1
  O  O333  1  0.49161513  1.00193796  0.38293469  1
  O  O334  1  0.49553013  0.99361579  0.88079108  1
  O  O335  1  0.99024446  0.49541607  0.38009638  1
  O  O336  1  0.99045258  0.49811594  0.88656852  1
  O  O337  1  0.99760681  0.99397042  0.37848799  1
  O  O338  1  0.99039989  0.99490039  0.87729768  1
  O  O339  1  0.00749418  -0.00166137  0.11516736  1
  O  O340  1  0.00442562  0.00019339  0.62092455  1
  O  O341  1  0.00676943  0.49820494  0.11128959  1
  O  O342  1  0.00498337  0.49629616  0.61686359  1
  O  O343  1  0.50900039  0.00081637  0.11727899  1
  O  O344  1  0.50953418  -0.00235801  0.62060465  1
  O  O345  1  0.50387403  0.50806684  0.11565760  1
  O  O346  1  0.49765088  0.50934045  0.62358033  1
  O  O347  1  0.23053833  0.37172752  0.24380015  1
  O  O348  1  0.23707500  0.38177684  0.75100508  1
  O  O349  1  0.25218970  0.88286519  0.24402428  1
  O  O350  1  0.24187763  0.88161847  0.74714459  1
  O  O351  1  0.76021514  0.37952568  0.24005002  1
  O  O352  1  0.73850673  0.38195042  0.75427564  1
  O  O353  1  0.75058262  0.88189832  0.23909678  1
  O  O354  1  0.75267717  0.88174278  0.73641427  1
  O  O355  1  0.25187935  0.11790532  0.25770188  1
  O  O356  1  0.25690067  0.11789175  0.75594220  1
  O  O357  1  0.26018828  0.63635549  0.26207070  1
  O  O358  1  0.24099620  0.61429768  0.76003269  1
  O  O359  1  0.75850205  0.11872584  0.25389475  1
  O  O360  1  0.74853029  0.11200184  0.74586570  1
  O  O361  1  0.75480160  0.61912687  0.24782155  1
  O  O362  1  0.75526133  0.60862957  0.74512960  1
  O  O363  1  0.36824352  0.11384671  0.37450046  1
  O  O364  1  0.37530729  0.11358254  0.87472082  1
  O  O365  1  0.36815645  0.61435954  0.36954507  1
  O  O366  1  0.35921217  0.62195423  0.87771662  1
  O  O367  1  0.86527994  0.12050297  0.36850712  1
  O  O368  1  0.87454932  0.11393857  0.87356435  1
  O  O369  1  0.87800365  0.61474387  0.37684458  1
  O  O370  1  0.87644573  0.61780402  0.86238839  1
  O  O371  1  0.12513982  0.38528720  0.13231218  1
  O  O372  1  0.12658959  0.38623264  0.63306438  1
  O  O373  1  0.13745970  0.88954002  0.12235755  1
  O  O374  1  0.12982453  0.87998430  0.63092239  1
  O  O375  1  0.64625952  0.38535162  0.12501734  1
  O  O376  1  0.62349313  0.36779122  0.63979802  1
  O  O377  1  0.63409072  0.88522494  0.12586395  1
  O  O378  1  0.63444848  0.88322932  0.62449767  1
  O  O379  1  0.11474762  0.25770049  0.25971170  1
  O  O380  1  0.11930123  0.25831492  0.75481668  1
  O  O381  1  0.11925640  0.75024216  0.26166376  1
  O  O382  1  0.11626666  0.75269470  0.75343034  1
  O  O383  1  0.62677324  0.23955075  0.26098002  1
  O  O384  1  0.61842448  0.25791338  0.75077830  1
  O  O385  1  0.60953330  0.75339567  0.25853041  1
  O  O386  1  0.62471741  0.75369931  0.75912331  1
  O  O387  1  0.36806601  0.24731022  0.23160577  1
  O  O388  1  0.37951220  0.24329436  0.74706241  1
  O  O389  1  0.38774136  0.74515877  0.25694382  1
  O  O390  1  0.38054343  0.75786576  0.74969087  1
  O  O391  1  0.88459693  0.24101954  0.25713136  1
  O  O392  1  0.88089197  0.25695382  0.74056981  1
  O  O393  1  0.88384180  0.75418031  0.23434827  1
  O  O394  1  0.87809154  0.74100555  0.74466599  1
  O  O395  1  0.36722511  0.49587033  0.47761809  1
  O  O396  1  0.38604255  0.49647150  0.99752735  1
  O  O397  1  0.38086450  0.99367979  0.49481926  1
  O  O398  1  0.38505428  0.99828669  0.99300735  1
  O  O399  1  0.87981455  0.50026910  0.49044933  1
  O  O400  1  0.87794345  0.49737523  0.99559599  1
  O  O401  1  0.88073790  0.99657370  0.49561560  1
  O  O402  1  0.87988254  0.99921150  0.98375319  1
  O  O403  1  0.11675164  0.00239633  0.00664451  1
  O  O404  1  0.11983595  0.00517461  0.50609350  1
  O  O405  1  0.11562693  0.50799237  0.00347140  1
  O  O406  1  0.11773468  0.50418963  0.50863077  1
  O  O407  1  0.62255187  0.00339674  0.00466581  1
  O  O408  1  0.61829992  -0.00243934  0.50560319  1
  O  O409  1  0.61464538  0.50164211  -0.00149211  1
  O  O410  1  0.63498383  0.50515624  0.48973249  1
  O  O411  1  0.35038376  0.38240128  0.12931176  1
  O  O412  1  0.36860255  0.35891295  0.62998971  1
  O  O413  1  0.35693743  0.88271631  0.12061037  1
  O  O414  1  0.36632920  0.87680311  0.61375361  1
  O  O415  1  0.86424648  0.38207239  0.11410770  1
  O  O416  1  0.87946306  0.35831463  0.62069051  1
  O  O417  1  0.86842627  0.87416980  0.12460188  1
  O  O418  1  0.87039747  0.86535882  0.62036308  1
  O  O419  1  0.13022474  0.13204902  0.38213450  1
  O  O420  1  0.12816547  0.14010773  0.87104938  1
  O  O421  1  0.13187841  0.63321500  0.38018160  1
  O  O422  1  0.13157740  0.63096536  0.88299061  1
  O  O423  1  0.63862486  0.12380299  0.37586965  1
  O  O424  1  0.62340974  0.11928037  0.88970533  1
  O  O425  1  0.62807753  0.64984910  0.37736523  1
  O  O426  1  0.62309548  0.63573673  0.87521664  1
