# generated using pymatgen
data_V85Zn86O256
_symmetry_space_group_name_H-M   'P 1'
_cell_length_a   16.96371199
_cell_length_b   16.94912770
_cell_length_c   16.95504344
_cell_angle_alpha   89.95952439
_cell_angle_beta   90.01295171
_cell_angle_gamma   90.05805252
_symmetry_Int_Tables_number   1
_chemical_formula_structural   V85Zn86O256
_chemical_formula_sum   'V85 Zn86 O256'
_cell_volume   4874.91229438
_cell_formula_units_Z   1
loop_
 _symmetry_equiv_pos_site_id
 _symmetry_equiv_pos_as_xyz
  1  'x, y, z'
loop_
 _atom_site_type_symbol
 _atom_site_label
 _atom_site_symmetry_multiplicity
 _atom_site_fract_x
 _atom_site_fract_y
 _atom_site_fract_z
 _atom_site_occupancy
  V  V0  1  0.37584050  0.51058692  0.87137703  1
  V  V1  1  0.27469353  0.65346532  0.35268608  1
  V  V2  1  0.87374643  0.37493515  -0.00012982  1
  V  V3  1  0.75291192  -0.00279235  0.75341319  1
  V  V4  1  0.62166843  0.87175152  0.75212922  1
  V  V5  1  0.87541095  0.12197473  0.24729772  1
  V  V6  1  0.24720548  0.11515529  0.87412596  1
  V  V7  1  0.87466279  0.62362670  0.74716009  1
  V  V8  1  0.50551073  0.37687224  0.86903802  1
  V  V9  1  0.50702901  0.25535048  0.74529355  1
  V  V10  1  0.12605941  0.37438148  0.74929847  1
  V  V11  1  0.61797955  0.00352632  0.12160208  1
  V  V12  1  0.12138441  0.88112212  0.24553038  1
  V  V13  1  0.37305030  0.37323499  -0.00703781  1
  V  V14  1  0.38190339  0.12931100  0.24779215  1
  V  V15  1  0.74907631  0.24993257  -0.00142002  1
  V  V16  1  0.74443804  0.87324266  0.12560038  1
  V  V17  1  0.25110209  0.37300264  0.12278238  1
  V  V18  1  0.62129510  0.49177989  0.14477543  1
  V  V19  1  0.37583700  0.87236659  0.50587897  1
  V  V20  1  0.12482611  0.37376551  0.24968877  1
  V  V21  1  0.88121558  0.39240976  0.49971967  1
  V  V22  1  0.75115705  0.87332746  0.62067923  1
  V  V23  1  0.37266889  0.11899463  0.74864117  1
  V  V24  1  0.37473590  0.25621494  0.62081284  1
  V  V25  1  0.50198105  0.12388790  0.62286117  1
  V  V26  1  0.11830099  0.50404428  0.62067401  1
  V  V27  1  0.50084003  0.62391991  0.62886244  1
  V  V28  1  0.36367562  0.49053233  0.40156041  1
  V  V29  1  -0.00095735  0.24918410  0.25339679  1
  V  V30  1  0.61696372  0.12523602  -0.00333180  1
  V  V31  1  0.87306340  0.88640283  -0.00051370  1
  V  V32  1  0.61884751  0.49776599  0.62054932  1
  V  V33  1  0.01364136  0.11978183  0.12446204  1
  V  V34  1  0.62489715  0.61284938  0.00255461  1
  V  V35  1  0.25270079  0.50431528  0.74790680  1
  V  V36  1  0.87127769  0.75017354  0.61653188  1
  V  V37  1  0.87636023  0.24903958  0.61922896  1
  V  V38  1  0.12062308  0.62471129  0.00060073  1
  V  V39  1  0.62228710  0.25365465  0.36924953  1
  V  V40  1  0.01408067  0.00326005  0.00110327  1
  V  V41  1  0.62251428  0.62440786  0.48863824  1
  V  V42  1  0.74503220  0.74919603  0.48607604  1
  V  V43  1  0.25090152  0.12644099  0.37383979  1
  V  V44  1  0.25172027  0.25256185  0.50110230  1
  V  V45  1  0.74327681  0.49602142  0.74723518  1
  V  V46  1  0.50731114  0.85880407  0.35996167  1
  V  V47  1  0.24853441  0.62756054  0.86856028  1
  V  V48  1  0.12378503  0.62212571  0.49686676  1
  V  V49  1  0.12618790  0.11942384  0.50078703  1
  V  V50  1  0.87745539  0.74398892  0.12217501  1
  V  V51  1  -0.00246547  0.74520021  0.24811438  1
  V  V52  1  -0.00306256  0.75208129  0.75002077  1
  V  V53  1  0.24792047  0.86963937  0.12280287  1
  V  V54  1  0.25574081  0.50003453  0.25087122  1
  V  V55  1  0.24659169  0.00425337  0.24017663  1
  V  V56  1  0.12479980  0.75875834  0.87390064  1
  V  V57  1  -0.00009056  0.37242681  0.87460914  1
  V  V58  1  0.74338049  -0.00510754  0.24937460  1
  V  V59  1  0.00420910  0.11773169  0.62621883  1
  V  V60  1  0.81518588  0.56106120  0.31242464  1
  V  V61  1  0.50424084  -0.00340236  0.49635333  1
  V  V62  1  0.74876886  0.37640629  0.13916147  1
  V  V63  1  0.37651953  0.00045572  0.37436983  1
  V  V64  1  0.74898200  0.12588239  0.37610825  1
  V  V65  1  0.75046630  0.62430235  0.87424691  1
  V  V66  1  0.12456967  0.24199007  0.87465525  1
  V  V67  1  0.25168148  0.37640022  0.62123169  1
  V  V68  1  0.62183734  0.74793293  0.88431555  1
  V  V69  1  0.50463153  0.38807239  0.38466811  1
  V  V70  1  0.87357408  0.12187065  0.75025595  1
  V  V71  1  -0.00693056  0.88058082  0.87184071  1
  V  V72  1  0.38956588  0.00246850  0.87977586  1
  V  V73  1  -0.00116911  0.39087539  0.37869860  1
  V  V74  1  0.75361556  0.12090667  0.87557998  1
  V  V75  1  0.12408994  0.75176333  0.37466337  1
  V  V76  1  -0.00281659  -0.00613799  0.50103706  1
  V  V77  1  0.87301617  -0.00908062  0.37780513  1
  V  V78  1  0.87582223  0.49902435  0.87285212  1
  V  V79  1  0.38050639  0.74831017  0.63462746  1
  V  V80  1  0.23144010  0.76957296  0.52439864  1
  V  V81  1  0.74575134  0.37386544  0.62417352  1
  V  V82  1  0.24526108  0.24364876  -0.00256426  1
  V  V83  1  0.38525898  0.87706944  0.00879381  1
  V  V84  1  0.00123015  0.24701738  0.74987708  1
  Zn  Zn85  1  0.37865465  0.25117888  0.12444863  1
  Zn  Zn86  1  0.49914257  0.13021028  0.12120839  1
  Zn  Zn87  1  0.50432124  0.26654861  0.24571839  1
  Zn  Zn88  1  0.12165834  0.49829342  0.12261768  1
  Zn  Zn89  1  0.25079787  0.74792506  0.00402354  1
  Zn  Zn90  1  0.62810806  0.25480895  0.86790651  1
  Zn  Zn91  1  0.49859788  0.49662759  0.00594472  1
  Zn  Zn92  1  0.87543635  0.24818186  0.12486226  1
  Zn  Zn93  1  -0.00296216  0.62185467  0.61626585  1
  Zn  Zn94  1  0.75074697  0.25292378  0.49645837  1
  Zn  Zn95  1  0.12481636  0.25071259  0.37789991  1
  Zn  Zn96  1  0.62591262  -0.00129848  0.62416616  1
  Zn  Zn97  1  0.54187644  0.66752030  0.16777871  1
  Zn  Zn98  1  -0.00111805  0.49997264  0.00091145  1
  Zn  Zn99  1  0.62559286  0.12617617  0.49798776  1
  Zn  Zn100  1  0.75281863  0.74896220  -0.00158385  1
  Zn  Zn101  1  0.50578862  0.87667652  0.88529589  1
  Zn  Zn102  1  0.38609573  0.69650556  0.18500512  1
  Zn  Zn103  1  -0.00592178  0.61777085  0.12655361  1
  Zn  Zn104  1  0.49713029  0.74195517  0.76172154  1
  Zn  Zn105  1  -0.00345282  0.87311379  0.37764770  1
  Zn  Zn106  1  0.19665647  -0.07355115  0.68433260  1
  Zn  Zn107  1  0.18930721  0.19027828  0.18777668  1
  Zn  Zn108  1  0.18754916  0.08737611  0.68869628  1
  Zn  Zn109  1  0.18649588  0.69025629  0.18628877  1
  Zn  Zn110  1  0.19625012  0.75938438  0.69855372  1
  Zn  Zn111  1  0.68684498  0.18942445  0.18757985  1
  Zn  Zn112  1  0.68690835  0.18684668  0.68496619  1
  Zn  Zn113  1  0.69896875  0.69050269  0.19411792  1
  Zn  Zn114  1  0.68409398  0.68691274  0.68783268  1
  Zn  Zn115  1  0.31812245  0.31608546  0.31378999  1
  Zn  Zn116  1  0.31416725  0.30992336  0.80773172  1
  Zn  Zn117  1  0.30941931  0.82492374  0.32058719  1
  Zn  Zn118  1  0.31845236  0.81679997  0.82024752  1
  Zn  Zn119  1  0.81832291  0.31320481  0.31801952  1
  Zn  Zn120  1  0.81238502  0.31041934  0.80906580  1
  Zn  Zn121  1  0.81352973  0.81073144  0.30675388  1
  Zn  Zn122  1  0.81213157  0.81178428  0.81285957  1
  Zn  Zn123  1  0.18572221  0.43702680  0.43611819  1
  Zn  Zn124  1  0.18553660  0.43743676  0.93543489  1
  Zn  Zn125  1  0.18664869  0.93993258  0.43553033  1
  Zn  Zn126  1  0.18954376  0.93586804  0.93303781  1
  Zn  Zn127  1  0.69047811  0.44087844  0.43628443  1
  Zn  Zn128  1  0.68873308  0.43542391  0.93591793  1
  Zn  Zn129  1  0.68335854  0.93155281  0.43465258  1
  Zn  Zn130  1  0.68707146  0.93934076  0.93979036  1
  Zn  Zn131  1  0.31323740  0.06166805  0.06142759  1
  Zn  Zn132  1  0.31741920  0.06148986  0.56065466  1
  Zn  Zn133  1  0.30129114  0.55665644  0.05450575  1
  Zn  Zn134  1  0.30062940  0.58175253  0.56654601  1
  Zn  Zn135  1  0.81244548  0.06187490  0.06366867  1
  Zn  Zn136  1  0.81341803  0.05953623  0.56198924  1
  Zn  Zn137  1  0.80792839  0.55804374  0.06598205  1
  Zn  Zn138  1  0.80663431  0.56648484  0.55814716  1
  Zn  Zn139  1  0.43272471  0.52624359  0.18622742  1
  Zn  Zn140  1  0.43564640  0.43958839  0.68547102  1
  Zn  Zn141  1  0.43541476  0.94210598  0.18836982  1
  Zn  Zn142  1  0.43635037  0.93774579  0.68814673  1
  Zn  Zn143  1  0.93662290  0.43816179  0.18738470  1
  Zn  Zn144  1  0.93597855  0.43532327  0.68718438  1
  Zn  Zn145  1  0.93589597  0.93598192  0.18455370  1
  Zn  Zn146  1  0.93497366  0.93570421  0.68724515  1
  Zn  Zn147  1  0.06227787  0.06194930  0.31572706  1
  Zn  Zn148  1  0.06441905  0.05228869  0.81210611  1
  Zn  Zn149  1  0.06935933  0.56560477  0.31040731  1
  Zn  Zn150  1  0.06314971  0.56485818  0.81085230  1
  Zn  Zn151  1  0.56370167  0.06148959  0.31265639  1
  Zn  Zn152  1  0.56667742  0.06468623  0.80946540  1
  Zn  Zn153  1  0.54859226  0.56230234  0.31911455  1
  Zn  Zn154  1  0.56325742  0.56124166  0.81149986  1
  Zn  Zn155  1  0.43924920  0.19061438  0.43698808  1
  Zn  Zn156  1  0.43658787  0.19269087  0.93280698  1
  Zn  Zn157  1  0.43738533  0.68817734  0.44467098  1
  Zn  Zn158  1  0.45269645  0.70448070  0.98830608  1
  Zn  Zn159  1  0.93708106  0.18504527  0.43629039  1
  Zn  Zn160  1  0.93579151  0.18268838  0.93896071  1
  Zn  Zn161  1  0.93725101  0.68434717  0.43527401  1
  Zn  Zn162  1  0.93634887  0.69000430  0.93880666  1
  Zn  Zn163  1  0.06161634  0.30789052  0.06316596  1
  Zn  Zn164  1  0.06479658  0.31074262  0.56146484  1
  Zn  Zn165  1  0.06292911  0.81452071  0.06134385  1
  Zn  Zn166  1  0.05985534  0.81317183  0.56645229  1
  Zn  Zn167  1  0.56212932  0.31450533  0.06193016  1
  Zn  Zn168  1  0.56375811  0.31303552  0.55223833  1
  Zn  Zn169  1  0.55463182  0.81245747  0.10471769  1
  Zn  Zn170  1  0.56395357  0.81017421  0.56065898  1
  O  O171  1  0.11269853  0.12624429  0.13078962  1
  O  O172  1  0.10963024  0.13385149  0.61518330  1
  O  O173  1  0.12624424  0.62659067  0.10905077  1
  O  O174  1  0.12184914  0.61544655  0.61281986  1
  O  O175  1  0.62680812  0.12097484  0.11455215  1
  O  O176  1  0.61354479  0.12314565  0.62142730  1
  O  O177  1  0.63197882  0.60147299  0.11801852  1
  O  O178  1  0.62112964  0.61667804  0.61937694  1
  O  O179  1  0.36819756  0.38769897  0.38844882  1
  O  O180  1  0.38004401  0.38055647  0.87708616  1
  O  O181  1  0.38432053  0.88332258  0.38583344  1
  O  O182  1  0.38263481  0.88786477  0.88368157  1
  O  O183  1  0.88679550  0.37027311  0.38870714  1
  O  O184  1  0.87940895  0.37731711  0.87993461  1
  O  O185  1  0.87577856  0.88759889  0.37021362  1
  O  O186  1  0.88530084  0.87056046  0.88340463  1
  O  O187  1  0.25650476  0.00629810  0.36602798  1
  O  O188  1  0.25911336  0.01177201  0.87928939  1
  O  O189  1  0.25556862  0.50436410  0.37125710  1
  O  O190  1  0.25449017  0.50402488  0.86699226  1
  O  O191  1  0.75344473  0.00347451  0.36846840  1
  O  O192  1  0.74681603  0.00873783  0.86625521  1
  O  O193  1  0.76230175  0.49714670  0.37293722  1
  O  O194  1  0.75525551  0.50160356  0.86423997  1
  O  O195  1  0.24109947  0.48780431  0.13267268  1
  O  O196  1  0.24202443  0.49992632  0.63289668  1
  O  O197  1  0.25030645  0.99551683  0.13637832  1
  O  O198  1  0.25074583  1.01112445  0.63112226  1
  O  O199  1  0.74023503  0.48282141  0.12296238  1
  O  O200  1  0.74235181  0.49356177  0.62936095  1
  O  O201  1  0.74487227  0.99511462  0.13249792  1
  O  O202  1  0.74757669  0.99091683  0.62948358  1
  O  O203  1  0.00499635  0.36632413  0.25513872  1
  O  O204  1  0.00343247  0.36664516  0.75503669  1
  O  O205  1  0.00805684  0.86951276  0.24907763  1
  O  O206  1  -0.00823734  0.86685540  0.75959916  1
  O  O207  1  0.48355228  0.37331786  0.28514904  1
  O  O208  1  0.49285442  0.36647918  0.75578911  1
  O  O209  1  0.48837813  0.87302229  0.26090975  1
  O  O210  1  0.51533349  0.87577307  0.75203481  1
  O  O211  1  0.48742794  0.12369739  0.25021524  1
  O  O212  1  0.49529592  0.13128096  0.74171751  1
  O  O213  1  0.48269625  0.61383905  0.24524256  1
  O  O214  1  0.50762909  0.62649241  0.73581695  1
  O  O215  1  0.99432275  0.12755666  0.24487448  1
  O  O216  1  0.99320081  0.12723980  0.74270118  1
  O  O217  1  1.01416865  0.64173718  0.24349531  1
  O  O218  1  0.98765122  0.63064733  0.74846381  1
  O  O219  1  0.36485123  0.26001391  -0.00457446  1
  O  O220  1  0.36470130  0.23866091  0.51149744  1
  O  O221  1  0.36362371  0.77531377  -0.01488337  1
  O  O222  1  0.36756525  0.75994278  0.51045612  1
  O  O223  1  0.86482268  0.25411952  0.00124108  1
  O  O224  1  0.87464225  0.25009585  0.51103239  1
  O  O225  1  0.87687556  0.76393432  0.00661076  1
  O  O226  1  0.86299270  0.74389610  0.50995775  1
  O  O227  1  0.13215714  0.23737006  0.49889466  1
  O  O228  1  0.13087599  0.25397792  0.98520550  1
  O  O229  1  0.12318806  0.74740043  0.48990014  1
  O  O230  1  0.12545664  0.74402615  0.99043855  1
  O  O231  1  0.63168936  0.24536837  0.48649284  1
  O  O232  1  0.63706544  0.24572047  0.99639800  1
  O  O233  1  0.63664793  0.73974226  0.50256529  1
  O  O234  1  0.62969243  0.73828390  0.99104013  1
  O  O235  1  0.49806734  0.25012534  0.13011553  1
  O  O236  1  0.49516456  0.24480790  0.62646470  1
  O  O237  1  0.46883843  0.73568430  0.10502015  1
  O  O238  1  0.49670300  0.74249657  0.62827639  1
  O  O239  1  0.99715949  0.24129951  0.13564048  1
  O  O240  1  0.99299208  0.24223505  0.62890699  1
  O  O241  1  0.99291660  0.75159553  0.12975892  1
  O  O242  1  0.98787754  0.75140538  0.63243881  1
  O  O243  1  0.00114746  0.24915832  0.36214161  1
  O  O244  1  0.00529669  0.25030783  0.87203726  1
  O  O245  1  0.00512316  0.75427821  0.36659431  1
  O  O246  1  0.00215726  0.75851933  0.86876445  1
  O  O247  1  0.51083663  0.24894739  0.37141228  1
  O  O248  1  0.50051714  0.25889130  0.86236344  1
  O  O249  1  0.49394993  0.76065482  0.37723100  1
  O  O250  1  0.50929748  0.75241916  0.88057758  1
  O  O251  1  0.24283162  0.13072816  0.49516749  1
  O  O252  1  0.25533451  0.13663921  0.99115626  1
  O  O253  1  0.23470651  0.64394617  0.49205019  1
  O  O254  1  0.23887527  0.62570651  0.98700086  1
  O  O255  1  0.75134321  0.12284173  0.48549328  1
  O  O256  1  0.74775903  0.13189540  0.99259113  1
  O  O257  1  0.73794316  0.63968590  0.50321346  1
  O  O258  1  0.74207205  0.62232423  0.99231686  1
  O  O259  1  0.25149982  0.36551415  0.00180049  1
  O  O260  1  0.23929537  0.35969396  0.50577800  1
  O  O261  1  0.25246882  0.87771701  0.01094937  1
  O  O262  1  0.26258608  0.87192783  0.49266569  1
  O  O263  1  0.75982859  0.36659345  -0.00056075  1
  O  O264  1  0.76198453  0.37491341  0.51004513  1
  O  O265  1  0.75850814  0.87440750  0.00497162  1
  O  O266  1  0.74163281  0.86168057  0.50850315  1
  O  O267  1  0.13148465  0.48430170  0.25068748  1
  O  O268  1  0.13474655  0.49546236  0.74560642  1
  O  O269  1  0.13198701  0.98986854  0.25731829  1
  O  O270  1  0.12218800  1.00412917  0.73243251  1
  O  O271  1  0.61871127  0.49758369  0.24263758  1
  O  O272  1  0.63813053  0.50182952  0.74139644  1
  O  O273  1  0.63806122  1.00824864  0.24085094  1
  O  O274  1  0.63569933  0.99232475  0.74769514  1
  O  O275  1  0.36516754  0.00916749  0.25437511  1
  O  O276  1  0.38216349  0.01196207  0.75919166  1
  O  O277  1  0.35643228  0.48933691  0.26471025  1
  O  O278  1  0.36069593  0.49704263  0.75537759  1
  O  O279  1  0.86646887  0.00527610  0.25451349  1
  O  O280  1  0.86057938  0.00513633  0.74531404  1
  O  O281  1  0.87410879  0.50667199  0.24903712  1
  O  O282  1  0.86538336  0.50464149  0.75141577  1
  O  O283  1  0.11746749  0.37014240  0.36739705  1
  O  O284  1  0.11780283  0.36864556  0.86905898  1
  O  O285  1  0.12221486  0.86709632  0.36770966  1
  O  O286  1  0.11113496  0.86448345  0.88225631  1
  O  O287  1  0.61305055  0.37199690  0.38392443  1
  O  O288  1  0.60988934  0.37506733  0.87587976  1
  O  O289  1  0.60627658  0.87636059  0.37230844  1
  O  O290  1  0.62558127  0.86668336  0.87220216  1
  O  O291  1  0.37728443  0.12701247  0.13228804  1
  O  O292  1  0.38657414  0.13142692  0.63158781  1
  O  O293  1  0.37144954  0.60194657  0.12528422  1
  O  O294  1  0.39186211  0.63251914  0.61675968  1
  O  O295  1  0.87949488  0.12410747  0.13731080  1
  O  O296  1  0.88073570  0.13142316  0.62909908  1
  O  O297  1  0.87508137  0.63962581  0.11337249  1
  O  O298  1  0.87551351  0.63200331  0.62975876  1
  O  O299  1  0.24971071  0.25420992  0.11309159  1
  O  O300  1  0.26092439  0.25562825  0.61660461  1
  O  O301  1  0.25407688  0.76243808  0.12556000  1
  O  O302  1  0.26890961  0.72354727  0.61854062  1
  O  O303  1  0.75141119  0.25917452  0.11633328  1
  O  O304  1  0.75715912  0.25639007  0.62330119  1
  O  O305  1  0.76182472  0.75955525  0.12003067  1
  O  O306  1  0.75522352  0.75523814  0.62168747  1
  O  O307  1  0.25120670  0.24399092  0.38374049  1
  O  O308  1  0.24301507  0.24275437  0.87867648  1
  O  O309  1  0.23903590  0.75621217  0.39194681  1
  O  O310  1  0.23941424  0.74222362  0.87655050  1
  O  O311  1  0.74652377  0.24156013  0.37499066  1
  O  O312  1  0.74769706  0.24457117  0.87991650  1
  O  O313  1  0.75297414  0.75773176  0.38786537  1
  O  O314  1  0.74547391  0.74064322  0.87630431  1
  O  O315  1  -0.00555679  0.11149220  0.00818757  1
  O  O316  1  0.00626981  0.11742065  0.50503971  1
  O  O317  1  0.00745180  0.62312370  -0.00071759  1
  O  O318  1  0.01657888  0.63193260  0.49881580  1
  O  O319  1  0.51390769  0.13483982  -0.00306750  1
  O  O320  1  0.49969994  0.11590148  0.50686676  1
  O  O321  1  0.51864305  0.61328675  -0.00654286  1
  O  O322  1  0.51659139  0.63227788  0.51125339  1
  O  O323  1  0.48744414  0.35980898  0.48261231  1
  O  O324  1  0.48875045  0.37315151  0.98819633  1
  O  O325  1  0.49475966  0.88094674  0.49524904  1
  O  O326  1  0.48754625  0.87392915  1.00935264  1
  O  O327  1  0.99441527  0.36937496  0.49026440  1
  O  O328  1  0.98645731  0.37021683  0.99569788  1
  O  O329  1  1.00467778  0.88989409  0.50151312  1
  O  O330  1  0.99426654  0.88653084  0.99593086  1
  O  O331  1  0.48014086  0.49427788  0.38792281  1
  O  O332  1  0.49026416  0.49318522  0.87064231  1
  O  O333  1  0.49424125  0.99744459  0.38146543  1
  O  O334  1  0.49309922  1.00227431  0.87525880  1
  O  O335  1  1.00719613  0.48960712  0.37044844  1
  O  O336  1  0.99249815  0.49116741  0.87350169  1
  O  O337  1  0.99024880  0.99919113  0.38241556  1
  O  O338  1  0.99958905  0.99322656  0.88743451  1
  O  O339  1  -0.00248622  0.00549865  0.11211689  1
  O  O340  1  -0.01173508  0.00972512  0.61621802  1
  O  O341  1  0.00457528  0.50074891  0.12033875  1
  O  O342  1  0.01520001  0.49941591  0.63394212  1
  O  O343  1  0.51499546  0.00464878  0.13077482  1
  O  O344  1  0.50118191  0.00725746  0.61697205  1
  O  O345  1  0.51829195  0.47960106  0.12273793  1
  O  O346  1  0.51237006  0.50379782  0.62846705  1
  O  O347  1  0.24256996  0.37512137  0.24187562  1
  O  O348  1  0.24441259  0.38146000  0.74320098  1
  O  O349  1  0.24404987  0.88544565  0.24309128  1
  O  O350  1  0.23374319  0.85080808  0.75747329  1
  O  O351  1  0.75722184  0.36694703  0.23653283  1
  O  O352  1  0.75655556  0.38166444  0.73436739  1
  O  O353  1  0.75265396  0.88400835  0.23908564  1
  O  O354  1  0.74189272  0.88019108  0.74651315  1
  O  O355  1  0.25553356  0.12029013  0.25358542  1
  O  O356  1  0.26415879  0.13466433  0.76187436  1
  O  O357  1  0.23200539  0.60955659  0.25730231  1
  O  O358  1  0.24399433  0.61754341  0.76473579  1
  O  O359  1  0.75774729  0.11917218  0.25772535  1
  O  O360  1  0.75161628  0.11748534  0.75505674  1
  O  O361  1  0.75254941  0.61949170  0.25616712  1
  O  O362  1  0.75625556  0.61672233  0.75304264  1
  O  O363  1  0.36980545  0.11991960  0.36822257  1
  O  O364  1  0.37113201  0.11993081  0.86888374  1
  O  O365  1  0.36455985  0.61381884  0.39107411  1
  O  O366  1  0.36522168  0.61191412  0.88253205  1
  O  O367  1  0.86970090  0.11654781  0.36428584  1
  O  O368  1  0.86159004  0.13037809  0.86644996  1
  O  O369  1  0.87323050  0.62223105  0.37007785  1
  O  O370  1  0.86904777  0.61949767  0.86899251  1
  O  O371  1  0.13298741  0.37091211  0.13120591  1
  O  O372  1  0.13141246  0.38029829  0.63027297  1
  O  O373  1  0.13343751  0.87282324  0.13439800  1
  O  O374  1  0.16493457  0.83084180  0.60451942  1
  O  O375  1  0.63998399  0.37965163  0.12232509  1
  O  O376  1  0.63424798  0.38314054  0.61419117  1
  O  O377  1  0.63906828  0.89012618  0.11006740  1
  O  O378  1  0.63485764  0.87236306  0.63436604  1
  O  O379  1  0.11885132  0.25917677  0.25179334  1
  O  O380  1  0.11661885  0.25731096  0.76314863  1
  O  O381  1  0.12207290  0.76241900  0.25605361  1
  O  O382  1  0.10316342  0.73822303  0.76087006  1
  O  O383  1  0.62561748  0.24885357  0.26349341  1
  O  O384  1  0.61138022  0.24710630  0.74780371  1
  O  O385  1  0.60996272  0.75470844  0.19115063  1
  O  O386  1  0.62582204  0.75599288  0.76410081  1
  O  O387  1  0.37304560  0.24075731  0.24753426  1
  O  O388  1  0.38476762  0.24069989  0.74031311  1
  O  O389  1  0.32968151  0.72231801  0.27947644  1
  O  O390  1  0.38094813  0.75697873  0.73887940  1
  O  O391  1  0.88299447  0.24020976  0.24927194  1
  O  O392  1  0.88013177  0.24382041  0.73826673  1
  O  O393  1  0.88662626  0.75754573  0.23664974  1
  O  O394  1  0.87940388  0.74333856  0.74245243  1
  O  O395  1  0.35383011  0.49899131  0.49921403  1
  O  O396  1  0.37248023  0.48582389  0.98797528  1
  O  O397  1  0.38632101  0.99381170  0.49557317  1
  O  O398  1  0.37259119  0.98963546  0.99222006  1
  O  O399  1  0.88030453  0.49120788  0.51329820  1
  O  O400  1  0.87353806  0.48994548  0.99227939  1
  O  O401  1  0.88381220  1.00569298  0.48894746  1
  O  O402  1  0.88032526  0.98990053  1.00246563  1
  O  O403  1  0.11243824  -0.00181737  -0.00258807  1
  O  O404  1  0.11696750  0.01215047  0.49510967  1
  O  O405  1  0.12163122  0.50952388  -0.00234841  1
  O  O406  1  0.13263367  0.50897870  0.50820625  1
  O  O407  1  0.63212375  0.01456805  0.00792909  1
  O  O408  1  0.61416407  0.00070999  0.50081625  1
  O  O409  1  0.62444408  0.50166916  0.00154152  1
  O  O410  1  0.63349152  0.51488042  0.50884234  1
  O  O411  1  0.35785219  0.37243118  0.11094676  1
  O  O412  1  0.36835449  0.36405878  0.62879675  1
  O  O413  1  0.36603066  0.88486334  0.11454070  1
  O  O414  1  0.38204003  0.86662389  0.61478725  1
  O  O415  1  0.86486663  0.37274155  0.11613384  1
  O  O416  1  0.87181544  0.36603324  0.61836542  1
  O  O417  1  0.86511181  0.87152270  0.11687739  1
  O  O418  1  0.85955082  0.86542343  0.62977963  1
  O  O419  1  0.13233959  0.12776967  0.38199805  1
  O  O420  1  0.13445483  0.13090379  0.86920823  1
  O  O421  1  0.13304647  0.64047980  0.37552883  1
  O  O422  1  0.12803197  0.63342970  0.88216047  1
  O  O423  1  0.63434524  0.13101324  0.37457312  1
  O  O424  1  0.63619534  0.12870399  0.87981313  1
  O  O425  1  0.61811033  0.61945518  0.39000984  1
  O  O426  1  0.63284218  0.62830981  0.87892052  1
