# generated using pymatgen
data_V85Zn86O256
_symmetry_space_group_name_H-M   'P 1'
_cell_length_a   16.96603584
_cell_length_b   16.95625741
_cell_length_c   16.94527692
_cell_angle_alpha   90.09587235
_cell_angle_beta   89.97134044
_cell_angle_gamma   90.00057103
_symmetry_Int_Tables_number   1
_chemical_formula_structural   V85Zn86O256
_chemical_formula_sum   'V85 Zn86 O256'
_cell_volume   4874.81780911
_cell_formula_units_Z   1
loop_
 _symmetry_equiv_pos_site_id
 _symmetry_equiv_pos_as_xyz
  1  'x, y, z'
loop_
 _atom_site_type_symbol
 _atom_site_label
 _atom_site_symmetry_multiplicity
 _atom_site_fract_x
 _atom_site_fract_y
 _atom_site_fract_z
 _atom_site_occupancy
  V  V0  1  0.86934012  0.11630742  0.74831088  1
  V  V1  1  0.75005676  0.87970815  0.62715549  1
  V  V2  1  0.11793294  0.75784583  0.87718958  1
  V  V3  1  0.49812591  0.74893558  0.26235436  1
  V  V4  1  0.61974476  0.50942759  0.62957308  1
  V  V5  1  0.75255886  0.62814351  0.87423933  1
  V  V6  1  0.12421627  0.11723391  0.00051519  1
  V  V7  1  0.80927683  0.55620822  0.31734291  1
  V  V8  1  0.23744766  0.88486482  0.12110067  1
  V  V9  1  0.00970750  0.49983674  0.49436223  1
  V  V10  1  -0.00036916  0.75176893  0.74778748  1
  V  V11  1  0.63123823  0.62445088  0.49360933  1
  V  V12  1  0.38276267  0.87759833  0.48994842  1
  V  V13  1  0.74980570  0.49974880  0.74551000  1
  V  V14  1  0.87390272  0.38147611  0.49903704  1
  V  V15  1  0.87793886  -0.01028014  0.87343031  1
  V  V16  1  0.36941238  0.62412897  0.25185612  1
  V  V17  1  0.37420778  0.50295190  0.87597700  1
  V  V18  1  -0.00219799  0.50357650  -0.00006167  1
  V  V19  1  0.49847542  0.36567872  0.87424356  1
  V  V20  1  0.62535845  0.62547082  -0.00044797  1
  V  V21  1  0.49654269  0.62510421  0.12570928  1
  V  V22  1  0.88361803  -0.00389729  0.37811598  1
  V  V23  1  0.24747281  0.62804319  0.87621795  1
  V  V24  1  0.12009749  0.62795330  0.00363968  1
  V  V25  1  0.24205948  0.87577628  0.62612568  1
  V  V26  1  -0.00480513  0.36121103  0.37275607  1
  V  V27  1  0.37886372  0.12771300  0.25068690  1
  V  V28  1  0.75209840  0.25026036  0.00117104  1
  V  V29  1  0.12183559  0.49839465  0.12827762  1
  V  V30  1  0.62699271  0.74990260  0.87553091  1
  V  V31  1  0.74762930  0.24604063  0.50206034  1
  V  V32  1  0.87035950  0.74755566  0.14726991  1
  V  V33  1  0.00174120  -0.01328886  -0.00197225  1
  V  V34  1  0.61244695  0.12157256  0.49851852  1
  V  V35  1  0.24629206  -0.00059880  0.74556140  1
  V  V36  1  0.75376309  -0.00353969  0.24126362  1
  V  V37  1  0.88590341  0.12921932  0.25383240  1
  V  V38  1  0.87255687  0.24590347  0.62592603  1
  V  V39  1  0.24038729  0.74589540  0.49987952  1
  V  V40  1  0.37222979  0.37468933  0.00367617  1
  V  V41  1  0.01724857  -0.00033154  0.50740154  1
  V  V42  1  0.50181510  0.00242638  0.01377320  1
  V  V43  1  0.37986604  0.24819380  0.12293397  1
  V  V44  1  0.61855531  0.12587150  0.01024357  1
  V  V45  1  0.37822501  0.87546041  0.00733003  1
  V  V46  1  0.61679956  -0.00222634  0.61908709  1
  V  V47  1  -0.00629290  0.62653367  0.14665518  1
  V  V48  1  0.87061356  0.86837865  0.00563836  1
  V  V49  1  0.24576485  0.49983337  0.74354897  1
  V  V50  1  0.24851928  0.75151893  0.00328433  1
  V  V51  1  0.87869788  0.87772871  0.50236425  1
  V  V52  1  0.37730340  0.62618244  0.74541506  1
  V  V53  1  0.37942308  0.00202434  0.87020067  1
  V  V54  1  0.50136109  0.74666328  0.74958640  1
  V  V55  1  0.25859791  0.12627853  0.87200073  1
  V  V56  1  0.75200196  0.11869581  0.87438060  1
  V  V57  1  0.01698323  0.12110029  0.62656815  1
  V  V58  1  0.88134198  0.25113608  0.13018278  1
  V  V59  1  0.63218288  0.49838111  0.13190902  1
  V  V60  1  0.37914480  0.75264405  0.62418464  1
  V  V61  1  0.12000161  0.36112939  0.25005099  1
  V  V62  1  0.49756249  0.50667074  0.50693029  1
  V  V63  1  0.87480887  0.37498031  -0.00073298  1
  V  V64  1  0.87417583  0.50114479  0.87230796  1
  V  V65  1  0.49951074  0.49956929  0.00062268  1
  V  V66  1  -0.00097693  0.24973660  0.75002831  1
  V  V67  1  0.50468616  0.25140614  0.24715121  1
  V  V68  1  0.50185182  0.87416266  0.87826720  1
  V  V69  1  0.62026215  0.37108045  0.74824945  1
  V  V70  1  0.63023686  0.87955148  0.75109027  1
  V  V71  1  0.00631224  0.62713159  0.61528109  1
  V  V72  1  0.24185463  0.12073158  0.38122002  1
  V  V73  1  0.50056488  0.37518551  0.37791449  1
  V  V74  1  0.75157815  0.12334870  0.37471134  1
  V  V75  1  0.12385726  0.25042810  0.87615800  1
  V  V76  1  0.00357830  0.11949383  0.12536365  1
  V  V77  1  0.37239334  0.49739245  0.37728715  1
  V  V78  1  0.23497256  0.62327552  0.38146669  1
  V  V79  1  0.24539469  0.00530725  0.23873441  1
  V  V80  1  -0.00071456  0.37709288  0.87304744  1
  V  V81  1  0.24500409  0.25500469  0.50630314  1
  V  V82  1  0.75010505  0.75283974  0.49406183  1
  V  V83  1  0.62273995  0.24635088  0.87251052  1
  V  V84  1  0.24887928  0.25185920  0.00151359  1
  Zn  Zn85  1  0.87477083  0.74781815  0.62225674  1
  Zn  Zn86  1  0.63441606  0.37917550  0.25800566  1
  Zn  Zn87  1  0.75694338  0.38035025  0.13335462  1
  Zn  Zn88  1  0.12837112  0.37289214  0.74506807  1
  Zn  Zn89  1  0.49588069  0.12650842  0.64445451  1
  Zn  Zn90  1  0.06826081  0.82607718  0.30825745  1
  Zn  Zn91  1  0.24838555  0.37528784  0.13009454  1
  Zn  Zn92  1  0.62581818  0.25090557  0.37389238  1
  Zn  Zn93  1  0.63434791  -0.00726526  0.12387222  1
  Zn  Zn94  1  0.38199355  0.24828022  0.63720593  1
  Zn  Zn95  1  0.11917474  0.87887826  0.75029662  1
  Zn  Zn96  1  0.37293651  0.75430096  0.12951944  1
  Zn  Zn97  1  0.74715274  0.75441692  0.01356166  1
  Zn  Zn98  1  0.62149768  0.75742249  0.37913314  1
  Zn  Zn99  1  0.62779512  0.87101850  0.24974097  1
  Zn  Zn100  1  0.38825790  0.00296898  0.38087927  1
  Zn  Zn101  1  0.11902943  0.23594057  0.37437500  1
  Zn  Zn102  1  0.12757516  0.49246221  0.61924535  1
  Zn  Zn103  1  0.74689894  0.37266050  0.62586891  1
  Zn  Zn104  1  0.87381110  0.62225757  0.73574213  1
  Zn  Zn105  1  0.36880156  0.37386153  0.51227761  1
  Zn  Zn106  1  0.24506208  0.49658534  0.25378102  1
  Zn  Zn107  1  0.18893788  0.18538069  0.18548449  1
  Zn  Zn108  1  0.19856232  0.19087883  0.69407536  1
  Zn  Zn109  1  0.18558075  0.69204414  0.19654665  1
  Zn  Zn110  1  0.18399449  0.68718214  0.68401928  1
  Zn  Zn111  1  0.69356336  0.19054240  0.18985881  1
  Zn  Zn112  1  0.67966158  0.18259999  0.68861031  1
  Zn  Zn113  1  0.68715351  0.68036403  0.19443882  1
  Zn  Zn114  1  0.68980261  0.68990912  0.68329156  1
  Zn  Zn115  1  0.30852778  0.30966620  0.31517712  1
  Zn  Zn116  1  0.31147951  0.31908030  0.81347451  1
  Zn  Zn117  1  0.26395617  0.83515334  0.33100694  1
  Zn  Zn118  1  0.31182528  0.81470267  0.81542858  1
  Zn  Zn119  1  0.81157349  0.31384494  0.31307236  1
  Zn  Zn120  1  0.80980517  0.31054416  0.81165790  1
  Zn  Zn121  1  0.80986505  0.81815929  0.31882773  1
  Zn  Zn122  1  0.81606315  0.80971535  0.80935781  1
  Zn  Zn123  1  0.18453924  0.42980154  0.43143976  1
  Zn  Zn124  1  0.18580540  0.43995111  0.93592089  1
  Zn  Zn125  1  0.19325034  0.94074280  0.43960358  1
  Zn  Zn126  1  0.19006713  0.93817066  0.93586632  1
  Zn  Zn127  1  0.68610021  0.43570267  0.44241954  1
  Zn  Zn128  1  0.68687386  0.43808192  0.93852549  1
  Zn  Zn129  1  0.68377389  0.93688837  0.43238554  1
  Zn  Zn130  1  0.69116306  0.93792099  0.94101816  1
  Zn  Zn131  1  0.31842288  0.06597258  0.05990371  1
  Zn  Zn132  1  0.32252500  0.06494097  0.56381261  1
  Zn  Zn133  1  0.30773708  0.56131490  0.06474850  1
  Zn  Zn134  1  0.31382706  0.56456057  0.56395438  1
  Zn  Zn135  1  0.81918346  0.06566497  0.05994884  1
  Zn  Zn136  1  0.80704028  0.05853239  0.56398572  1
  Zn  Zn137  1  0.81326355  0.56825176  0.06392653  1
  Zn  Zn138  1  0.85056537  0.59685848  0.50248407  1
  Zn  Zn139  1  0.43938570  0.43758988  0.19067247  1
  Zn  Zn140  1  0.43511309  0.43144773  0.68652909  1
  Zn  Zn141  1  0.45518073  0.95328725  0.21662718  1
  Zn  Zn142  1  0.43641257  0.93495597  0.68722168  1
  Zn  Zn143  1  0.93606080  0.43756695  0.19304922  1
  Zn  Zn144  1  0.94057208  0.43613147  0.68177010  1
  Zn  Zn145  1  0.93850716  0.93333212  0.18653961  1
  Zn  Zn146  1  0.93974028  0.93709224  0.68528162  1
  Zn  Zn147  1  0.05141639  0.01874039  0.29958504  1
  Zn  Zn148  1  0.06224332  0.06176220  0.81378842  1
  Zn  Zn149  1  0.05901331  0.54900622  0.31579051  1
  Zn  Zn150  1  0.06047342  0.57103254  0.81000860  1
  Zn  Zn151  1  0.56484396  0.06484470  0.31261850  1
  Zn  Zn152  1  0.57109379  0.05375990  0.82120489  1
  Zn  Zn153  1  0.56192171  0.56356178  0.31447090  1
  Zn  Zn154  1  0.56048965  0.56116055  0.81398498  1
  Zn  Zn155  1  0.43185536  0.19142703  0.43716604  1
  Zn  Zn156  1  0.43610300  0.18237375  0.80121290  1
  Zn  Zn157  1  0.43104407  0.68323489  0.44118148  1
  Zn  Zn158  1  0.43657451  0.68942775  0.93821119  1
  Zn  Zn159  1  0.93954312  0.18250194  0.44457474  1
  Zn  Zn160  1  0.93845093  0.18367973  0.93780732  1
  Zn  Zn161  1  0.94306304  0.68958735  0.33956732  1
  Zn  Zn162  1  0.93693328  0.68928484  0.93835598  1
  Zn  Zn163  1  0.05957328  0.31089205  0.06187388  1
  Zn  Zn164  1  0.06875901  0.31006595  0.56100169  1
  Zn  Zn165  1  0.07255364  0.79906641  0.10940008  1
  Zn  Zn166  1  0.03266924  0.77998780  0.49490631  1
  Zn  Zn167  1  0.56287369  0.31382601  0.06145738  1
  Zn  Zn168  1  0.55626930  0.31407071  0.56501179  1
  Zn  Zn169  1  0.56599396  0.81363181  0.07147688  1
  Zn  Zn170  1  0.55995532  0.81059604  0.56241984  1
  O  O171  1  0.11603222  0.13368287  0.11107737  1
  O  O172  1  0.11397399  0.12841223  0.63671046  1
  O  O173  1  0.11332611  0.61685024  0.12352587  1
  O  O174  1  0.11071153  0.61599194  0.62599977  1
  O  O175  1  0.63683737  0.12372503  0.11199830  1
  O  O176  1  0.62608096  0.11349509  0.61475699  1
  O  O177  1  0.61767068  0.61543262  0.12023680  1
  O  O178  1  0.62689236  0.61342497  0.62079482  1
  O  O179  1  0.37972112  0.38664844  0.37458693  1
  O  O180  1  0.38119317  0.38265935  0.88366175  1
  O  O181  1  0.36366793  0.87059282  0.38912042  1
  O  O182  1  0.38059896  0.88096078  0.88631380  1
  O  O183  1  0.88244295  0.36298166  0.38873031  1
  O  O184  1  0.87815848  0.38066301  0.88009906  1
  O  O185  1  0.87123552  0.88954467  0.38645173  1
  O  O186  1  0.87092429  0.88503062  0.88040190  1
  O  O187  1  0.26218588  0.01032916  0.35816167  1
  O  O188  1  0.26091730  0.00701779  0.87235796  1
  O  O189  1  0.25673727  0.50456866  0.37718377  1
  O  O190  1  0.25564342  0.51102390  0.87225966  1
  O  O191  1  0.76083211  0.01199079  0.37040070  1
  O  O192  1  0.76035702  0.01180812  0.88197994  1
  O  O193  1  0.75478471  0.49812282  0.37997111  1
  O  O194  1  0.75134946  0.50885040  0.86667777  1
  O  O195  1  0.23226978  0.49851369  0.12634041  1
  O  O196  1  0.24829865  0.50722558  0.64026947  1
  O  O197  1  0.25355060  0.99888153  0.12676730  1
  O  O198  1  0.25924236  0.99244561  0.63905793  1
  O  O199  1  0.73498259  0.50081223  0.11646229  1
  O  O200  1  0.73985702  0.49522885  0.64094589  1
  O  O201  1  0.76036271  1.00636123  0.13867998  1
  O  O202  1  0.73767074  0.98688650  0.62461525  1
  O  O203  1  0.00480152  0.37623528  0.26227290  1
  O  O204  1  -0.00436946  0.36611893  0.75823995  1
  O  O205  1  0.00711230  0.91648330  0.27002251  1
  O  O206  1  0.00237052  0.85665546  0.73768335  1
  O  O207  1  0.50223692  0.36938371  0.26148900  1
  O  O208  1  0.51116456  0.38633285  0.76304401  1
  O  O209  1  0.49216321  0.84664028  0.23848917  1
  O  O210  1  0.50729088  0.86644544  0.75860812  1
  O  O211  1  0.49384368  0.14438612  0.25197359  1
  O  O212  1  0.52166304  0.12878469  0.75815264  1
  O  O213  1  0.49145119  0.62654260  0.24347636  1
  O  O214  1  0.48918763  0.63405865  0.75955336  1
  O  O215  1  0.99192560  0.11364522  0.24155294  1
  O  O216  1  0.99143811  0.12891276  0.74283251  1
  O  O217  1  0.99754075  0.62225769  0.24965230  1
  O  O218  1  0.99712258  0.63277949  0.73328682  1
  O  O219  1  0.36993490  0.26623905  0.00688260  1
  O  O220  1  0.35629069  0.25367585  0.49251456  1
  O  O221  1  0.36755849  0.75842083  0.00116655  1
  O  O222  1  0.36868157  0.75307059  0.51015339  1
  O  O223  1  0.86891975  0.25394813  0.00337692  1
  O  O224  1  0.86516597  0.25049769  0.50989432  1
  O  O225  1  0.86970515  0.75793294  0.00070334  1
  O  O226  1  0.86590573  0.76744658  0.50329872  1
  O  O227  1  0.13823783  0.24623482  0.49294597  1
  O  O228  1  0.12696086  0.24402785  0.99072040  1
  O  O229  1  0.14287674  0.74928614  0.51154811  1
  O  O230  1  0.12729449  0.74387387  0.99897135  1
  O  O231  1  0.63733669  0.24329351  0.50012925  1
  O  O232  1  0.63165631  0.24354724  0.99562553  1
  O  O233  1  0.62963314  0.74115206  0.50203756  1
  O  O234  1  0.62847395  0.74424584  0.99500299  1
  O  O235  1  0.49149414  0.26211324  0.13413585  1
  O  O236  1  0.49961829  0.24003004  0.62081041  1
  O  O237  1  0.49600451  0.73292690  0.12524584  1
  O  O238  1  0.48732808  0.75254269  0.63424083  1
  O  O239  1  0.98776235  0.23762049  0.11588777  1
  O  O240  1  0.99182804  0.23747813  0.62988656  1
  O  O241  1  0.98041915  0.73422339  0.11890619  1
  O  O242  1  1.00287808  0.73510267  0.61482506  1
  O  O243  1  0.00214053  0.25597393  0.38279853  1
  O  O244  1  0.00601153  0.25320788  0.87096403  1
  O  O245  1  0.01107717  0.76083272  0.38607623  1
  O  O246  1  0.00700669  0.74094202  0.86132374  1
  O  O247  1  0.50004826  0.26094176  0.36871313  1
  O  O248  1  0.50385759  0.26206823  0.87581261  1
  O  O249  1  0.49695329  0.74122058  0.36485558  1
  O  O250  1  0.50767514  0.75566181  0.87191179  1
  O  O251  1  0.25475141  0.12390222  0.48421807  1
  O  O252  1  0.24320124  0.12939439  0.99072816  1
  O  O253  1  0.25348421  0.63507660  0.49624397  1
  O  O254  1  0.24199237  0.63121108  0.99726007  1
  O  O255  1  0.74566341  0.12977809  0.49326090  1
  O  O256  1  0.74999064  0.13524096  0.99369598  1
  O  O257  1  0.74242994  0.63919765  0.50869881  1
  O  O258  1  0.74337526  0.62708016  0.99014050  1
  O  O259  1  0.25622376  0.37150381  0.00058459  1
  O  O260  1  0.24928044  0.35944179  0.49315306  1
  O  O261  1  0.25964682  0.87261419  0.00302554  1
  O  O262  1  0.25900338  0.86317114  0.51000696  1
  O  O263  1  0.75427878  0.36350493  0.00102977  1
  O  O264  1  0.75665800  0.36400419  0.50391319  1
  O  O265  1  0.76529389  0.87480748  0.00126988  1
  O  O266  1  0.75418310  0.87294467  0.50808538  1
  O  O267  1  0.12288600  0.48747802  0.24149326  1
  O  O268  1  0.13929458  0.50582760  0.75548030  1
  O  O269  1  0.14728579  1.01533843  0.23804780  1
  O  O270  1  0.13936628  0.99416035  0.76327043  1
  O  O271  1  0.61722592  0.49987667  0.23468467  1
  O  O272  1  0.62908569  0.49478728  0.74708048  1
  O  O273  1  0.64860993  1.01256974  0.24605872  1
  O  O274  1  0.62702520  0.98336143  0.74575456  1
  O  O275  1  0.36504327  0.02513939  0.22739089  1
  O  O276  1  0.37024860  -0.00831116  0.76559488  1
  O  O277  1  0.37168692  0.50769726  0.25752738  1
  O  O278  1  0.36654493  0.50893148  0.75542616  1
  O  O279  1  0.86833198  0.00990324  0.25971172  1
  O  O280  1  0.88015108  0.00874675  0.75763072  1
  O  O281  1  0.86970058  0.50270551  0.25553520  1
  O  O282  1  0.86603332  0.49962799  0.75326670  1
  O  O283  1  0.11400403  0.36788655  0.36475171  1
  O  O284  1  0.11707670  0.36732726  0.87412879  1
  O  O285  1  0.16011513  0.86988242  0.36272034  1
  O  O286  1  0.12758938  0.86044594  0.87630983  1
  O  O287  1  0.61450092  0.37307736  0.37668704  1
  O  O288  1  0.61693955  0.36991925  0.87155915  1
  O  O289  1  0.62899015  0.87078562  0.36286631  1
  O  O290  1  0.62478339  0.87021058  0.86966263  1
  O  O291  1  0.37415662  0.14427019  0.12486202  1
  O  O292  1  0.38253487  0.12965204  0.62781086  1
  O  O293  1  0.38011398  0.62082261  0.13317489  1
  O  O294  1  0.37173617  0.63326221  0.63937271  1
  O  O295  1  0.88343549  0.13257362  0.13217563  1
  O  O296  1  0.87250443  0.13035450  0.63386915  1
  O  O297  1  0.88183267  0.63468517  0.12702747  1
  O  O298  1  0.89003933  0.62638804  0.61490520  1
  O  O299  1  0.25700115  0.25410652  0.11671240  1
  O  O300  1  0.24867516  0.24064497  0.60733685  1
  O  O301  1  0.25316818  0.76265587  0.11836719  1
  O  O302  1  0.26016412  0.75293491  0.62104439  1
  O  O303  1  0.76432880  0.24974181  0.11593765  1
  O  O304  1  0.75543381  0.24839527  0.62007019  1
  O  O305  1  0.76595973  0.73988503  0.13085670  1
  O  O306  1  0.74952948  0.76294745  0.61592687  1
  O  O307  1  0.24561833  0.23401180  0.37764268  1
  O  O308  1  0.24186472  0.24407180  0.88246281  1
  O  O309  1  0.25724823  0.73620171  0.39272463  1
  O  O310  1  0.24281661  0.74492937  0.88273934  1
  O  O311  1  0.75120085  0.23768563  0.38415892  1
  O  O312  1  0.74565429  0.24172211  0.88347003  1
  O  O313  1  0.74735787  0.75409527  0.39000327  1
  O  O314  1  0.74586040  0.73784254  0.87196276  1
  O  O315  1  0.00697701  0.11702338  0.00486305  1
  O  O316  1  -0.00203060  0.11765375  0.52072899  1
  O  O317  1  0.00385540  0.61798353  0.00485164  1
  O  O318  1  -0.00355705  0.60495297  0.50291623  1
  O  O319  1  0.51636606  0.11523618  -0.00275551  1
  O  O320  1  0.51285357  0.12606846  0.48699859  1
  O  O321  1  0.50304147  0.61942562  0.00611209  1
  O  O322  1  0.50579532  0.61196798  0.49901939  1
  O  O323  1  0.49979805  0.38708415  0.49010270  1
  O  O324  1  0.49230593  0.38001568  0.99300001  1
  O  O325  1  0.48171525  0.86623467  0.50045021  1
  O  O326  1  0.49602858  0.87981914  0.99693428  1
  O  O327  1  0.99281933  0.37805068  0.49523946  1
  O  O328  1  0.99433386  0.38256528  0.99284325  1
  O  O329  1  0.98773713  0.88731779  0.51315282  1
  O  O330  1  0.98964943  0.88585693  1.00682627  1
  O  O331  1  0.49208896  0.49488426  0.38140139  1
  O  O332  1  0.49246212  0.49405722  0.88301149  1
  O  O333  1  0.48449324  0.99068327  0.32355948  1
  O  O334  1  0.49597347  0.99174349  0.88624002  1
  O  O335  1  0.99881130  0.48477349  0.38975176  1
  O  O336  1  0.99380859  0.49843011  0.87756594  1
  O  O337  1  0.98858424  1.01915835  0.39736550  1
  O  O338  1  0.98839309  1.00540222  0.88419541  1
  O  O339  1  -0.00819169  0.01309979  0.11237115  1
  O  O340  1  -0.00063442  0.01374678  0.62323457  1
  O  O341  1  0.00492383  0.50764270  0.12235180  1
  O  O342  1  0.00051462  0.50619065  0.61344873  1
  O  O343  1  0.50100878  -0.00225773  0.11579597  1
  O  O344  1  0.51376283  -0.00094432  0.63179880  1
  O  O345  1  0.50554259  0.50801450  0.11989451  1
  O  O346  1  0.50743286  0.49718424  0.61904096  1
  O  O347  1  0.23744090  0.37613856  0.25028443  1
  O  O348  1  0.24627816  0.39753718  0.76303491  1
  O  O349  1  0.26509744  0.89751931  0.23247566  1
  O  O350  1  0.25057207  0.88179363  0.74507715  1
  O  O351  1  0.74602387  0.36948666  0.24494690  1
  O  O352  1  0.73919660  0.38315806  0.75344871  1
  O  O353  1  0.75761641  0.89454413  0.25139899  1
  O  O354  1  0.74109257  0.86597594  0.74131013  1
  O  O355  1  0.25914310  0.12361035  0.25308115  1
  O  O356  1  0.24283476  0.11425736  0.76604390  1
  O  O357  1  0.25487534  0.62329151  0.25800405  1
  O  O358  1  0.25626296  0.62008279  0.75723852  1
  O  O359  1  0.76439169  0.12312101  0.25792490  1
  O  O360  1  0.75785530  0.12907447  0.76158694  1
  O  O361  1  0.74955736  0.61597712  0.26210207  1
  O  O362  1  0.75111065  0.61777897  0.75521744  1
  O  O363  1  0.36875521  0.12424002  0.36325270  1
  O  O364  1  0.36754879  0.11572205  0.87907775  1
  O  O365  1  0.36796152  0.61241830  0.36978444  1
  O  O366  1  0.36797268  0.62284200  0.86824825  1
  O  O367  1  0.87146973  0.12200984  0.36992176  1
  O  O368  1  0.86984753  0.11792099  0.86804106  1
  O  O369  1  0.86869946  0.61616878  0.38453047  1
  O  O370  1  0.86603649  0.61793233  0.87285670  1
  O  O371  1  0.11973174  0.38127717  0.13065072  1
  O  O372  1  0.11543535  0.37957748  0.63388955  1
  O  O373  1  0.13921632  0.89009682  0.10488099  1
  O  O374  1  0.14353158  0.87099310  0.62995831  1
  O  O375  1  0.62445491  0.39172097  0.12128242  1
  O  O376  1  0.62497701  0.38475408  0.63434610  1
  O  O377  1  0.62601179  0.87944118  0.13669099  1
  O  O378  1  0.62854754  0.87827792  0.63098548  1
  O  O379  1  0.12361046  0.25808011  0.24785824  1
  O  O380  1  0.12201934  0.24987282  0.76351183  1
  O  O381  1  0.10867973  0.76749066  0.21600836  1
  O  O382  1  0.11872612  0.74831213  0.75998984  1
  O  O383  1  0.61741761  0.25238896  0.25085277  1
  O  O384  1  0.63411778  0.26352418  0.75829643  1
  O  O385  1  0.60756152  0.73897593  0.25354499  1
  O  O386  1  0.61950383  0.75540134  0.75456260  1
  O  O387  1  0.37972890  0.24685474  0.24205312  1
  O  O388  1  0.35638563  0.24131993  0.75328434  1
  O  O389  1  0.38353597  0.73164975  0.24787696  1
  O  O390  1  0.37947554  0.74479234  0.74696365  1
  O  O391  1  0.87601184  0.24143039  0.24108090  1
  O  O392  1  0.87794187  0.24027853  0.74474280  1
  O  O393  1  0.87762815  0.75159584  0.25023476  1
  O  O394  1  0.88382976  0.74403209  0.74297313  1
  O  O395  1  0.38100286  0.49845551  0.49541736  1
  O  O396  1  0.37735617  0.49187761  0.99801992  1
  O  O397  1  0.37163174  0.98295665  0.49675065  1
  O  O398  1  0.38467296  0.99573290  0.99239796  1
  O  O399  1  0.88363100  0.48341795  0.50689397  1
  O  O400  1  0.87815258  0.49518367  0.99435607  1
  O  O401  1  0.87639466  0.99391229  0.49634090  1
  O  O402  1  0.88176606  0.99367174  0.99267930  1
  O  O403  1  0.11667805  0.01053999  -0.01187719  1
  O  O404  1  0.11639523  -0.00387023  0.50192485  1
  O  O405  1  0.11750473  0.50601716  0.00708497  1
  O  O406  1  0.11267152  0.49228240  0.49885131  1
  O  O407  1  0.62045580  0.00704526  0.00296702  1
  O  O408  1  0.62898398  0.00850230  0.50719544  1
  O  O409  1  0.61786779  0.50631725  0.00571077  1
  O  O410  1  0.61985606  0.50594148  0.51079990  1
  O  O411  1  0.37197513  0.37284379  0.11937154  1
  O  O412  1  0.37542010  0.36472267  0.62478256  1
  O  O413  1  0.37280354  0.87732182  0.11103104  1
  O  O414  1  0.36854643  0.86665257  0.62025475  1
  O  O415  1  0.87856171  0.36793913  0.11748872  1
  O  O416  1  0.87329215  0.35936240  0.62060640  1
  O  O417  1  0.88025876  0.85562542  0.12179202  1
  O  O418  1  0.86465641  0.87745104  0.62027459  1
  O  O419  1  0.14188781  0.11679265  0.36658722  1
  O  O420  1  0.12965898  0.13326250  0.88318506  1
  O  O421  1  0.13659469  0.61541204  0.36963441  1
  O  O422  1  0.12919840  0.63435706  0.88355332  1
  O  O423  1  0.63551797  0.12622153  0.38060701  1
  O  O424  1  0.63747416  0.12721994  0.88764745  1
  O  O425  1  0.62214077  0.62430752  0.39117695  1
  O  O426  1  0.63203554  0.62877161  0.87948254  1
