# generated using pymatgen
data_V85Zn86O256
_symmetry_space_group_name_H-M   'P 1'
_cell_length_a   16.91808445
_cell_length_b   16.91983498
_cell_length_c   16.91795137
_cell_angle_alpha   90.02067241
_cell_angle_beta   90.00292856
_cell_angle_gamma   89.99043325
_symmetry_Int_Tables_number   1
_chemical_formula_structural   V85Zn86O256
_chemical_formula_sum   'V85 Zn86 O256'
_cell_volume   4842.78343952
_cell_formula_units_Z   1
loop_
 _symmetry_equiv_pos_site_id
 _symmetry_equiv_pos_as_xyz
  1  'x, y, z'
loop_
 _atom_site_type_symbol
 _atom_site_label
 _atom_site_symmetry_multiplicity
 _atom_site_fract_x
 _atom_site_fract_y
 _atom_site_fract_z
 _atom_site_occupancy
  V  V0  1  0.40177386  0.09800977  0.27111380  1
  V  V1  1  0.49063419  0.13480108  0.62568060  1
  V  V2  1  0.00182982  0.74802373  0.74829891  1
  V  V3  1  0.37865682  0.74700404  0.12426995  1
  V  V4  1  0.61224110  -0.00542108  0.62683301  1
  V  V5  1  -0.00050466  0.00000242  0.50017494  1
  V  V6  1  0.74967816  0.62352358  0.37254001  1
  V  V7  1  0.00106682  0.61586761  0.61567352  1
  V  V8  1  -0.02202922  0.24898585  0.74900995  1
  V  V9  1  0.37159797  0.37187873  0.51346234  1
  V  V10  1  0.25357701  0.37836542  0.13333488  1
  V  V11  1  0.74627550  0.49370908  0.75021699  1
  V  V12  1  0.12712950  0.87333500  0.74803069  1
  V  V13  1  0.50131764  0.75343203  0.25455365  1
  V  V14  1  -0.01661970  0.12655581  0.62892655  1
  V  V15  1  0.75189507  0.75430586  -0.00030985  1
  V  V16  1  0.25169787  0.12369655  0.87662361  1
  V  V17  1  0.62132337  0.62594517  0.49952091  1
  V  V18  1  -0.00122182  0.74526755  0.25068514  1
  V  V19  1  0.74695997  0.36039918  0.61595129  1
  V  V20  1  0.36396550  0.62926024  0.76483777  1
  V  V21  1  -0.00266171  0.12892634  0.12523279  1
  V  V22  1  0.49702012  0.75084259  0.74568898  1
  V  V23  1  0.87280063  0.00229612  0.86697228  1
  V  V24  1  0.24871099  0.62025739  0.36483433  1
  V  V25  1  0.87924940  0.49900269  0.87730496  1
  V  V26  1  0.62190122  0.12964484  0.50426232  1
  V  V27  1  0.49990920  0.11616749  0.11495474  1
  V  V28  1  0.00308814  0.87406145  0.87489976  1
  V  V29  1  0.50132773  0.25338356  0.25211597  1
  V  V30  1  0.12993472  0.50021340  0.13266211  1
  V  V31  1  0.62582844  0.49791748  0.62611615  1
  V  V32  1  0.86475069  0.37331148  0.00713783  1
  V  V33  1  0.24522502  0.00431636  0.25280570  1
  V  V34  1  0.26338746  0.87100318  0.62260396  1
  V  V35  1  0.63052780  0.13249366  -0.00402992  1
  V  V36  1  0.12240931  0.00143939  0.12295713  1
  V  V37  1  0.25176113  0.12492889  0.37676363  1
  V  V38  1  0.25194711  -0.00066039  0.75163082  1
  V  V39  1  0.86042507  0.25421737  0.12505012  1
  V  V40  1  0.12768855  0.37184205  0.74831241  1
  V  V41  1  0.38233122  0.88477170  0.47773629  1
  V  V42  1  0.87622097  0.62119058  0.74882910  1
  V  V43  1  -0.00072567  0.00219149  -0.00305925  1
  V  V44  1  0.74418460  0.87561484  0.63228782  1
  V  V45  1  0.75042052  0.12482877  0.38367406  1
  V  V46  1  0.25257230  0.25067170  0.51444683  1
  V  V47  1  0.12910324  0.62239381  -0.00655699  1
  V  V48  1  0.62093838  0.76112377  0.37751613  1
  V  V49  1  0.37701309  0.24702874  0.12793743  1
  V  V50  1  0.12410842  0.12721754  0.00000926  1
  V  V51  1  0.38075419  0.38035781  -0.01092733  1
  V  V52  1  0.38143321  0.00211357  0.87997945  1
  V  V53  1  -0.00282480  0.62265552  0.12501270  1
  V  V54  1  0.49666850  0.49827205  0.49815683  1
  V  V55  1  0.75125704  0.87960383  0.13455521  1
  V  V56  1  0.25234479  0.49678657  0.76275082  1
  V  V57  1  0.49911018  0.26864467  0.75860868  1
  V  V58  1  0.25124444  0.25056932  0.00059147  1
  V  V59  1  -0.00029385  0.87490069  0.37544940  1
  V  V60  1  0.86580964  0.11935886  0.24901541  1
  V  V61  1  0.25187522  0.87560258  0.12482537  1
  V  V62  1  0.87921233  0.50341589  0.38623486  1
  V  V63  1  0.62561723  0.62755078  0.00303138  1
  V  V64  1  0.62867907  -0.00142896  0.12182547  1
  V  V65  1  0.87486808  0.74810846  0.12911189  1
  V  V66  1  0.37245926  0.49433246  0.36317934  1
  V  V67  1  0.62990531  0.37501945  0.24439615  1
  V  V68  1  0.62764707  0.75244359  0.86643660  1
  V  V69  1  0.75779580  0.49620678  0.24561149  1
  V  V70  1  0.75146748  0.13089616  0.86973191  1
  V  V71  1  0.13091348  0.49389356  0.61780361  1
  V  V72  1  0.12400373  0.24979405  0.87293153  1
  V  V73  1  0.12517573  0.00044837  0.62423402  1
  V  V74  1  0.87246700  0.87562767  0.50107374  1
  V  V75  1  0.25579420  0.74609596  0.50016066  1
  V  V76  1  0.50591475  0.87773822  0.87228231  1
  V  V77  1  0.12330459  0.87438327  0.24997998  1
  V  V78  1  0.87448540  0.74868946  0.62428456  1
  V  V79  1  0.12464549  0.25091650  0.37777940  1
  V  V80  1  0.87949044  0.35946683  0.50278329  1
  V  V81  1  0.38453272  0.87526745  0.00347763  1
  V  V82  1  0.25416509  0.74676441  -0.00768398  1
  V  V83  1  0.48517011  0.62596201  0.62512362  1
  V  V84  1  -0.00164376  0.25359081  0.25076296  1
  Zn  Zn85  1  0.12387845  0.12681655  0.50363939  1
  Zn  Zn86  1  0.75399296  0.62986059  0.87350149  1
  Zn  Zn87  1  0.62094440  0.27545987  0.87634927  1
  Zn  Zn88  1  0.37426071  0.13293777  0.74868071  1
  Zn  Zn89  1  0.74712965  0.75100580  0.50038398  1
  Zn  Zn90  1  0.37612249  0.62112351  0.24760366  1
  Zn  Zn91  1  0.12932179  0.37724268  0.25343805  1
  Zn  Zn92  1  0.12546385  0.74697497  0.37662845  1
  Zn  Zn93  1  0.86725608  -0.00549229  0.36744127  1
  Zn  Zn94  1  -0.00287731  0.37157924  0.87728454  1
  Zn  Zn95  1  0.62772018  0.49800063  0.12332474  1
  Zn  Zn96  1  0.50455882  0.62087320  0.12884171  1
  Zn  Zn97  1  0.62675897  0.88596878  0.25880900  1
  Zn  Zn98  1  0.12998189  0.74232681  0.87079834  1
  Zn  Zn99  1  0.74471048  0.00036950  0.75030549  1
  Zn  Zn100  1  0.63022057  0.25464462  0.38075070  1
  Zn  Zn101  1  0.50616025  0.49051387  -0.00732625  1
  Zn  Zn102  1  0.00205782  0.49587085  0.00240541  1
  Zn  Zn103  1  0.87632258  0.87656037  0.00055347  1
  Zn  Zn104  1  0.00390912  0.38039978  0.38168503  1
  Zn  Zn105  1  0.12489021  0.62170061  0.49635392  1
  Zn  Zn106  1  0.50109237  0.37280284  0.37716892  1
  Zn  Zn107  1  0.18832568  0.18918218  0.19033602  1
  Zn  Zn108  1  0.18376613  0.18252381  0.68995593  1
  Zn  Zn109  1  0.18741916  0.68794176  0.18408340  1
  Zn  Zn110  1  0.18841863  0.68581849  0.68170527  1
  Zn  Zn111  1  0.68556005  0.18422145  0.19106456  1
  Zn  Zn112  1  0.67852134  0.18626689  0.69390991  1
  Zn  Zn113  1  0.68888518  0.68701991  0.19224350  1
  Zn  Zn114  1  0.68689604  0.68475419  0.68503801  1
  Zn  Zn115  1  0.31666001  0.30741893  0.31567030  1
  Zn  Zn116  1  0.31285207  0.31111375  0.80715459  1
  Zn  Zn117  1  0.31015483  0.80842846  0.31103571  1
  Zn  Zn118  1  0.31829798  0.81267422  0.81226559  1
  Zn  Zn119  1  0.81218859  0.31168927  0.31760174  1
  Zn  Zn120  1  0.78391452  0.33011241  0.82535919  1
  Zn  Zn121  1  0.81152821  0.80820899  0.31332222  1
  Zn  Zn122  1  0.81646662  0.81489170  0.81122373  1
  Zn  Zn123  1  0.19329465  0.43472376  0.43681071  1
  Zn  Zn124  1  0.18810307  0.43463325  0.94125694  1
  Zn  Zn125  1  0.19011655  0.93588095  0.43818411  1
  Zn  Zn126  1  0.18979295  0.93516583  0.93857146  1
  Zn  Zn127  1  0.68730083  0.43529142  0.43613474  1
  Zn  Zn128  1  0.69192086  0.44292785  0.93858115  1
  Zn  Zn129  1  0.68793171  0.94531255  0.44523411  1
  Zn  Zn130  1  0.68531165  0.94158913  0.94324649  1
  Zn  Zn131  1  0.31484866  0.06123587  0.06448674  1
  Zn  Zn132  1  0.31405812  0.05859688  0.55864853  1
  Zn  Zn133  1  0.31250958  0.56160175  0.06183752  1
  Zn  Zn134  1  0.30724328  0.55599716  0.55873699  1
  Zn  Zn135  1  0.81254098  0.06314287  0.05831220  1
  Zn  Zn136  1  0.80605836  0.05877786  0.56132600  1
  Zn  Zn137  1  0.81314849  0.56518877  0.06147138  1
  Zn  Zn138  1  0.80970559  0.56174277  0.55970709  1
  Zn  Zn139  1  0.44377502  0.43753248  0.17914116  1
  Zn  Zn140  1  0.43418790  0.44358468  0.69098189  1
  Zn  Zn141  1  0.44575272  0.94174067  0.20658636  1
  Zn  Zn142  1  0.43834392  0.94011782  0.69120685  1
  Zn  Zn143  1  0.93715873  0.43828875  0.19133431  1
  Zn  Zn144  1  0.93774976  0.43249196  0.68360795  1
  Zn  Zn145  1  0.93712788  0.93667422  0.18585872  1
  Zn  Zn146  1  0.93642375  0.93744271  0.68709919  1
  Zn  Zn147  1  0.05905990  0.06611113  0.31492350  1
  Zn  Zn148  1  0.06041462  0.06568440  0.80923591  1
  Zn  Zn149  1  0.06137690  0.56283367  0.31182156  1
  Zn  Zn150  1  0.06274902  0.55933085  0.80890960  1
  Zn  Zn151  1  0.57298760  0.06517471  0.30822325  1
  Zn  Zn152  1  0.56283877  0.06485356  0.80810046  1
  Zn  Zn153  1  0.56232732  0.56275991  0.31143671  1
  Zn  Zn154  1  0.56422120  0.55853728  0.81446410  1
  Zn  Zn155  1  0.44006570  0.18960530  0.44220446  1
  Zn  Zn156  1  0.44107256  0.19225005  0.93673600  1
  Zn  Zn157  1  0.43282096  0.68830447  0.43572341  1
  Zn  Zn158  1  0.45782972  0.65335117  0.91832668  1
  Zn  Zn159  1  0.93754184  0.18448329  0.43707350  1
  Zn  Zn160  1  0.93156075  0.19151096  0.93630946  1
  Zn  Zn161  1  0.93595209  0.68749760  0.43719726  1
  Zn  Zn162  1  0.94073262  0.68743028  0.93915836  1
  Zn  Zn163  1  0.05856150  0.31641928  0.06268548  1
  Zn  Zn164  1  0.05947962  0.31045240  0.56598722  1
  Zn  Zn165  1  0.06493831  0.81048261  0.06051982  1
  Zn  Zn166  1  0.06614606  0.80953111  0.56163242  1
  Zn  Zn167  1  0.56304380  0.31177167  0.06322328  1
  Zn  Zn168  1  0.56095102  0.31122620  0.56525799  1
  Zn  Zn169  1  0.56370349  0.81023020  0.06270757  1
  Zn  Zn170  1  0.55493697  0.81360359  0.56029472  1
  O  O171  1  0.11879704  0.12219095  0.11959997  1
  O  O172  1  0.11634624  0.11075034  0.62691219  1
  O  O173  1  0.11855447  0.61893267  0.11797148  1
  O  O174  1  0.11774750  0.61204048  0.62358030  1
  O  O175  1  0.62123821  0.12267358  0.11379162  1
  O  O176  1  0.61487613  0.11784086  0.62135734  1
  O  O177  1  0.63134102  0.62372973  0.11735009  1
  O  O178  1  0.61768745  0.61925878  0.61402936  1
  O  O179  1  0.37688030  0.38118041  0.38168809  1
  O  O180  1  0.36518902  0.37119702  0.89178751  1
  O  O181  1  0.37213627  0.87646673  0.37761439  1
  O  O182  1  0.38483091  0.88015954  0.88317218  1
  O  O183  1  0.87379846  0.38333925  0.38856697  1
  O  O184  1  0.87184339  0.38266017  0.88788559  1
  O  O185  1  0.87888073  0.87439847  0.38256267  1
  O  O186  1  0.88806864  0.88040308  0.87671564  1
  O  O187  1  0.24059730  0.01399210  0.36631302  1
  O  O188  1  0.25680746  0.00387420  0.87185374  1
  O  O189  1  0.25942061  0.50694295  0.37674463  1
  O  O190  1  0.24257972  0.50104127  0.86137092  1
  O  O191  1  0.75096290  0.01544283  0.37664672  1
  O  O192  1  0.75710417  0.00318091  0.87423381  1
  O  O193  1  0.75843918  0.50542995  0.37140029  1
  O  O194  1  0.76412891  0.50931884  0.86476833  1
  O  O195  1  0.24367170  0.49019966  0.12429137  1
  O  O196  1  0.23468853  0.50306303  0.63487895  1
  O  O197  1  0.23801008  0.99570453  0.12645299  1
  O  O198  1  0.24233541  0.99447624  0.62989280  1
  O  O199  1  0.75512959  0.50672786  0.14329777  1
  O  O200  1  0.73732344  0.50117247  0.62756565  1
  O  O201  1  0.74565241  0.98923334  0.11723939  1
  O  O202  1  0.73926207  0.99202208  0.62805591  1
  O  O203  1  0.00065567  0.36278988  0.25487324  1
  O  O204  1  0.00572483  0.36217165  0.75136853  1
  O  O205  1  0.00314714  0.86573590  0.25332742  1
  O  O206  1  0.00563107  0.86903152  0.75511397  1
  O  O207  1  0.50610980  0.36555403  0.24934837  1
  O  O208  1  0.49801481  0.36844442  0.74731310  1
  O  O209  1  0.50987413  0.85917996  0.24892261  1
  O  O210  1  0.49185585  0.86275281  0.75919921  1
  O  O211  1  0.50567322  0.14119706  0.23465580  1
  O  O212  1  0.49567505  0.12737582  0.73750246  1
  O  O213  1  0.49891221  0.63597043  0.24735236  1
  O  O214  1  0.48359960  0.62890424  0.74429529  1
  O  O215  1  0.99237712  0.13585246  0.24647853  1
  O  O216  1  0.99865739  0.13907385  0.74440354  1
  O  O217  1  1.00491297  0.63810344  0.24156009  1
  O  O218  1  0.99184697  0.62760523  0.74115738  1
  O  O219  1  0.36998882  0.25506259  0.00867665  1
  O  O220  1  0.36822309  0.26308580  0.49808829  1
  O  O221  1  0.36914067  0.75765545  0.00805376  1
  O  O222  1  0.36183950  0.75966465  0.49394392  1
  O  O223  1  0.87650316  0.26378492  0.00905449  1
  O  O224  1  0.87323750  0.26067025  0.49635067  1
  O  O225  1  0.87064068  0.75197678  0.00974716  1
  O  O226  1  0.87413521  0.76041825  0.50568570  1
  O  O227  1  0.13188338  0.24984702  0.49482351  1
  O  O228  1  0.12971983  0.24662983  0.99462139  1
  O  O229  1  0.13798192  0.74762514  0.49697004  1
  O  O230  1  0.13501989  0.74118049  0.99973898  1
  O  O231  1  0.62028724  0.23631999  0.49991185  1
  O  O232  1  0.62231495  0.23785079  0.99457030  1
  O  O233  1  0.62331695  0.74213158  0.49513046  1
  O  O234  1  0.63659882  0.75011069  0.99060459  1
  O  O235  1  0.48947852  0.24429543  0.12745996  1
  O  O236  1  0.50039183  0.23937032  0.63482364  1
  O  O237  1  0.49269444  0.75028491  0.13337890  1
  O  O238  1  0.50850069  0.74004038  0.63810970  1
  O  O239  1  0.99480441  0.24497707  0.13372118  1
  O  O240  1  0.99955573  0.24102535  0.63941802  1
  O  O241  1  0.99417838  0.74540227  0.12969574  1
  O  O242  1  0.99502093  0.74216272  0.63046606  1
  O  O243  1  0.00826007  0.24970113  0.36944782  1
  O  O244  1  0.00467709  0.24775969  0.86302463  1
  O  O245  1  0.00015468  0.75394245  0.36615476  1
  O  O246  1  0.00316763  0.75825905  0.86882059  1
  O  O247  1  0.50327762  0.24934762  0.36431525  1
  O  O248  1  0.50383528  0.25460763  0.86462633  1
  O  O249  1  0.51097467  0.74254311  0.36918068  1
  O  O250  1  0.50837713  0.75186426  0.86375566  1
  O  O251  1  0.24919218  0.13091866  0.49276297  1
  O  O252  1  0.24522370  0.13097867  0.99711259  1
  O  O253  1  0.24973040  0.63113818  0.49132698  1
  O  O254  1  0.24235223  0.63502826  1.00575709  1
  O  O255  1  0.74301471  0.12538748  0.49154740  1
  O  O256  1  0.73703013  0.12156395  0.99173220  1
  O  O257  1  0.73928912  0.62601391  0.49176197  1
  O  O258  1  0.74660049  0.63947275  0.99920822  1
  O  O259  1  0.25567116  0.36654576  0.01139995  1
  O  O260  1  0.26220400  0.36526343  0.49898561  1
  O  O261  1  0.25928065  0.86949166  0.00703560  1
  O  O262  1  0.25688244  0.86764917  0.50494703  1
  O  O263  1  0.76607431  0.38440908  0.01003148  1
  O  O264  1  0.75735629  0.37561867  0.50937652  1
  O  O265  1  0.75275447  0.86537643  0.00742687  1
  O  O266  1  0.75776342  0.87420605  0.51032829  1
  O  O267  1  0.12119510  0.49690978  0.23759954  1
  O  O268  1  0.13387638  0.49300605  0.74479427  1
  O  O269  1  0.12884273  0.99807118  0.24422818  1
  O  O270  1  0.13071776  0.99424696  0.74429556  1
  O  O271  1  0.63771326  0.49372509  0.25123098  1
  O  O272  1  0.63504879  0.51013613  0.74084271  1
  O  O273  1  0.62739173  1.00093182  0.23052062  1
  O  O274  1  0.62509085  1.00107809  0.73213608  1
  O  O275  1  0.34905619  0.00379483  0.22891401  1
  O  O276  1  0.36792105  0.00001429  0.76421862  1
  O  O277  1  0.38185454  0.49790939  0.25959772  1
  O  O278  1  0.36036629  0.51182292  0.74820394  1
  O  O279  1  0.88339452  0.01474791  0.24962645  1
  O  O280  1  0.87369880  -0.00396623  0.76343665  1
  O  O281  1  0.86336272  0.49347300  0.26425685  1
  O  O282  1  0.87278132  0.50501105  0.75487250  1
  O  O283  1  0.12467063  0.36507707  0.37398030  1
  O  O284  1  0.12228437  0.37029026  0.86542019  1
  O  O285  1  0.11806039  0.87371244  0.36707012  1
  O  O286  1  0.11521963  0.87601249  0.86842423  1
  O  O287  1  0.62192515  0.37331033  0.36404917  1
  O  O288  1  0.67698679  0.37138927  0.85656986  1
  O  O289  1  0.63362019  0.86495863  0.37934902  1
  O  O290  1  0.61334787  0.86967844  0.88155746  1
  O  O291  1  0.38522792  0.12798547  0.13009634  1
  O  O292  1  0.38804675  0.11753966  0.62522222  1
  O  O293  1  0.37540523  0.63682049  0.12550556  1
  O  O294  1  0.38348876  0.61892261  0.62405621  1
  O  O295  1  0.87779603  0.13236280  0.13035402  1
  O  O296  1  0.88439819  0.11481174  0.62429269  1
  O  O297  1  0.88829911  0.63259912  0.12101296  1
  O  O298  1  0.88180146  0.62568034  0.62899358  1
  O  O299  1  0.26121953  0.25059428  0.12103048  1
  O  O300  1  0.24539736  0.24126837  0.61355653  1
  O  O301  1  0.25795771  0.75744632  0.11891525  1
  O  O302  1  0.24605372  0.76008645  0.61499615  1
  O  O303  1  0.76153433  0.24709608  0.13062481  1
  O  O304  1  0.74240233  0.26299997  0.63107083  1
  O  O305  1  0.75837059  0.75462633  0.12047001  1
  O  O306  1  0.75531808  0.75526478  0.62236579  1
  O  O307  1  0.24296005  0.24050281  0.38058199  1
  O  O308  1  0.24408392  0.24328411  0.87999915  1
  O  O309  1  0.24768863  0.73922790  0.38051512  1
  O  O310  1  0.24744726  0.76125754  0.88902329  1
  O  O311  1  0.74746300  0.23190548  0.36952913  1
  O  O312  1  0.75210613  0.23098819  0.87689881  1
  O  O313  1  0.74260085  0.73999105  0.37731901  1
  O  O314  1  0.74614070  0.75426973  0.88090314  1
  O  O315  1  0.00346694  0.12245850  0.00416401  1
  O  O316  1  0.00111218  0.11840456  0.50905315  1
  O  O317  1  0.00926269  0.62373825  0.00972080  1
  O  O318  1  0.00232023  0.62849192  0.51204060  1
  O  O319  1  0.51121173  0.12868653  0.00649112  1
  O  O320  1  0.50435077  0.12741815  0.51465167  1
  O  O321  1  0.52235032  0.64795067  0.01195109  1
  O  O322  1  0.50262200  0.62074114  0.50653885  1
  O  O323  1  0.48916248  0.37840246  0.50020935  1
  O  O324  1  0.48680459  0.37219213  0.99881292  1
  O  O325  1  0.48096768  0.87042108  0.49771786  1
  O  O326  1  0.48971106  0.86830933  0.99198580  1
  O  O327  1  0.98511874  0.37113825  0.50061316  1
  O  O328  1  0.98996059  0.37851038  0.99575993  1
  O  O329  1  0.99329171  0.87821584  0.49673350  1
  O  O330  1  1.00237046  0.88118870  0.99082976  1
  O  O331  1  0.49148555  0.49954807  0.38277931  1
  O  O332  1  0.49050859  0.54245800  0.89326820  1
  O  O333  1  0.46776750  1.02069582  0.30801717  1
  O  O334  1  0.49349080  0.99033389  0.86870615  1
  O  O335  1  0.98326070  0.49943547  0.36889353  1
  O  O336  1  0.98838096  0.49758438  0.87347892  1
  O  O337  1  0.99698517  0.99381187  0.38274254  1
  O  O338  1  0.99495977  0.99523549  0.87723063  1
  O  O339  1  0.00360887  0.00710022  0.11766025  1
  O  O340  1  0.00649530  0.00360492  0.62137988  1
  O  O341  1  0.00544895  0.50864911  0.12661510  1
  O  O342  1  0.01414406  0.50626931  0.63355114  1
  O  O343  1  0.50481332  0.01145894  0.12806560  1
  O  O344  1  0.50814610  0.00677626  0.62746075  1
  O  O345  1  0.50673932  0.50450035  0.11320709  1
  O  O346  1  0.50851775  0.50742042  0.62155489  1
  O  O347  1  0.25037756  0.36350937  0.23688338  1
  O  O348  1  0.24424009  0.38764867  0.75134479  1
  O  O349  1  0.24196884  0.88190627  0.24511486  1
  O  O350  1  0.24715994  0.87811838  0.74248642  1
  O  O351  1  0.74561912  0.38759280  0.25652263  1
  O  O352  1  0.76590870  0.39221400  0.72605867  1
  O  O353  1  0.74791530  0.86987972  0.23841483  1
  O  O354  1  0.75320181  0.87478571  0.73594825  1
  O  O355  1  0.25312981  0.11907267  0.25867049  1
  O  O356  1  0.25329403  0.11792053  0.75786360  1
  O  O357  1  0.25245082  0.63021142  0.26080673  1
  O  O358  1  0.25877201  0.61804419  0.74408652  1
  O  O359  1  0.75862521  0.12482531  0.25885151  1
  O  O360  1  0.74401137  0.12051744  0.76534706  1
  O  O361  1  0.74596495  0.61297162  0.26508858  1
  O  O362  1  0.76374916  0.61690738  0.74577433  1
  O  O363  1  0.36695946  0.13140533  0.36882024  1
  O  O364  1  0.37101363  0.11672434  0.87835808  1
  O  O365  1  0.36675696  0.61371265  0.37307272  1
  O  O366  1  0.35825291  0.63657119  0.86298476  1
  O  O367  1  0.86544566  0.12257741  0.36931583  1
  O  O368  1  0.86027334  0.11617596  0.88343628  1
  O  O369  1  0.86588460  0.61310915  0.38305253  1
  O  O370  1  0.87736235  0.62033710  0.86620748  1
  O  O371  1  0.13395685  0.38223617  0.12574550  1
  O  O372  1  0.11940410  0.38478134  0.63550320  1
  O  O373  1  0.12826027  0.88129627  0.13059386  1
  O  O374  1  0.13068547  0.88446933  0.62949592  1
  O  O375  1  0.62350832  0.37619247  0.13843126  1
  O  O376  1  0.63730103  0.38425738  0.61734676  1
  O  O377  1  0.63417641  0.88263371  0.12146614  1
  O  O378  1  0.62821891  0.88639993  0.61645781  1
  O  O379  1  0.11667603  0.25063125  0.25855927  1
  O  O380  1  0.12608499  0.25882513  0.75531741  1
  O  O381  1  0.11640864  0.75695785  0.24904572  1
  O  O382  1  0.12099151  0.75397265  0.75059624  1
  O  O383  1  0.61899632  0.25708303  0.25128292  1
  O  O384  1  0.60438372  0.24653885  0.75517341  1
  O  O385  1  0.62074026  0.75113223  0.26170589  1
  O  O386  1  0.61947528  0.74349311  0.76041454  1
  O  O387  1  0.38427156  0.24111747  0.24394314  1
  O  O388  1  0.39015886  0.24892702  0.75320709  1
  O  O389  1  0.38240742  0.74929752  0.24163083  1
  O  O390  1  0.37983211  0.73789666  0.74768935  1
  O  O391  1  0.88088275  0.24432752  0.24502523  1
  O  O392  1  0.88175325  0.25937019  0.75835708  1
  O  O393  1  0.88244835  0.75243179  0.23780496  1
  O  O394  1  0.88032970  0.74089466  0.74410585  1
  O  O395  1  0.37697683  0.48802251  0.49286429  1
  O  O396  1  0.37197769  0.48229307  1.00446905  1
  O  O397  1  0.36757425  0.98387658  0.49339182  1
  O  O398  1  0.37059031  0.99013848  0.98943569  1
  O  O399  1  0.87168795  0.49318396  0.48895394  1
  O  O400  1  0.87749496  0.49526122  0.99382480  1
  O  O401  1  0.87966182  0.98709587  0.49999723  1
  O  O402  1  0.88398780  0.99788341  0.99026219  1
  O  O403  1  0.11868659  0.00637824  0.00256711  1
  O  O404  1  0.11954384  -0.00009504  0.50865901  1
  O  O405  1  0.12497294  0.50607080  0.01089076  1
  O  O406  1  0.12993359  0.49640714  0.51423642  1
  O  O407  1  0.62375494  0.01294399  0.01165767  1
  O  O408  1  0.62632084  0.01334661  0.51556266  1
  O  O409  1  0.63018013  0.51316681  0.00123854  1
  O  O410  1  0.61761912  0.50637251  0.50472071  1
  O  O411  1  0.36995665  0.36448431  0.12068975  1
  O  O412  1  0.37448328  0.38255490  0.61199674  1
  O  O413  1  0.37379109  0.86907333  0.11977708  1
  O  O414  1  0.36439767  0.88060205  0.62299530  1
  O  O415  1  0.88185303  0.36870202  0.11611830  1
  O  O416  1  0.86419747  0.38019915  0.60882724  1
  O  O417  1  0.86937871  0.86766363  0.12230629  1
  O  O418  1  0.86808894  0.87017062  0.61922764  1
  O  O419  1  0.13076197  0.13598298  0.37803979  1
  O  O420  1  0.13056609  0.12868088  0.88081273  1
  O  O421  1  0.13280477  0.62284902  0.37735518  1
  O  O422  1  0.11803666  0.62348558  0.88889580  1
  O  O423  1  0.63311876  0.12384378  0.38416225  1
  O  O424  1  0.63374998  0.11797207  0.88575630  1
  O  O425  1  0.62986959  0.62868357  0.38594041  1
  O  O426  1  0.63368250  0.63777449  0.88276748  1
