# generated using pymatgen
data_V85Zn86O256
_symmetry_space_group_name_H-M   'P 1'
_cell_length_a   16.93467194
_cell_length_b   16.93604070
_cell_length_c   16.93702117
_cell_angle_alpha   89.97558370
_cell_angle_beta   89.93890406
_cell_angle_gamma   89.95715868
_symmetry_Int_Tables_number   1
_chemical_formula_structural   V85Zn86O256
_chemical_formula_sum   'V85 Zn86 O256'
_cell_volume   4857.63969985
_cell_formula_units_Z   1
loop_
 _symmetry_equiv_pos_site_id
 _symmetry_equiv_pos_as_xyz
  1  'x, y, z'
loop_
 _atom_site_type_symbol
 _atom_site_label
 _atom_site_symmetry_multiplicity
 _atom_site_fract_x
 _atom_site_fract_y
 _atom_site_fract_z
 _atom_site_occupancy
  V  V0  1  -0.00904208  0.12823863  0.62612942  1
  V  V1  1  0.74839097  0.25102381  0.00027057  1
  V  V2  1  0.25090091  0.12666019  0.37492593  1
  V  V3  1  -0.00277183  0.38462228  0.86869970  1
  V  V4  1  -0.00392208  0.00125215  0.00101651  1
  V  V5  1  -0.00359309  0.86803181  0.37606368  1
  V  V6  1  0.25211305  0.37865936  0.11868471  1
  V  V7  1  0.25042885  0.25015960  -0.00774479  1
  V  V8  1  0.88229608  0.60956784  0.75669067  1
  V  V9  1  0.62107590  -0.01034382  0.63000585  1
  V  V10  1  0.49914129  0.12597154  0.12436852  1
  V  V11  1  0.28799685  0.55335658  0.81702203  1
  V  V12  1  -0.00614411  0.50328406  -0.00235758  1
  V  V13  1  0.37394325  0.25265126  0.12460734  1
  V  V14  1  0.86838045  0.74450194  0.62716623  1
  V  V15  1  0.62993672  0.74140725  0.86809437  1
  V  V16  1  0.12409961  0.12374772  0.50039872  1
  V  V17  1  0.37205641  0.87380244  0.50021471  1
  V  V18  1  0.61817006  0.37635523  0.74903134  1
  V  V19  1  0.00027096  0.12916214  0.12494534  1
  V  V20  1  0.12139492  0.50778521  0.12093867  1
  V  V21  1  0.25322824  0.74862092  -0.00409430  1
  V  V22  1  0.87122259  0.00233917  0.37648365  1
  V  V23  1  0.74472689  0.00139564  0.25444714  1
  V  V24  1  0.49892699  0.00112287  0.49993373  1
  V  V25  1  0.50178007  0.25382106  0.25277320  1
  V  V26  1  0.12844123  0.12519071  -0.00569753  1
  V  V27  1  0.50177463  0.62312864  0.63294647  1
  V  V28  1  0.24552512  0.00315862  0.75792827  1
  V  V29  1  0.24419599  0.73983781  0.50098654  1
  V  V30  1  0.12721151  0.87802411  0.25137051  1
  V  V31  1  0.37539292  -0.00064048  0.37180191  1
  V  V32  1  0.11944235  0.62830294  0.00038863  1
  V  V33  1  0.62368536  -0.00108630  0.12497469  1
  V  V34  1  0.50401662  0.50566149  0.49817957  1
  V  V35  1  0.37937307  0.37813207  0.50348140  1
  V  V36  1  0.87375690  0.25445950  0.12180900  1
  V  V37  1  0.62875686  0.49649679  0.62301611  1
  V  V38  1  0.87121981  0.00216360  0.87828865  1
  V  V39  1  0.12060175  0.37732842  0.24510608  1
  V  V40  1  0.76449341  0.36456235  0.62309113  1
  V  V41  1  0.74246624  0.74206601  0.00270887  1
  V  V42  1  0.12299664  0.87470826  0.74901124  1
  V  V43  1  0.62217173  0.25407298  0.87475908  1
  V  V44  1  0.36957807  0.12532173  0.75530214  1
  V  V45  1  0.51001216  0.50311356  -0.00893168  1
  V  V46  1  0.88552123  0.62947870  0.24439639  1
  V  V47  1  0.12220241  -0.00052033  0.62513684  1
  V  V48  1  0.38279870  0.37942361  -0.01463847  1
  V  V49  1  0.91466195  0.81993497  0.05715663  1
  V  V50  1  0.04469209  0.42809214  0.42988379  1
  V  V51  1  0.64612565  0.74073009  0.37710207  1
  V  V52  1  0.25232241  0.25051013  0.50369668  1
  V  V53  1  0.12717515  0.74950631  0.87232500  1
  V  V54  1  0.37713442  0.87148431  -0.00343984  1
  V  V55  1  0.86886029  0.12798699  0.25402155  1
  V  V56  1  0.87041282  0.48876048  0.38267079  1
  V  V57  1  0.37395767  0.12756848  0.24891701  1
  V  V58  1  0.37412946  -0.00124002  0.87558536  1
  V  V59  1  0.62454471  0.12597335  -0.00096626  1
  V  V60  1  0.74567075  0.38317070  0.12521575  1
  V  V61  1  -0.00909187  0.25311042  0.74925268  1
  V  V62  1  0.23705810  0.39133104  0.63281464  1
  V  V63  1  0.50068465  -0.00164176  -0.00107050  1
  V  V64  1  0.11865016  0.24966861  0.37400867  1
  V  V65  1  0.62538763  0.38245440  0.25146706  1
  V  V66  1  0.74490685  -0.00710861  0.75192375  1
  V  V67  1  0.37899263  0.73755675  0.12632339  1
  V  V68  1  0.74662634  0.87211986  0.12051442  1
  V  V69  1  0.50854938  0.87252230  0.86772670  1
  V  V70  1  -0.00247435  -0.00147189  0.50005789  1
  V  V71  1  0.12327366  0.74245773  0.37504515  1
  V  V72  1  0.25383502  0.50805758  0.24511094  1
  V  V73  1  0.49846701  0.85981669  0.36801023  1
  V  V74  1  0.50014789  0.12537495  0.62591759  1
  V  V75  1  0.86190352  0.86954212  0.50204748  1
  V  V76  1  0.24646072  0.87469819  0.62488209  1
  V  V77  1  0.12520865  0.25439718  0.86750374  1
  V  V78  1  0.49767506  0.25268212  0.75357354  1
  V  V79  1  0.76168859  0.24448252  0.49620181  1
  V  V80  1  0.51831690  0.61812157  0.12606740  1
  V  V81  1  0.00250451  0.61540879  0.60206315  1
  V  V82  1  0.37623422  0.74542786  0.62957996  1
  V  V83  1  0.75008027  0.51045349  0.25283004  1
  V  V84  1  -0.00844654  0.87417104  0.87259223  1
  Zn  Zn85  1  0.37245113  0.25401402  0.62847018  1
  Zn  Zn86  1  0.50769608  0.75314968  0.74545947  1
  Zn  Zn87  1  0.63268558  0.24448818  0.37584881  1
  Zn  Zn88  1  0.00107888  0.74054617  0.74595036  1
  Zn  Zn89  1  0.61907365  0.86811857  0.24800012  1
  Zn  Zn90  1  0.74991191  0.12719896  0.87161011  1
  Zn  Zn91  1  0.25585678  0.87819362  0.12754115  1
  Zn  Zn92  1  0.24924185  0.00149152  0.24726639  1
  Zn  Zn93  1  0.12930814  0.00338556  0.12559942  1
  Zn  Zn94  1  0.38401004  0.62789280  0.25485655  1
  Zn  Zn95  1  0.50144084  0.37799616  0.37592804  1
  Zn  Zn96  1  -0.00558700  0.25739602  0.25246195  1
  Zn  Zn97  1  0.75408808  0.60817803  0.88146441  1
  Zn  Zn98  1  0.74090979  0.86676930  0.62767430  1
  Zn  Zn99  1  0.65760537  0.63057193  0.50179268  1
  Zn  Zn100  1  0.86865257  0.38588214  -0.00742604  1
  Zn  Zn101  1  0.75482815  0.49217925  0.75730139  1
  Zn  Zn102  1  0.86885222  0.12745573  0.74816113  1
  Zn  Zn103  1  0.25079101  0.62263477  0.37741335  1
  Zn  Zn104  1  0.37855188  0.50386144  0.37232866  1
  Zn  Zn105  1  0.63050482  0.12467553  0.49376313  1
  Zn  Zn106  1  -0.00287594  0.75201595  0.23323316  1
  Zn  Zn107  1  0.18769755  0.18988415  0.18496320  1
  Zn  Zn108  1  0.18405212  0.18781540  0.68672763  1
  Zn  Zn109  1  0.18826192  0.69185449  0.18346587  1
  Zn  Zn110  1  0.18042498  0.67993081  0.68091901  1
  Zn  Zn111  1  0.68617029  0.18972344  0.18838252  1
  Zn  Zn112  1  0.68657042  0.18335787  0.68502623  1
  Zn  Zn113  1  0.68780803  0.69242722  0.19291606  1
  Zn  Zn114  1  0.69354252  0.67897999  0.69182838  1
  Zn  Zn115  1  0.31121568  0.31880746  0.31367053  1
  Zn  Zn116  1  0.31097777  0.31617986  0.81058878  1
  Zn  Zn117  1  0.31127391  0.80853230  0.31084367  1
  Zn  Zn118  1  0.31304534  0.72182927  0.80965544  1
  Zn  Zn119  1  0.81246703  0.31800182  0.31422825  1
  Zn  Zn120  1  0.81059937  0.31746812  0.81283062  1
  Zn  Zn121  1  0.81295409  0.81469549  0.30699788  1
  Zn  Zn122  1  0.81241809  0.80742700  0.80958874  1
  Zn  Zn123  1  0.20654591  0.43730779  0.43716724  1
  Zn  Zn124  1  0.18169231  0.45107862  0.90937601  1
  Zn  Zn125  1  0.18725531  0.93517358  0.43517692  1
  Zn  Zn126  1  0.18696399  0.93480305  0.93762395  1
  Zn  Zn127  1  0.69008489  0.43105606  0.43871376  1
  Zn  Zn128  1  0.68341419  0.43616383  0.93499846  1
  Zn  Zn129  1  0.68084499  0.93785579  0.43673152  1
  Zn  Zn130  1  0.68886041  0.93154248  0.93907183  1
  Zn  Zn131  1  0.31067826  0.06305147  0.06131214  1
  Zn  Zn132  1  0.31292722  0.06258968  0.56619579  1
  Zn  Zn133  1  0.30558454  0.55507392  0.02974960  1
  Zn  Zn134  1  0.31513582  0.56199632  0.56784572  1
  Zn  Zn135  1  0.81103885  0.06274986  0.06369301  1
  Zn  Zn136  1  0.80839193  0.05929940  0.56420476  1
  Zn  Zn137  1  0.81106719  0.56577721  0.06759416  1
  Zn  Zn138  1  0.81922887  0.55019914  0.57224051  1
  Zn  Zn139  1  0.43951971  0.44257036  0.18153027  1
  Zn  Zn140  1  0.42825610  0.44259304  0.69288150  1
  Zn  Zn141  1  0.43548774  0.93496385  0.18587368  1
  Zn  Zn142  1  0.43429679  0.93514642  0.68910685  1
  Zn  Zn143  1  0.93502501  0.44122769  0.18532901  1
  Zn  Zn144  1  0.94842600  0.43802648  0.68132926  1
  Zn  Zn145  1  0.94141300  0.94533963  0.19399032  1
  Zn  Zn146  1  0.93195390  0.93712977  0.68824918  1
  Zn  Zn147  1  0.05856251  0.06321775  0.31214455  1
  Zn  Zn148  1  0.05846171  0.06579458  0.81414479  1
  Zn  Zn149  1  0.05984437  0.56778846  0.30769449  1
  Zn  Zn150  1  0.08014008  0.56126971  0.80384679  1
  Zn  Zn151  1  0.56165487  0.06298421  0.31369725  1
  Zn  Zn152  1  0.56298652  0.06377509  0.81204880  1
  Zn  Zn153  1  0.56542635  0.56784321  0.31225278  1
  Zn  Zn154  1  0.56427929  0.56188268  0.81316289  1
  Zn  Zn155  1  0.43985795  0.18872492  0.43744400  1
  Zn  Zn156  1  0.43616710  0.18826538  0.93494740  1
  Zn  Zn157  1  0.43451588  0.68160206  0.44378420  1
  Zn  Zn158  1  0.43914209  0.67495564  0.93113332  1
  Zn  Zn159  1  0.93552329  0.19107693  0.43854414  1
  Zn  Zn160  1  0.93727262  0.18945554  0.93567205  1
  Zn  Zn161  1  0.86527580  0.66278687  0.45278062  1
  Zn  Zn162  1  0.94096598  0.68419677  0.93143409  1
  Zn  Zn163  1  0.06170154  0.31693986  0.05663848  1
  Zn  Zn164  1  0.06272261  0.31052419  0.56722592  1
  Zn  Zn165  1  0.07740450  0.81908411  0.06171970  1
  Zn  Zn166  1  0.05364084  0.80365314  0.56023224  1
  Zn  Zn167  1  0.56297766  0.31781708  0.06506883  1
  Zn  Zn168  1  0.56639017  0.30964938  0.56098392  1
  Zn  Zn169  1  0.56203838  0.80657731  0.05947004  1
  Zn  Zn170  1  0.56173160  0.80907549  0.55404496  1
  O  O171  1  0.11650762  0.12829832  0.11530997  1
  O  O172  1  0.11600209  0.11793564  0.61868768  1
  O  O173  1  0.12595267  0.61896414  0.11570397  1
  O  O174  1  0.10308947  0.63682596  0.61394802  1
  O  O175  1  0.61760916  0.12086676  0.11971038  1
  O  O176  1  0.61005723  0.11448103  0.62534125  1
  O  O177  1  0.61607978  0.63121233  0.12413984  1
  O  O178  1  0.62364049  0.61253053  0.62228081  1
  O  O179  1  0.37482821  0.37957002  0.39001159  1
  O  O180  1  0.37690725  0.37137220  0.88712105  1
  O  O181  1  0.37968039  0.87910812  0.37893175  1
  O  O182  1  0.38730244  0.88060990  0.88866736  1
  O  O183  1  0.88754016  0.38949857  0.35968804  1
  O  O184  1  0.89207155  0.37091130  0.87698015  1
  O  O185  1  0.88000604  0.87969522  0.38178890  1
  O  O186  1  0.88592794  0.88150115  0.86904611  1
  O  O187  1  0.26249658  0.00451435  0.37501960  1
  O  O188  1  0.25343281  -0.00510402  0.86358047  1
  O  O189  1  0.25303521  0.50299478  0.35984080  1
  O  O190  1  0.27701218  0.51264525  0.91676751  1
  O  O191  1  0.75220513  -0.00689560  0.36114546  1
  O  O192  1  0.75536090  0.00010936  0.87184322  1
  O  O193  1  0.75997805  0.48761829  0.36437284  1
  O  O194  1  0.75110854  0.49439751  0.87175112  1
  O  O195  1  0.24147621  0.49450917  0.12208951  1
  O  O196  1  0.24638855  0.49156921  0.62312938  1
  O  O197  1  0.24824055  0.99708215  0.12821201  1
  O  O198  1  0.24264687  0.99437448  0.63280450  1
  O  O199  1  0.75299483  0.48860838  0.13232808  1
  O  O200  1  0.74332364  0.48322577  0.63121912  1
  O  O201  1  0.74279317  0.99452672  0.13147201  1
  O  O202  1  0.73759199  0.99726773  0.63325679  1
  O  O203  1  0.01647562  0.37418445  0.23751988  1
  O  O204  1  0.00205560  0.36963747  0.75920052  1
  O  O205  1  0.00533802  0.87388198  0.25801474  1
  O  O206  1  0.00946456  0.87865567  0.75662438  1
  O  O207  1  0.50669449  0.37088418  0.24795532  1
  O  O208  1  0.50734020  0.36681739  0.74284958  1
  O  O209  1  0.49815289  0.87788503  0.26489502  1
  O  O210  1  0.49751313  0.87561511  0.76441541  1
  O  O211  1  0.49244587  0.13309650  0.24311176  1
  O  O212  1  0.49185612  0.13058544  0.74455504  1
  O  O213  1  0.49905742  0.62038373  0.23149085  1
  O  O214  1  0.50608778  0.62829135  0.73672202  1
  O  O215  1  0.99352557  0.12881321  0.23757487  1
  O  O216  1  0.99778254  0.13279780  0.74256144  1
  O  O217  1  0.99157580  0.63214384  0.24401779  1
  O  O218  1  0.99577117  0.61976969  0.74964789  1
  O  O219  1  0.37012007  0.25782914  0.00305028  1
  O  O220  1  0.36850774  0.25720851  0.50210212  1
  O  O221  1  0.36998478  0.75388711  0.00102248  1
  O  O222  1  0.36710974  0.75771842  0.50840074  1
  O  O223  1  0.86805864  0.24878763  0.01048647  1
  O  O224  1  0.86204392  0.24717458  0.50341779  1
  O  O225  1  0.86743279  0.75298462  -0.00633771  1
  O  O226  1  0.87732123  0.76236252  0.51014781  1
  O  O227  1  0.13177097  0.24355360  0.49233428  1
  O  O228  1  0.13248115  0.24553781  0.99294785  1
  O  O229  1  0.13453222  0.76284049  0.48810671  1
  O  O230  1  0.13216570  0.74886366  0.99320011  1
  O  O231  1  0.63573607  0.24641977  0.49852061  1
  O  O232  1  0.62662321  0.24815143  0.99273567  1
  O  O233  1  0.62253816  0.74616827  0.48275003  1
  O  O234  1  0.63445695  0.75192496  0.98816294  1
  O  O235  1  0.49439207  0.24739947  0.13483495  1
  O  O236  1  0.49772356  0.24147414  0.63501433  1
  O  O237  1  0.48743182  0.73409353  0.11353829  1
  O  O238  1  0.49464294  0.74269182  0.62232383  1
  O  O239  1  0.99182594  0.24622808  0.12371370  1
  O  O240  1  1.00650941  0.24027046  0.63696025  1
  O  O241  1  0.98600074  0.76851833  0.11409461  1
  O  O242  1  0.98553209  0.74283778  0.62760830  1
  O  O243  1  0.01412453  0.24258730  0.37023939  1
  O  O244  1  0.00649308  0.25850457  0.86966749  1
  O  O245  1  0.00831248  0.76492621  0.37572254  1
  O  O246  1  0.00686948  0.76102126  0.87180927  1
  O  O247  1  0.49370100  0.25512210  0.36025402  1
  O  O248  1  0.50564953  0.24528941  0.86148203  1
  O  O249  1  0.49218182  0.76039421  0.37782029  1
  O  O250  1  0.51255255  0.75354690  0.87417648  1
  O  O251  1  0.24712289  0.13099709  0.49453441  1
  O  O252  1  0.24105370  0.13700999  1.00333430  1
  O  O253  1  0.25213719  0.63701675  0.50147926  1
  O  O254  1  0.23584330  0.64235641  1.00314840  1
  O  O255  1  0.74878451  0.13980424  0.51007764  1
  O  O256  1  0.74111896  0.13370880  1.00078748  1
  O  O257  1  0.76991822  0.62454840  0.50511764  1
  O  O258  1  0.75650952  0.63783544  0.99835939  1
  O  O259  1  0.26200471  0.36870000  0.00519824  1
  O  O260  1  0.25889218  0.36743652  0.50987384  1
  O  O261  1  0.25910142  0.86837006  0.00204967  1
  O  O262  1  0.25875018  0.87067836  0.50340955  1
  O  O263  1  0.75061547  0.36806751  0.00810070  1
  O  O264  1  0.74712432  0.36301852  0.51635920  1
  O  O265  1  0.75254476  0.86749349  0.01283468  1
  O  O266  1  0.75929918  0.88399174  0.50366783  1
  O  O267  1  0.12992598  0.49667285  0.23911770  1
  O  O268  1  0.18298468  0.51149810  0.80535744  1
  O  O269  1  0.12610541  0.99305341  0.25077042  1
  O  O270  1  0.12876973  0.99792343  0.74798407  1
  O  O271  1  0.63507712  0.49260117  0.25591070  1
  O  O272  1  0.62412317  0.48992646  0.74292731  1
  O  O273  1  0.62974003  0.99634632  0.24360709  1
  O  O274  1  0.63051658  1.00171519  0.74239094  1
  O  O275  1  0.37485198  0.00706004  0.25689382  1
  O  O276  1  0.36523918  0.00432457  0.75540023  1
  O  O277  1  0.36624389  0.50195375  0.24775590  1
  O  O278  1  0.35344323  0.49809241  0.76385031  1
  O  O279  1  0.86632694  0.00876634  0.25586751  1
  O  O280  1  0.86857876  0.00256506  0.76234623  1
  O  O281  1  0.86757765  0.50581087  0.25047678  1
  O  O282  1  0.87935631  0.50719345  0.74704706  1
  O  O283  1  0.11983478  0.37096091  0.36812450  1
  O  O284  1  0.11137996  0.36438184  0.88280300  1
  O  O285  1  0.11798684  0.87192081  0.36579811  1
  O  O286  1  0.11313687  0.87149152  0.86939695  1
  O  O287  1  0.62255954  0.36850584  0.36358369  1
  O  O288  1  0.62311347  0.36107987  0.86486206  1
  O  O289  1  0.60980350  0.86645921  0.37685169  1
  O  O290  1  0.61613614  0.86428182  0.88036212  1
  O  O291  1  0.37960430  0.13310803  0.12831015  1
  O  O292  1  0.38351937  0.12400646  0.63718693  1
  O  O293  1  0.37047167  0.63563216  0.11709782  1
  O  O294  1  0.38594230  0.63504924  0.62125183  1
  O  O295  1  0.88090396  0.13190540  0.13219196  1
  O  O296  1  0.88824897  0.11644669  0.62721685  1
  O  O297  1  0.87214694  0.62286860  0.14483430  1
  O  O298  1  0.88430456  0.62819581  0.63866024  1
  O  O299  1  0.25273971  0.25871377  0.11385632  1
  O  O300  1  0.25025343  0.24661338  0.61148114  1
  O  O301  1  0.26108923  0.75592472  0.11468951  1
  O  O302  1  0.25474959  0.75655556  0.61867173  1
  O  O303  1  0.75584915  0.25771688  0.12028057  1
  O  O304  1  0.74603114  0.25919332  0.62054769  1
  O  O305  1  0.74602290  0.75899199  0.11737432  1
  O  O306  1  0.76200190  0.75103144  0.63235725  1
  O  O307  1  0.24164707  0.24981520  0.38512589  1
  O  O308  1  0.24212573  0.25618121  0.88447086  1
  O  O309  1  0.24160461  0.75023726  0.38319366  1
  O  O310  1  0.23815550  0.76617671  0.88405693  1
  O  O311  1  0.75340825  0.25645221  0.39127098  1
  O  O312  1  0.74184353  0.25015009  0.88227020  1
  O  O313  1  0.74522374  0.75470818  0.37865608  1
  O  O314  1  0.73975358  0.75311170  0.88254216  1
  O  O315  1  0.00510052  0.12408244  0.00941336  1
  O  O316  1  0.00417432  0.12014059  0.50628904  1
  O  O317  1  0.01070877  0.62037067  -0.00359473  1
  O  O318  1  -0.02192723  0.63020892  0.50655261  1
  O  O319  1  0.50380036  0.12024097  0.00476453  1
  O  O320  1  0.49270673  0.11790989  0.51143403  1
  O  O321  1  0.49695185  0.61098305  0.00851161  1
  O  O322  1  0.50189562  0.61316153  0.51098303  1
  O  O323  1  0.49492192  0.38443876  0.50226938  1
  O  O324  1  0.48842350  0.37813837  1.00369164  1
  O  O325  1  0.48713137  0.87959539  0.49026413  1
  O  O326  1  0.49537815  0.87943764  0.99376576  1
  O  O327  1  0.99652335  0.36669652  0.49245660  1
  O  O328  1  0.99656585  0.38502334  0.98891493  1
  O  O329  1  0.99164706  0.88215654  0.49328561  1
  O  O330  1  0.99120534  0.87747817  0.99682344  1
  O  O331  1  0.50123575  0.49979758  0.38480121  1
  O  O332  1  0.50153131  0.50623039  0.89009717  1
  O  O333  1  0.48780394  0.99280511  0.37909418  1
  O  O334  1  0.49774311  0.99263409  0.88089684  1
  O  O335  1  0.99305288  0.49701805  0.37062452  1
  O  O336  1  1.01155764  0.48930008  0.87916620  1
  O  O337  1  0.99216492  0.99220342  0.37969804  1
  O  O338  1  0.99286355  0.99403359  0.88160831  1
  O  O339  1  0.00125550  0.01131573  0.11855567  1
  O  O340  1  0.00466033  0.00484238  0.62044263  1
  O  O341  1  0.01527207  0.49134815  0.11313266  1
  O  O342  1  -0.00181831  0.51401910  0.61636071  1
  O  O343  1  0.50403437  0.00454459  0.11908789  1
  O  O344  1  0.50206363  0.00432775  0.62238150  1
  O  O345  1  0.50236976  0.51327755  0.11722615  1
  O  O346  1  0.50585841  0.50537929  0.62213057  1
  O  O347  1  0.24134568  0.38528040  0.24081364  1
  O  O348  1  0.25164918  0.36514886  0.72954355  1
  O  O349  1  0.24126339  0.87787296  0.25074844  1
  O  O350  1  0.23291044  0.88544023  0.74270663  1
  O  O351  1  0.74309907  0.38117929  0.24277791  1
  O  O352  1  0.73590224  0.36844920  0.73945618  1
  O  O353  1  0.74836480  0.88348813  0.23758803  1
  O  O354  1  0.75450429  0.88859242  0.74845074  1
  O  O355  1  0.25627834  0.12733994  0.25674584  1
  O  O356  1  0.25728250  0.11587801  0.74399956  1
  O  O357  1  0.24974098  0.61447321  0.24476941  1
  O  O358  1  0.25472201  0.63728133  0.75424543  1
  O  O359  1  0.75817528  0.11546809  0.24185353  1
  O  O360  1  0.75035218  0.11260651  0.75117324  1
  O  O361  1  0.75289810  0.61296817  0.24660703  1
  O  O362  1  0.76810126  0.61576792  0.75217271  1
  O  O363  1  0.37110603  0.11801291  0.37019863  1
  O  O364  1  0.37861287  0.11675833  0.86305404  1
  O  O365  1  0.37019166  0.62366245  0.37105865  1
  O  O366  1  0.35767888  0.63096509  0.86470364  1
  O  O367  1  0.88146761  0.12197680  0.36001008  1
  O  O368  1  0.87257909  0.11645515  0.87296177  1
  O  O369  1  0.87578131  0.60229813  0.35693755  1
  O  O370  1  0.87503453  0.62698371  0.86000865  1
  O  O371  1  0.13638422  0.37976175  0.12651899  1
  O  O372  1  0.13863004  0.37370041  0.62071697  1
  O  O373  1  0.12817869  0.88065220  0.13953238  1
  O  O374  1  0.12370688  0.87895889  0.63134185  1
  O  O375  1  0.63512652  0.36843572  0.13842341  1
  O  O376  1  0.62527532  0.38404254  0.63117937  1
  O  O377  1  0.62886220  0.87892544  0.12636055  1
  O  O378  1  0.62038034  0.88519717  0.61920592  1
  O  O379  1  0.12869511  0.26051113  0.25790120  1
  O  O380  1  0.11763865  0.24144144  0.76405291  1
  O  O381  1  0.12100797  0.75920010  0.25475739  1
  O  O382  1  0.12262053  0.75956721  0.75558073  1
  O  O383  1  0.61587202  0.25657867  0.25144357  1
  O  O384  1  0.61643275  0.25269066  0.75505474  1
  O  O385  1  0.62792579  0.75361017  0.26985157  1
  O  O386  1  0.62842930  0.74964348  0.76305307  1
  O  O387  1  0.37841961  0.24892012  0.24441200  1
  O  O388  1  0.38009400  0.24211924  0.75024620  1
  O  O389  1  0.37053366  0.74764459  0.23028077  1
  O  O390  1  0.38242989  0.76585466  0.73154890  1
  O  O391  1  0.87331392  0.24501593  0.23934139  1
  O  O392  1  0.88732676  0.24722751  0.75659357  1
  O  O393  1  0.87789144  0.73508488  0.25783700  1
  O  O394  1  0.88010627  0.74091711  0.74348447  1
  O  O395  1  0.38469904  0.49411829  0.50027814  1
  O  O396  1  0.39182761  0.48201423  1.01170036  1
  O  O397  1  0.37681645  0.99240067  0.49383758  1
  O  O398  1  0.37970707  0.99360094  0.99491898  1
  O  O399  1  0.87035590  0.49062201  0.48226342  1
  O  O400  1  0.89036833  0.50516343  1.00590424  1
  O  O401  1  0.87765149  0.99514806  0.49357350  1
  O  O402  1  0.87924636  1.00522443  0.98818248  1
  O  O403  1  0.11766118  0.00839345  -0.00035511  1
  O  O404  1  0.11944658  0.00456695  0.50291037  1
  O  O405  1  0.11968027  0.51202381  0.00173237  1
  O  O406  1  0.11024812  0.48274150  0.48093788  1
  O  O407  1  0.62056188  0.00522006  0.00505269  1
  O  O408  1  0.61532614  0.00309979  0.50802137  1
  O  O409  1  0.60793345  0.48485760  0.00488289  1
  O  O410  1  0.62130708  0.50006961  0.50722977  1
  O  O411  1  0.36429619  0.36988054  0.12314053  1
  O  O412  1  0.36808565  0.37530809  0.61544558  1
  O  O413  1  0.38090956  0.86387873  0.11175716  1
  O  O414  1  0.36885280  0.87236191  0.61482466  1
  O  O415  1  0.86710007  0.36790139  0.12155024  1
  O  O416  1  0.86224610  0.37358321  0.63435234  1
  O  O417  1  0.86670482  0.88393682  0.12516152  1
  O  O418  1  0.87252918  0.86747294  0.61751890  1
  O  O419  1  0.13160592  0.13128247  0.37810578  1
  O  O420  1  0.11708753  0.13429884  0.88887152  1
  O  O421  1  0.12709356  0.63933369  0.36925652  1
  O  O422  1  0.11929746  0.64454452  0.88247538  1
  O  O423  1  0.61587728  0.13089238  0.38025394  1
  O  O424  1  0.62505173  0.13651736  0.88072456  1
  O  O425  1  0.62932063  0.63722712  0.37917835  1
  O  O426  1  0.63109957  0.63777901  0.87263528  1
