# generated using pymatgen
data_V85Zn86O256
_symmetry_space_group_name_H-M   'P 1'
_cell_length_a   16.93915087
_cell_length_b   16.92731989
_cell_length_c   16.93803368
_cell_angle_alpha   90.00459255
_cell_angle_beta   89.90735218
_cell_angle_gamma   90.07811593
_symmetry_Int_Tables_number   1
_chemical_formula_structural   V85Zn86O256
_chemical_formula_sum   'V85 Zn86 O256'
_cell_volume   4856.70647461
_cell_formula_units_Z   1
loop_
 _symmetry_equiv_pos_site_id
 _symmetry_equiv_pos_as_xyz
  1  'x, y, z'
loop_
 _atom_site_type_symbol
 _atom_site_label
 _atom_site_symmetry_multiplicity
 _atom_site_fract_x
 _atom_site_fract_y
 _atom_site_fract_z
 _atom_site_occupancy
  V  V0  1  0.50217152  0.50554942  0.52055263  1
  V  V1  1  0.75173563  0.87440312  0.12521312  1
  V  V2  1  0.13175892  0.24434242  0.87707004  1
  V  V3  1  0.33576666  0.17530349  0.20538335  1
  V  V4  1  0.75422028  0.37889776  0.11967107  1
  V  V5  1  0.36661917  0.12540582  0.74652057  1
  V  V6  1  0.62240732  0.49417550  0.12811331  1
  V  V7  1  0.62864520  -0.00743484  0.61958262  1
  V  V8  1  0.49648907  0.37874688  0.88700386  1
  V  V9  1  0.37564489  0.74987498  0.12439214  1
  V  V10  1  0.37508765  -0.00128068  0.86332847  1
  V  V11  1  -0.00059841  0.75021315  0.74219188  1
  V  V12  1  0.36760168  0.87653118  0.50274238  1
  V  V13  1  0.87256232  0.61928599  0.74861523  1
  V  V14  1  0.24843056  0.74950198  -0.00093716  1
  V  V15  1  0.37622682  0.87970851  -0.00216781  1
  V  V16  1  -0.00347034  0.25455900  0.25066707  1
  V  V17  1  0.37467827  0.62049006  0.74103276  1
  V  V18  1  0.24744891  0.48948466  0.74793386  1
  V  V19  1  0.24881742  0.23810840  0.49791756  1
  V  V20  1  0.25019969  0.87549074  0.12641856  1
  V  V21  1  0.50380171  0.00557674  0.49919964  1
  V  V22  1  -0.00026535  0.62377757  0.12360256  1
  V  V23  1  0.37730136  0.37604903  0.50083728  1
  V  V24  1  0.74511190  0.38749536  0.63039274  1
  V  V25  1  0.74995608  0.61857699  0.87157311  1
  V  V26  1  0.74990367  0.74882992  -0.00051745  1
  V  V27  1  0.49869200  0.87381982  0.37644242  1
  V  V28  1  0.62874877  0.12791867  -0.00169172  1
  V  V29  1  0.63576266  0.73965764  0.38080959  1
  V  V30  1  0.37452588  0.01183752  0.37271993  1
  V  V31  1  0.62179970  0.75100778  0.87490970  1
  V  V32  1  0.00014743  0.87563675  0.86982898  1
  V  V33  1  0.87696541  0.87584986  -0.00164505  1
  V  V34  1  0.87079928  0.37691870  0.50381953  1
  V  V35  1  0.49398180  0.61938148  0.12224735  1
  V  V36  1  0.12653175  0.23641770  0.37974537  1
  V  V37  1  0.00116931  0.37804203  0.38435602  1
  V  V38  1  0.12576952  0.00389613  0.11857717  1
  V  V39  1  0.38748387  0.49958125  0.37474646  1
  V  V40  1  0.87547637  0.12878622  0.74661896  1
  V  V41  1  0.00193262  0.12480274  0.61615990  1
  V  V42  1  0.62408973  0.39599487  0.74804190  1
  V  V43  1  0.87262197  0.48944572  0.87878769  1
  V  V44  1  0.24335313  0.11940784  0.88588125  1
  V  V45  1  0.51268802  0.26262873  0.25105342  1
  V  V46  1  0.13791872  0.87976396  0.74114319  1
  V  V47  1  0.12662522  0.74807218  0.37757057  1
  V  V48  1  0.74706588  0.49634293  0.25515485  1
  V  V49  1  0.50815004  0.12613272  0.13470722  1
  V  V50  1  0.11567666  0.61980555  0.50164033  1
  V  V51  1  0.25087412  0.62094268  0.37769902  1
  V  V52  1  0.86856387  0.62470429  0.25490747  1
  V  V53  1  0.12593762  0.62277607  -0.00239863  1
  V  V54  1  0.62642775  0.87186665  0.25128197  1
  V  V55  1  0.12416796  0.87483393  0.25182367  1
  V  V56  1  0.49845502  0.74785131  0.25228503  1
  V  V57  1  -0.00064017  0.87644175  0.38101740  1
  V  V58  1  0.75025275  -0.00678943  0.74380053  1
  V  V59  1  0.62839408  -0.00141298  0.12296429  1
  V  V60  1  0.49956202  0.74687442  0.74327644  1
  V  V61  1  0.12371022  0.75003470  0.87153846  1
  V  V62  1  0.85935140  0.75218373  0.62239441  1
  V  V63  1  0.62560920  0.25142331  0.86865314  1
  V  V64  1  0.87529719  0.00240688  0.87331056  1
  V  V65  1  0.13246987  0.37562193  0.25099563  1
  V  V66  1  0.63120404  0.62427140  0.51293026  1
  V  V67  1  0.37511321  0.49896793  0.88445724  1
  V  V68  1  0.62009983  0.61972796  0.00154626  1
  V  V69  1  0.01296180  0.37289856  0.87233946  1
  V  V70  1  0.50762439  0.12798312  0.62606438  1
  V  V71  1  0.86086649  0.87390192  0.50325477  1
  V  V72  1  0.62414095  0.26987088  0.38179123  1
  V  V73  1  0.87500091  0.74977866  0.12509682  1
  V  V74  1  0.13720504  0.00367706  0.61844512  1
  V  V75  1  0.11716010  0.49045255  0.62533776  1
  V  V76  1  -0.00039779  0.74951070  0.25129628  1
  V  V77  1  0.12967924  0.49470720  0.12444046  1
  V  V78  1  0.87684573  0.25677319  0.11456009  1
  V  V79  1  0.87330774  0.12909221  0.25018065  1
  V  V80  1  0.37010278  0.75235641  0.62411414  1
  V  V81  1  0.87564144  0.50327627  0.38075542  1
  V  V82  1  0.73922230  0.12655818  0.38160458  1
  V  V83  1  0.25413857  -0.00187970  0.25520566  1
  V  V84  1  0.75123952  0.00168722  0.24986933  1
  Zn  Zn85  1  0.50287412  0.00113572  -0.00347203  1
  Zn  Zn86  1  0.25332707  0.49705442  0.25154755  1
  Zn  Zn87  1  0.75028437  0.12713820  0.87301903  1
  Zn  Zn88  1  0.49772682  0.25320879  0.74762875  1
  Zn  Zn89  1  0.74305680  0.24832548  0.50932411  1
  Zn  Zn90  1  0.32223313  0.29900018  0.04904654  1
  Zn  Zn91  1  0.00970843  0.25408627  0.74470964  1
  Zn  Zn92  1  0.24639681  0.75197064  0.50566565  1
  Zn  Zn93  1  -0.00472505  0.62080102  0.62029222  1
  Zn  Zn94  1  0.00236186  0.12947915  0.11826440  1
  Zn  Zn95  1  0.00724635  0.00521437  -0.00616600  1
  Zn  Zn96  1  0.75217778  0.25780831  -0.00431338  1
  Zn  Zn97  1  0.24793018  0.62204725  0.87165435  1
  Zn  Zn98  1  0.87267146  0.25191377  0.62528144  1
  Zn  Zn99  1  0.00293869  0.00375200  0.49797864  1
  Zn  Zn100  1  0.50142996  0.87575216  0.87251284  1
  Zn  Zn101  1  0.37522186  0.25021375  0.62410320  1
  Zn  Zn102  1  -0.00556775  0.48976395  0.00320970  1
  Zn  Zn103  1  0.87534908  0.00346822  0.37770277  1
  Zn  Zn104  1  0.62885993  0.86996329  0.74299424  1
  Zn  Zn105  1  0.24738256  0.36968610  0.62498302  1
  Zn  Zn106  1  0.37139696  0.62291781  0.24970743  1
  Zn  Zn107  1  0.17428896  0.18498176  0.19279265  1
  Zn  Zn108  1  0.18690707  0.18813207  0.68901008  1
  Zn  Zn109  1  0.18851660  0.68432727  0.18846873  1
  Zn  Zn110  1  0.18875709  0.68214400  0.68592643  1
  Zn  Zn111  1  0.68929572  0.19310963  0.18979435  1
  Zn  Zn112  1  0.68954831  0.18618826  0.68644438  1
  Zn  Zn113  1  0.68634308  0.68421414  0.18893631  1
  Zn  Zn114  1  0.68687737  0.68277214  0.68998925  1
  Zn  Zn115  1  0.31311842  0.31697092  0.32286652  1
  Zn  Zn116  1  0.31268442  0.30929875  0.81631135  1
  Zn  Zn117  1  0.31344986  0.81246832  0.31755238  1
  Zn  Zn118  1  0.31283344  0.80925948  0.81259021  1
  Zn  Zn119  1  0.80834587  0.31660110  0.31253821  1
  Zn  Zn120  1  0.80779374  0.31279822  0.80839573  1
  Zn  Zn121  1  0.81320145  0.81290715  0.31596106  1
  Zn  Zn122  1  0.81187930  0.81002386  0.81010688  1
  Zn  Zn123  1  0.19051209  0.43515152  0.44129513  1
  Zn  Zn124  1  0.18878347  0.43241958  0.93683167  1
  Zn  Zn125  1  0.18838817  0.94072998  0.43806605  1
  Zn  Zn126  1  0.19243165  0.93827842  0.93203731  1
  Zn  Zn127  1  0.68935527  0.44593854  0.44399971  1
  Zn  Zn128  1  0.68420540  0.43852727  0.93808772  1
  Zn  Zn129  1  0.68452673  0.93859326  0.43493192  1
  Zn  Zn130  1  0.69077608  0.93818712  0.93537627  1
  Zn  Zn131  1  0.33897689  0.09741958  0.03686463  1
  Zn  Zn132  1  0.31798714  0.06340264  0.56253959  1
  Zn  Zn133  1  0.30919135  0.45808902  0.06332772  1
  Zn  Zn134  1  0.30810075  0.56153312  0.56257390  1
  Zn  Zn135  1  0.81706528  0.06689089  0.06038131  1
  Zn  Zn136  1  0.81472857  0.06017098  0.56124973  1
  Zn  Zn137  1  0.81110342  0.56213421  0.06053345  1
  Zn  Zn138  1  0.80989481  0.56252310  0.56276371  1
  Zn  Zn139  1  0.43476467  0.43313902  0.18722803  1
  Zn  Zn140  1  0.43614044  0.43369619  0.69048265  1
  Zn  Zn141  1  0.43901200  0.93992294  0.18624618  1
  Zn  Zn142  1  0.44164497  0.93358089  0.68535192  1
  Zn  Zn143  1  0.93852735  0.43777244  0.19034934  1
  Zn  Zn144  1  0.93602695  0.43680960  0.69056086  1
  Zn  Zn145  1  0.93843257  0.93908010  0.19003408  1
  Zn  Zn146  1  0.94019622  0.93934577  0.68246881  1
  Zn  Zn147  1  0.05888279  0.06121096  0.30770445  1
  Zn  Zn148  1  0.06244680  0.06295755  0.80248553  1
  Zn  Zn149  1  0.06005495  0.56063898  0.31312139  1
  Zn  Zn150  1  0.05923450  0.55895262  0.80850391  1
  Zn  Zn151  1  0.56367336  0.06263529  0.31304430  1
  Zn  Zn152  1  0.56123046  0.06196778  0.80821464  1
  Zn  Zn153  1  0.56342477  0.56365017  0.31196469  1
  Zn  Zn154  1  0.55441124  0.56680521  0.81478074  1
  Zn  Zn155  1  0.44229447  0.19095334  0.43685857  1
  Zn  Zn156  1  0.44434957  0.18889168  0.93321687  1
  Zn  Zn157  1  0.43966555  0.68458349  0.44157098  1
  Zn  Zn158  1  0.43455816  0.68335965  0.93530589  1
  Zn  Zn159  1  0.93281833  0.19218933  0.43754238  1
  Zn  Zn160  1  0.94491937  0.18717202  0.93626415  1
  Zn  Zn161  1  0.93452013  0.69037728  0.43929710  1
  Zn  Zn162  1  0.93802398  0.68561977  0.93485562  1
  Zn  Zn163  1  0.06654071  0.31367798  0.05593350  1
  Zn  Zn164  1  0.06205224  0.30864512  0.56078521  1
  Zn  Zn165  1  0.06170942  0.81603849  0.06086714  1
  Zn  Zn166  1  0.06211178  0.81242277  0.56313479  1
  Zn  Zn167  1  0.56061276  0.31166812  0.06424734  1
  Zn  Zn168  1  0.56109213  0.31868961  0.56261020  1
  Zn  Zn169  1  0.56120464  0.81059115  0.06165955  1
  Zn  Zn170  1  0.55825955  0.81119260  0.56102404  1
  O  O171  1  0.12268183  0.10826132  0.12931197  1
  O  O172  1  0.11761685  0.11100167  0.63170571  1
  O  O173  1  0.11564685  0.62103418  0.12002671  1
  O  O174  1  0.12182751  0.61696581  0.61640793  1
  O  O175  1  0.62506003  0.12093485  0.12059638  1
  O  O176  1  0.61337470  0.11422050  0.63067537  1
  O  O177  1  0.61863088  0.61935332  0.11833798  1
  O  O178  1  0.62220101  0.63226124  0.61205310  1
  O  O179  1  0.37374884  0.38708225  0.38934540  1
  O  O180  1  0.38123803  0.38793705  0.87262815  1
  O  O181  1  0.38315398  0.88064927  0.38269384  1
  O  O182  1  0.37404532  0.88156926  0.88064973  1
  O  O183  1  0.87978453  0.38179927  0.38179469  1
  O  O184  1  0.86976244  0.38754031  0.87224095  1
  O  O185  1  0.88183999  0.87444385  0.38502659  1
  O  O186  1  0.88023915  0.88075995  0.87680758  1
  O  O187  1  0.25699807  -0.00310041  0.36386630  1
  O  O188  1  0.25859393  0.00886741  0.86971373  1
  O  O189  1  0.25851208  0.50687566  0.37639990  1
  O  O190  1  0.25728141  0.50003631  0.86588899  1
  O  O191  1  0.75035559  0.01161463  0.36900817  1
  O  O192  1  0.76157720  0.00178487  0.86724632  1
  O  O193  1  0.76235275  0.49555162  0.36663837  1
  O  O194  1  0.75550108  0.51212348  0.88153174  1
  O  O195  1  0.23225059  0.51113537  0.13243335  1
  O  O196  1  0.23957830  0.49714408  0.63160804  1
  O  O197  1  0.23910013  0.99222107  0.13852916  1
  O  O198  1  0.23651400  1.00435951  0.61964659  1
  O  O199  1  0.74446920  0.49745004  0.13132980  1
  O  O200  1  0.75155662  0.48775143  0.62778987  1
  O  O201  1  0.74769208  0.99498260  0.12987445  1
  O  O202  1  0.74031145  1.00529823  0.63016362  1
  O  O203  1  0.00297667  0.36652131  0.26073389  1
  O  O204  1  -0.01131458  0.37084414  0.76786605  1
  O  O205  1  0.00188875  0.86960883  0.26168803  1
  O  O206  1  0.00435226  0.86715234  0.75257186  1
  O  O207  1  0.50056020  0.36055147  0.25006014  1
  O  O208  1  0.51187772  0.37486454  0.75747509  1
  O  O209  1  0.50645981  0.86467485  0.25275209  1
  O  O210  1  0.50350114  0.86091496  0.75337991  1
  O  O211  1  0.50972262  0.13337366  0.24062494  1
  O  O212  1  0.49086237  0.12636131  0.74143131  1
  O  O213  1  0.49958708  0.63680420  0.24380833  1
  O  O214  1  0.49034698  0.63733207  0.75266592  1
  O  O215  1  0.99135338  0.13769941  0.24626691  1
  O  O216  1  0.99027913  0.12527341  0.73758402  1
  O  O217  1  0.99244585  0.62860185  0.24013527  1
  O  O218  1  0.99104812  0.63441994  0.74856838  1
  O  O219  1  0.36862075  0.20691759  0.00999864  1
  O  O220  1  0.36814183  0.25815229  0.49645750  1
  O  O221  1  0.36869871  0.75708564  0.00309681  1
  O  O222  1  0.37610771  0.75750449  0.50722585  1
  O  O223  1  0.87240349  0.24588425  0.01230499  1
  O  O224  1  0.86822914  0.26629345  0.49913372  1
  O  O225  1  0.87073135  0.75475218  0.00409494  1
  O  O226  1  0.87630350  0.76171966  0.50802255  1
  O  O227  1  0.13824136  0.25220371  0.49304692  1
  O  O228  1  0.12012892  0.24879449  0.97913620  1
  O  O229  1  0.12618660  0.74198183  0.49538607  1
  O  O230  1  0.12713364  0.74674470  0.99271307  1
  O  O231  1  0.62438412  0.25540022  0.48615809  1
  O  O232  1  0.62621484  0.24441468  0.99009521  1
  O  O233  1  0.61634079  0.73859680  0.48916338  1
  O  O234  1  0.62908282  0.74115973  0.99432258  1
  O  O235  1  0.50875752  0.24289657  0.14085723  1
  O  O236  1  0.49953875  0.24104694  0.62414986  1
  O  O237  1  0.49704984  0.74422013  0.13366571  1
  O  O238  1  0.48761209  0.75228764  0.63310920  1
  O  O239  1  0.99354474  0.25360893  0.13316553  1
  O  O240  1  0.99692778  0.24230617  0.62730745  1
  O  O241  1  0.99486333  0.74504284  0.13108513  1
  O  O242  1  0.99297191  0.74823804  0.63385433  1
  O  O243  1  0.00494292  0.25771709  0.36991279  1
  O  O244  1  0.00568351  0.25872854  0.86921828  1
  O  O245  1  0.00563333  0.75568530  0.36913515  1
  O  O246  1  0.00399849  0.75489595  0.86305450  1
  O  O247  1  0.51705644  0.24567281  0.36557837  1
  O  O248  1  0.50674214  0.26028875  0.87186985  1
  O  O249  1  0.50418613  0.75363995  0.36754560  1
  O  O250  1  0.50807987  0.74924799  0.86932285  1
  O  O251  1  0.25874573  0.13925833  0.49812346  1
  O  O252  1  0.23754739  0.11053962  0.98409814  1
  O  O253  1  0.23998752  0.62653619  0.49057645  1
  O  O254  1  0.23138005  0.63261809  0.99715415  1
  O  O255  1  0.75898023  0.12905002  0.48427766  1
  O  O256  1  0.73871707  0.12770169  0.99883195  1
  O  O257  1  0.73113381  0.61823648  0.50018437  1
  O  O258  1  0.74155451  0.63226649  0.99479554  1
  O  O259  1  0.24672671  0.37599659  0.01108327  1
  O  O260  1  0.26044059  0.36727192  0.50328200  1
  O  O261  1  0.26057047  0.87106835  0.00356582  1
  O  O262  1  0.26374899  0.87242042  0.49346760  1
  O  O263  1  0.74589774  0.37752681  0.01430941  1
  O  O264  1  0.75406818  0.37595584  0.51050580  1
  O  O265  1  0.75641803  0.86805788  0.00528123  1
  O  O266  1  0.76250989  0.87642302  0.49338706  1
  O  O267  1  0.12281423  0.49096658  0.24419287  1
  O  O268  1  0.13334667  0.50607499  0.73594265  1
  O  O269  1  0.13214662  0.99321163  0.24602433  1
  O  O270  1  0.12278586  0.98569827  0.73806465  1
  O  O271  1  0.63692547  0.51009810  0.24209509  1
  O  O272  1  0.62259407  0.49436984  0.75586777  1
  O  O273  1  0.63178124  0.99157706  0.24479779  1
  O  O274  1  0.63323840  0.99611465  0.74216038  1
  O  O275  1  0.36640357  -0.01041598  0.25998488  1
  O  O276  1  0.38186649  0.00347801  0.75789268  1
  O  O277  1  0.37305477  0.50145247  0.26041688  1
  O  O278  1  0.36763971  0.50589355  0.75309622  1
  O  O279  1  0.86937764  0.01061231  0.25158256  1
  O  O280  1  0.87011918  0.00600097  0.75315056  1
  O  O281  1  0.86908198  0.50765269  0.25626342  1
  O  O282  1  0.87927522  0.51412610  0.75910128  1
  O  O283  1  0.11584730  0.37274365  0.37028689  1
  O  O284  1  0.11716927  0.36967893  0.86929516  1
  O  O285  1  0.11804665  0.87018556  0.37149039  1
  O  O286  1  0.12007758  0.87221633  0.86201156  1
  O  O287  1  0.63119446  0.36810763  0.37632794  1
  O  O288  1  0.62001324  0.37182142  0.86582570  1
  O  O289  1  0.61813362  0.86458589  0.37119947  1
  O  O290  1  0.62624649  0.86018547  0.87685913  1
  O  O291  1  0.38916054  0.11113708  0.14217146  1
  O  O292  1  0.38696730  0.12383264  0.63169875  1
  O  O293  1  0.38604653  0.63452980  0.12892197  1
  O  O294  1  0.37119948  0.63056511  0.63472049  1
  O  O295  1  0.87134029  0.13580602  0.13792496  1
  O  O296  1  0.88137828  0.12554558  0.63102704  1
  O  O297  1  0.88195795  0.62993692  0.13071864  1
  O  O298  1  0.87490371  0.63156323  0.63065208  1
  O  O299  1  0.27240004  0.23107333  0.14784700  1
  O  O300  1  0.25075513  0.24982310  0.61178901  1
  O  O301  1  0.25459776  0.75509867  0.11992000  1
  O  O302  1  0.26385895  0.74639757  0.62445777  1
  O  O303  1  0.75774472  0.26213179  0.12596993  1
  O  O304  1  0.75099688  0.26104641  0.62564212  1
  O  O305  1  0.75568337  0.75343062  0.12079390  1
  O  O306  1  0.76043708  0.75204494  0.63306987  1
  O  O307  1  0.24039058  0.25300983  0.38681493  1
  O  O308  1  0.24641460  0.23118282  0.87210885  1
  O  O309  1  0.24269290  0.74155986  0.37795267  1
  O  O310  1  0.24163115  0.74638123  0.88056947  1
  O  O311  1  0.73689625  0.24447621  0.37330053  1
  O  O312  1  0.74123931  0.24794120  0.87771117  1
  O  O313  1  0.73381298  0.75086986  0.37160257  1
  O  O314  1  0.74286091  0.74027275  0.87906343  1
  O  O315  1  -0.00916747  0.11556975  0.00723973  1
  O  O316  1  -0.00874698  0.12543998  0.51142659  1
  O  O317  1  0.00778024  0.62956089  0.01147976  1
  O  O318  1  0.01140327  0.62702072  0.49905418  1
  O  O319  1  0.51532041  0.12370860  0.01398871  1
  O  O320  1  0.49420519  0.11278173  0.50826232  1
  O  O321  1  0.50788194  0.63244019  0.01064720  1
  O  O322  1  0.50658446  0.61161403  0.49884323  1
  O  O323  1  0.49413318  0.39366914  0.50438740  1
  O  O324  1  0.50823412  0.37620517  0.98620757  1
  O  O325  1  0.49203697  0.88522294  0.49468077  1
  O  O326  1  0.48698018  0.87483251  0.99898597  1
  O  O327  1  0.99219640  0.37157053  0.48969936  1
  O  O328  1  0.99865834  0.37416869  0.97985641  1
  O  O329  1  0.99548100  0.87302847  0.48840731  1
  O  O330  1  0.99399898  0.87886618  0.98918554  1
  O  O331  1  0.48931301  0.50600263  0.37773190  1
  O  O332  1  0.48398357  0.49499624  0.87207838  1
  O  O333  1  0.49691524  0.99453189  0.38033475  1
  O  O334  1  0.49235532  0.99656678  0.87654776  1
  O  O335  1  0.98647541  0.49055395  0.36904890  1
  O  O336  1  0.99370580  0.48821411  0.87487782  1
  O  O337  1  0.99689541  0.99148434  0.37582197  1
  O  O338  1  0.99008533  0.99446410  0.86984435  1
  O  O339  1  0.01685997  -0.00426338  0.12845233  1
  O  O340  1  0.00880754  0.00776741  0.62099885  1
  O  O341  1  0.00577468  0.50886671  0.12421864  1
  O  O342  1  0.01296352  0.50178950  0.63135380  1
  O  O343  1  0.51164850  0.00680435  0.12492656  1
  O  O344  1  0.50714907  0.00450736  0.61684681  1
  O  O345  1  0.50873754  0.51269620  0.13594825  1
  O  O346  1  0.49717780  0.50437844  0.61880493  1
  O  O347  1  0.23593783  0.37463302  0.25667818  1
  O  O348  1  0.25619783  0.38566039  0.74654243  1
  O  O349  1  0.24463986  0.87990148  0.24790255  1
  O  O350  1  0.23560097  0.86969691  0.75022828  1
  O  O351  1  0.75400275  0.38946508  0.23891377  1
  O  O352  1  0.73176881  0.37503658  0.74707417  1
  O  O353  1  0.74688594  0.88008450  0.24533050  1
  O  O354  1  0.74961157  0.88816349  0.75331098  1
  O  O355  1  0.26101966  0.11895743  0.25108646  1
  O  O356  1  0.26403040  0.12305189  0.75046704  1
  O  O357  1  0.24928703  0.62354071  0.26516557  1
  O  O358  1  0.25738540  0.61442910  0.75159842  1
  O  O359  1  0.75523572  0.12286161  0.25813534  1
  O  O360  1  0.75791922  0.11294362  0.75088689  1
  O  O361  1  0.76326808  0.61680616  0.24403057  1
  O  O362  1  0.75841301  0.62874430  0.76080623  1
  O  O363  1  0.38416242  0.11095437  0.37489943  1
  O  O364  1  0.36711142  0.11582254  0.86670695  1
  O  O365  1  0.36666662  0.61889196  0.37619918  1
  O  O366  1  0.37307871  0.61550949  0.86222791  1
  O  O367  1  0.86632295  0.12895031  0.36318140  1
  O  O368  1  0.87520733  0.11650136  0.86625619  1
  O  O369  1  0.88126098  0.61780676  0.36626965  1
  O  O370  1  0.86714661  0.62194886  0.86743275  1
  O  O371  1  0.11366367  0.38389956  0.13646679  1
  O  O372  1  0.12439536  0.38712472  0.62104737  1
  O  O373  1  0.13056078  0.87833290  0.13353258  1
  O  O374  1  0.12205778  0.88400271  0.63383444  1
  O  O375  1  0.62917388  0.38996995  0.12225025  1
  O  O376  1  0.62747953  0.37506570  0.64162758  1
  O  O377  1  0.63221535  0.87695770  0.12962288  1
  O  O378  1  0.62030556  0.88716291  0.62396407  1
  O  O379  1  0.11524653  0.25755021  0.25682639  1
  O  O380  1  0.12428804  0.24602481  0.76474968  1
  O  O381  1  0.11905987  0.75471730  0.25595067  1
  O  O382  1  0.11789669  0.75732943  0.74906911  1
  O  O383  1  0.61888639  0.25391369  0.26024367  1
  O  O384  1  0.62237605  0.24842095  0.76251361  1
  O  O385  1  0.61923679  0.75152869  0.25941199  1
  O  O386  1  0.61789383  0.74870414  0.75740015  1
  O  O387  1  0.38787521  0.24375548  0.26460923  1
  O  O388  1  0.37765937  0.24098353  0.74690486  1
  O  O389  1  0.38310265  0.75080803  0.24465193  1
  O  O390  1  0.37982950  0.74355404  0.74439703  1
  O  O391  1  0.88006730  0.24798683  0.24549951  1
  O  O392  1  0.87251382  0.23592166  0.75047109  1
  O  O393  1  0.87896249  0.74278619  0.24727660  1
  O  O394  1  0.88139899  0.74324596  0.74320831  1
  O  O395  1  0.38469431  0.49825417  0.49774164  1
  O  O396  1  0.36811142  0.51675949  0.98152175  1
  O  O397  1  0.38102193  0.99344244  0.49277798  1
  O  O398  1  0.37838523  0.99500559  0.98881746  1
  O  O399  1  0.87158925  0.49090235  0.49241097  1
  O  O400  1  0.88063854  0.51235892  0.98545125  1
  O  O401  1  0.87897855  0.98604490  0.49785835  1
  O  O402  1  0.87214900  0.99230476  0.98912745  1
  O  O403  1  0.12661457  -0.01375676  0.01614387  1
  O  O404  1  0.12167843  -0.00586447  0.51367168  1
  O  O405  1  0.11853272  0.50776503  0.00666477  1
  O  O406  1  0.12917488  0.50615608  0.51425315  1
  O  O407  1  0.62624513  0.00640190  0.00492312  1
  O  O408  1  0.61581930  -0.00167822  0.50480438  1
  O  O409  1  0.62764923  0.51353516  0.00852756  1
  O  O410  1  0.61178824  0.51190473  0.49800485  1
  O  O411  1  0.37620953  0.38085053  0.11095972  1
  O  O412  1  0.37389098  0.37248081  0.61410076  1
  O  O413  1  0.37009279  0.87156745  0.11740831  1
  O  O414  1  0.37819656  0.86782120  0.61472521  1
  O  O415  1  0.86823981  0.36920944  0.12851605  1
  O  O416  1  0.86747571  0.37608706  0.61996510  1
  O  O417  1  0.87161389  0.86937438  0.12091659  1
  O  O418  1  0.87824763  0.86874308  0.61104623  1
  O  O419  1  0.11894910  0.13758498  0.36884839  1
  O  O420  1  0.13777329  0.12458918  0.86608996  1
  O  O421  1  0.12922493  0.62592967  0.38153333  1
  O  O422  1  0.11999490  0.63039652  0.88161063  1
  O  O423  1  0.63747859  0.13002600  0.37209978  1
  O  O424  1  0.62340105  0.13219109  0.88225314  1
  O  O425  1  0.62195566  0.63676481  0.38075117  1
  O  O426  1  0.62929093  0.63131248  0.88162172  1
