# generated using pymatgen
data_V85Zn86O256
_symmetry_space_group_name_H-M   'P 1'
_cell_length_a   16.93449232
_cell_length_b   16.92932751
_cell_length_c   16.92215628
_cell_angle_alpha   89.93848960
_cell_angle_beta   89.97935857
_cell_angle_gamma   89.98421829
_symmetry_Int_Tables_number   1
_chemical_formula_structural   V85Zn86O256
_chemical_formula_sum   'V85 Zn86 O256'
_cell_volume   4851.40235959
_cell_formula_units_Z   1
loop_
 _symmetry_equiv_pos_site_id
 _symmetry_equiv_pos_as_xyz
  1  'x, y, z'
loop_
 _atom_site_type_symbol
 _atom_site_label
 _atom_site_symmetry_multiplicity
 _atom_site_fract_x
 _atom_site_fract_y
 _atom_site_fract_z
 _atom_site_occupancy
  V  V0  1  0.37933931  0.63107204  0.75121326  1
  V  V1  1  -0.00234607  -0.00008676  -0.00355272  1
  V  V2  1  0.25096290  0.00784614  0.24706714  1
  V  V3  1  0.37770931  0.50099063  0.87579466  1
  V  V4  1  0.50767804  0.11743061  0.12519142  1
  V  V5  1  0.61031066  0.74338380  0.87752028  1
  V  V6  1  0.12621281  0.37031544  0.76105520  1
  V  V7  1  0.50782798  0.62752626  0.12424810  1
  V  V8  1  0.87545422  0.25242077  0.61569056  1
  V  V9  1  0.25222930  0.61172349  0.37904962  1
  V  V10  1  0.37844742  0.37136959  0.00471109  1
  V  V11  1  0.63085220  0.74589965  0.37401820  1
  V  V12  1  0.24375685  0.38014441  0.12843343  1
  V  V13  1  0.00099136  0.24729547  0.75785195  1
  V  V14  1  0.74928674  0.86645005  0.12097216  1
  V  V15  1  0.37542031  0.61493826  0.25371640  1
  V  V16  1  0.50217971  -0.00232803  0.49103290  1
  V  V17  1  0.37871705  0.75117033  0.62374862  1
  V  V18  1  0.86503337  0.88461744  0.49823582  1
  V  V19  1  0.24815893  0.37704203  0.62533857  1
  V  V20  1  0.50029185  0.12334196  0.62227138  1
  V  V21  1  0.00386816  0.49865256  0.01065993  1
  V  V22  1  0.86739350  0.37731816  0.00813394  1
  V  V23  1  0.11671396  0.62544328  0.50716612  1
  V  V24  1  0.50088879  0.25163311  0.74864820  1
  V  V25  1  0.74245512  0.12847522  0.37385573  1
  V  V26  1  0.62101019  0.87666059  0.25353254  1
  V  V27  1  0.62894089  -0.00693247  0.62006228  1
  V  V28  1  0.86472442  0.00156775  0.87563455  1
  V  V29  1  0.12517725  0.00322992  0.12243292  1
  V  V30  1  0.12292940  0.24838283  0.37933514  1
  V  V31  1  0.00389085  0.62892314  0.14043325  1
  V  V32  1  0.87350977  0.74929828  0.62403781  1
  V  V33  1  0.12713143  0.62090181  0.00801580  1
  V  V34  1  0.50366285  0.62858147  0.62661086  1
  V  V35  1  0.37921314  0.00400799  0.36684923  1
  V  V36  1  0.12464683  0.87552568  0.74644880  1
  V  V37  1  0.25044085  0.50129103  0.75121471  1
  V  V38  1  0.00628719  0.00055639  0.48965293  1
  V  V39  1  0.25570941  0.00087018  0.75626678  1
  V  V40  1  0.25185416  0.87708633  0.12310950  1
  V  V41  1  0.87684277  0.49968753  0.87840722  1
  V  V42  1  0.86874986  0.49212898  0.37931468  1
  V  V43  1  0.00332741  0.74037584  0.74151934  1
  V  V44  1  0.63349263  0.49704272  0.12949470  1
  V  V45  1  0.86301054  0.12612612  0.75032055  1
  V  V46  1  0.12604818  0.74949067  0.87589307  1
  V  V47  1  0.49725066  0.35584509  0.37047883  1
  V  V48  1  0.74974195  0.74512297  0.50332874  1
  V  V49  1  0.25036537  0.12660117  0.37471809  1
  V  V50  1  0.50814270  0.50228035  0.00347248  1
  V  V51  1  0.38287339  0.24373734  0.13826974  1
  V  V52  1  0.24706690  0.25168623  -0.00558810  1
  V  V53  1  0.86612353  0.25282535  0.12898477  1
  V  V54  1  0.37521402  0.24992445  0.62531633  1
  V  V55  1  0.00146061  0.25200843  0.25039184  1
  V  V56  1  0.74939092  0.63268666  0.89075652  1
  V  V57  1  0.75200245  0.50393724  0.75154608  1
  V  V58  1  0.12231550  0.12996592  -0.01298317  1
  V  V59  1  0.87640415  0.11868360  0.25639069  1
  V  V60  1  -0.00119046  0.87367530  0.87236069  1
  V  V61  1  0.75469384  0.37660714  0.61546029  1
  V  V62  1  0.24719525  0.74956247  0.49465491  1
  V  V63  1  0.62680380  0.37455718  0.74885300  1
  V  V64  1  0.75360407  -0.00472526  0.25283731  1
  V  V65  1  0.49685435  0.75520815  0.25929793  1
  V  V66  1  0.00449282  0.12244979  0.62262927  1
  V  V67  1  -0.00588865  0.49510337  0.50846112  1
  V  V68  1  0.25234357  0.75036346  0.00011140  1
  V  V69  1  0.50266400  0.37623115  0.87480329  1
  V  V70  1  0.86805713  0.63252976  0.26215880  1
  V  V71  1  0.25014170  0.87772302  0.62171770  1
  V  V72  1  0.62967246  0.36228900  0.25360287  1
  V  V73  1  0.49454170  0.50266931  0.48749288  1
  V  V74  1  0.87362324  0.86125479  -0.00140699  1
  V  V75  1  -0.00116295  0.12598646  0.12360717  1
  V  V76  1  0.37637866  0.87534376  0.48871056  1
  V  V77  1  0.74860728  0.24070514  -0.00662455  1
  V  V78  1  0.49777201  0.89199024  0.86467282  1
  V  V79  1  0.38353609  0.88777408  -0.00473009  1
  V  V80  1  0.62512430  0.50248608  0.62277252  1
  V  V81  1  0.75028149  -0.01322453  0.74295896  1
  V  V82  1  0.24359806  0.24419024  0.50336842  1
  V  V83  1  0.37907205  0.75115485  0.12438266  1
  V  V84  1  0.11886727  0.86998094  0.25066171  1
  Zn  Zn85  1  0.25134934  0.62522760  0.87703138  1
  Zn  Zn86  1  0.00361780  0.37121486  0.88194717  1
  Zn  Zn87  1  0.12735024  0.00498944  0.62088622  1
  Zn  Zn88  1  0.74711050  0.25736857  0.49073504  1
  Zn  Zn89  1  0.11756176  0.74327539  0.36870540  1
  Zn  Zn90  1  0.61934558  0.13319097  0.49048052  1
  Zn  Zn91  1  -0.00926256  0.87021804  0.36933404  1
  Zn  Zn92  1  0.24248006  0.50172297  0.24904769  1
  Zn  Zn93  1  -0.00380638  0.37110625  0.38294881  1
  Zn  Zn94  1  0.11678104  0.50491649  0.63208407  1
  Zn  Zn95  1  0.61753825  0.10099528  0.98139158  1
  Zn  Zn96  1  0.62908695  0.62265911  0.49339519  1
  Zn  Zn97  1  0.11893192  0.38410521  0.25058311  1
  Zn  Zn98  1  0.87798635  0.74873804  0.13012859  1
  Zn  Zn99  1  0.88112708  0.62208754  0.74591715  1
  Zn  Zn100  1  0.36965290  0.38005305  0.49211217  1
  Zn  Zn101  1  0.74833323  0.50008374  0.25533667  1
  Zn  Zn102  1  0.38336072  0.11696262  0.76194339  1
  Zn  Zn103  1  0.62957033  0.24729553  0.87537087  1
  Zn  Zn104  1  0.62129970  0.86288073  0.74173814  1
  Zn  Zn105  1  0.25562835  0.12768523  0.87508060  1
  Zn  Zn106  1  0.62468301  -0.00581736  0.11713952  1
  Zn  Zn107  1  0.18794210  0.19179352  0.18326894  1
  Zn  Zn108  1  0.18512741  0.18654595  0.69086775  1
  Zn  Zn109  1  0.19120745  0.68587704  0.18704425  1
  Zn  Zn110  1  0.19190321  0.68855602  0.68490425  1
  Zn  Zn111  1  0.68697176  0.18366481  0.18420807  1
  Zn  Zn112  1  0.68541881  0.18733311  0.67838132  1
  Zn  Zn113  1  0.68865042  0.68812913  0.18837143  1
  Zn  Zn114  1  0.69091675  0.68978291  0.68955512  1
  Zn  Zn115  1  0.31351050  0.31460697  0.31318518  1
  Zn  Zn116  1  0.31610161  0.31084310  0.81395375  1
  Zn  Zn117  1  0.30755740  0.81266980  0.31070428  1
  Zn  Zn118  1  0.31489509  0.81391497  0.81322259  1
  Zn  Zn119  1  0.81112134  0.31304971  0.31089487  1
  Zn  Zn120  1  0.81623671  0.31575790  0.81154183  1
  Zn  Zn121  1  0.81194611  0.81263567  0.31775811  1
  Zn  Zn122  1  0.81401281  0.80947429  0.81069415  1
  Zn  Zn123  1  0.17951058  0.43531678  0.43993080  1
  Zn  Zn124  1  0.18979362  0.43958195  0.94019156  1
  Zn  Zn125  1  0.18652313  0.93920004  0.43418361  1
  Zn  Zn126  1  0.18759643  0.93681801  0.93687970  1
  Zn  Zn127  1  0.68137603  0.43754304  0.43398253  1
  Zn  Zn128  1  0.68926502  0.43606916  0.93885694  1
  Zn  Zn129  1  0.68838510  0.93727871  0.43214745  1
  Zn  Zn130  1  0.68680114  0.92508467  0.93419512  1
  Zn  Zn131  1  0.31446959  0.06818582  0.05932555  1
  Zn  Zn132  1  0.31384733  0.06257045  0.56215936  1
  Zn  Zn133  1  0.31846291  0.56157382  0.06474301  1
  Zn  Zn134  1  0.31359544  0.56250016  0.56417139  1
  Zn  Zn135  1  0.80876643  0.05868200  0.06487865  1
  Zn  Zn136  1  0.81401102  0.06435364  0.56179531  1
  Zn  Zn137  1  0.81740954  0.56515930  0.06959529  1
  Zn  Zn138  1  0.81523993  0.56739701  0.56298121  1
  Zn  Zn139  1  0.44104168  0.43424704  0.18987391  1
  Zn  Zn140  1  0.43693748  0.44144990  0.68320150  1
  Zn  Zn141  1  0.43846385  0.94025707  0.18514722  1
  Zn  Zn142  1  0.43775137  0.93679934  0.68259005  1
  Zn  Zn143  1  0.93602037  0.43998420  0.19199928  1
  Zn  Zn144  1  0.93797438  0.43432335  0.68940109  1
  Zn  Zn145  1  0.93638070  0.93788745  0.18296543  1
  Zn  Zn146  1  0.93669953  0.93451033  0.68191530  1
  Zn  Zn147  1  0.06643961  0.06416128  0.31269275  1
  Zn  Zn148  1  0.05989095  0.05955344  0.80800286  1
  Zn  Zn149  1  0.06248200  0.55758475  0.32144630  1
  Zn  Zn150  1  0.06529644  0.56045300  0.82009446  1
  Zn  Zn151  1  0.56110933  0.06794228  0.30087717  1
  Zn  Zn152  1  0.57225626  0.06631911  0.80622956  1
  Zn  Zn153  1  0.56393072  0.56427843  0.30856338  1
  Zn  Zn154  1  0.56557238  0.56589166  0.81279219  1
  Zn  Zn155  1  0.43058189  0.18566757  0.43917959  1
  Zn  Zn156  1  0.44257807  0.18367748  0.93848642  1
  Zn  Zn157  1  0.43815906  0.68595837  0.43570378  1
  Zn  Zn158  1  0.43789469  0.68695798  0.94100765  1
  Zn  Zn159  1  0.93442615  0.18229123  0.43668050  1
  Zn  Zn160  1  0.93076268  0.18594775  0.93613223  1
  Zn  Zn161  1  0.94009211  0.68963955  0.43703323  1
  Zn  Zn162  1  0.94276793  0.68207464  0.93548494  1
  Zn  Zn163  1  0.06065767  0.31085973  0.06316627  1
  Zn  Zn164  1  0.06369110  0.31368875  0.56808289  1
  Zn  Zn165  1  0.06170836  0.81058199  0.06481464  1
  Zn  Zn166  1  0.05929810  0.81526694  0.55869155  1
  Zn  Zn167  1  0.56532166  0.31192420  0.06806709  1
  Zn  Zn168  1  0.56515917  0.31475540  0.55567811  1
  Zn  Zn169  1  0.56582573  0.81368380  0.05677083  1
  Zn  Zn170  1  0.56061207  0.81374555  0.55633354  1
  O  O171  1  0.11804860  0.12090823  0.11691345  1
  O  O172  1  0.10853440  0.12654652  0.62760924  1
  O  O173  1  0.11794947  0.62884290  0.11748328  1
  O  O174  1  0.13331155  0.62190729  0.61175217  1
  O  O175  1  0.61793947  0.11884713  0.12114025  1
  O  O176  1  0.61273672  0.11370235  0.62259172  1
  O  O177  1  0.61365041  0.61844726  0.13265768  1
  O  O178  1  0.61850882  0.62077121  0.62488066  1
  O  O179  1  0.39040894  0.37213226  0.37563200  1
  O  O180  1  0.38194295  0.38153618  0.88348588  1
  O  O181  1  0.36731343  0.88404981  0.38283091  1
  O  O182  1  0.38729217  0.87071305  0.88355522  1
  O  O183  1  0.87620137  0.38744932  0.37393324  1
  O  O184  1  0.87774009  0.38742805  0.88325566  1
  O  O185  1  0.87473251  0.87468932  0.39232158  1
  O  O186  1  0.87953359  0.87949701  0.88073106  1
  O  O187  1  0.25400397  0.00869146  0.36767125  1
  O  O188  1  0.24745400  -0.00228222  0.85890152  1
  O  O189  1  0.25089401  0.50898046  0.38104617  1
  O  O190  1  0.25981566  0.50203929  0.86990844  1
  O  O191  1  0.74824936  0.00763874  0.36002255  1
  O  O192  1  0.76063459  -0.00834932  0.86403109  1
  O  O193  1  0.76478176  0.50023051  0.38182872  1
  O  O194  1  0.75562550  0.50682233  0.87094809  1
  O  O195  1  0.25603230  0.48308589  0.12317686  1
  O  O196  1  0.25006152  0.49128822  0.63241133  1
  O  O197  1  0.24766891  0.99822936  0.12991294  1
  O  O198  1  0.24708048  0.99491615  0.62945596  1
  O  O199  1  0.73620390  0.50465593  0.12482427  1
  O  O200  1  0.74849383  0.49596132  0.63241539  1
  O  O201  1  0.75239645  0.98618690  0.13609332  1
  O  O202  1  0.74036467  1.00473018  0.62912525  1
  O  O203  1  -0.00139305  0.36133853  0.25228354  1
  O  O204  1  0.00885756  0.36662905  0.75286369  1
  O  O205  1  0.01518152  0.88328860  0.24815396  1
  O  O206  1  0.00645547  0.86788583  0.75355249  1
  O  O207  1  0.50671847  0.37681001  0.26519480  1
  O  O208  1  0.50831823  0.37463750  0.75146054  1
  O  O209  1  0.50782260  0.86629705  0.24167182  1
  O  O210  1  0.49529321  0.87434982  0.76103146  1
  O  O211  1  0.50201521  0.13062101  0.22670386  1
  O  O212  1  0.49981191  0.13197992  0.73823320  1
  O  O213  1  0.49196671  0.63427439  0.24460282  1
  O  O214  1  0.49133750  0.61856580  0.73949952  1
  O  O215  1  0.99422184  0.13220245  0.24718573  1
  O  O216  1  0.99141117  0.12998043  0.74306794  1
  O  O217  1  0.99374681  0.61853061  0.24351460  1
  O  O218  1  1.00248348  0.63652915  0.75719019  1
  O  O219  1  0.36917327  0.26283137  0.00504609  1
  O  O220  1  0.36621880  0.25412683  0.51191054  1
  O  O221  1  0.36912858  0.75604952  0.00556522  1
  O  O222  1  0.36989360  0.75848753  0.50033129  1
  O  O223  1  0.86784300  0.25593586  0.00742148  1
  O  O224  1  0.87046751  0.24543600  0.51184732  1
  O  O225  1  0.88401612  0.75912546  -0.00067829  1
  O  O226  1  0.86729539  0.75699878  0.50492109  1
  O  O227  1  0.13212457  0.25237790  0.49460870  1
  O  O228  1  0.13178540  0.24105843  1.00453425  1
  O  O229  1  0.13321807  0.74345575  0.50214749  1
  O  O230  1  0.13309712  0.74459047  0.99758943  1
  O  O231  1  0.63612053  0.24292695  0.51154757  1
  O  O232  1  0.64594943  0.26303890  1.00152388  1
  O  O233  1  0.63182741  0.75234100  0.49131286  1
  O  O234  1  0.62753415  0.75647105  0.97748334  1
  O  O235  1  0.48555525  0.25213646  0.12562224  1
  O  O236  1  0.49249237  0.24585169  0.62618219  1
  O  O237  1  0.49875733  0.74376144  0.12983827  1
  O  O238  1  0.49510130  0.73712441  0.61622525  1
  O  O239  1  0.99186432  0.24412004  0.13263184  1
  O  O240  1  0.99223345  0.24470474  0.63230601  1
  O  O241  1  0.99863065  0.73374205  0.12369500  1
  O  O242  1  0.99408246  0.75416952  0.63344616  1
  O  O243  1  0.00555720  0.24767975  0.37048689  1
  O  O244  1  -0.00796751  0.25139280  0.86230742  1
  O  O245  1  0.00721413  0.75824710  0.38130000  1
  O  O246  1  0.00695684  0.75486947  0.86752992  1
  O  O247  1  0.49977380  0.25732791  0.38064930  1
  O  O248  1  0.50128206  0.26152310  0.86445186  1
  O  O249  1  0.50392086  0.75110984  0.36346661  1
  O  O250  1  0.50811829  0.74521079  0.87168991  1
  O  O251  1  0.25290962  0.13619259  0.49352206  1
  O  O252  1  0.23982534  0.13396907  0.99912595  1
  O  O253  1  0.24819473  0.63169858  0.49534017  1
  O  O254  1  0.24463572  0.62979300  1.00390714  1
  O  O255  1  0.75246293  0.11843521  0.47976822  1
  O  O256  1  0.75069496  0.13878809  1.00348765  1
  O  O257  1  0.74701141  0.63946558  0.50315241  1
  O  O258  1  0.75422547  0.62091886  0.98904162  1
  O  O259  1  0.25699207  0.37190106  0.00973514  1
  O  O260  1  0.24918864  0.36712186  0.50897091  1
  O  O261  1  0.25898299  0.87030056  0.00316576  1
  O  O262  1  0.25464404  0.86928675  0.50094052  1
  O  O263  1  0.76415554  0.37030595  0.00009251  1
  O  O264  1  0.74654412  0.37861211  0.51224840  1
  O  O265  1  0.76285734  0.87431095  0.00787732  1
  O  O266  1  0.76026023  0.87173591  0.49892050  1
  O  O267  1  0.12865371  0.49682347  0.25578636  1
  O  O268  1  0.13175124  0.49425073  0.75087801  1
  O  O269  1  0.13238821  0.99474586  0.24220886  1
  O  O270  1  0.13346384  0.99145381  0.74582037  1
  O  O271  1  0.62765836  0.49511068  0.24500908  1
  O  O272  1  0.63238428  0.49258592  0.74606134  1
  O  O273  1  0.63184451  0.99066175  0.24409902  1
  O  O274  1  0.63480599  0.99464341  0.73878722  1
  O  O275  1  0.36667758  -0.00595072  0.25946120  1
  O  O276  1  0.35956599  -0.00014535  0.74176583  1
  O  O277  1  0.37179973  0.51273474  0.24441214  1
  O  O278  1  0.37049590  0.50890249  0.75399308  1
  O  O279  1  0.86863402  0.00762813  0.24459549  1
  O  O280  1  0.86903028  0.00453321  0.75262521  1
  O  O281  1  0.87274320  0.50679423  0.26412584  1
  O  O282  1  0.87027037  0.50020034  0.76022139  1
  O  O283  1  0.12216783  0.36009784  0.37300848  1
  O  O284  1  0.12400029  0.37968914  0.86529816  1
  O  O285  1  0.12804699  0.87733770  0.35648593  1
  O  O286  1  0.11995200  0.86877295  0.86804027  1
  O  O287  1  0.61176597  0.37756581  0.36431959  1
  O  O288  1  0.62173145  0.37317382  0.86526812  1
  O  O289  1  0.62722887  0.86634435  0.36069915  1
  O  O290  1  0.60830473  0.86544082  0.86855204  1
  O  O291  1  0.38488719  0.13839132  0.11563517  1
  O  O292  1  0.38591864  0.13166092  0.62527968  1
  O  O293  1  0.38430235  0.63213529  0.13274942  1
  O  O294  1  0.38246517  0.63025438  0.63145017  1
  O  O295  1  0.87994177  0.13135225  0.13349362  1
  O  O296  1  0.88252208  0.13222640  0.63197883  1
  O  O297  1  0.88533521  0.62621685  0.14015597  1
  O  O298  1  0.87367667  0.64136460  0.62852295  1
  O  O299  1  0.26010056  0.25762205  0.11533694  1
  O  O300  1  0.25394648  0.25346653  0.62090869  1
  O  O301  1  0.25818732  0.75781383  0.12027675  1
  O  O302  1  0.25854708  0.75574475  0.61237548  1
  O  O303  1  0.76216662  0.24712482  0.11792543  1
  O  O304  1  0.76007640  0.26054105  0.62837898  1
  O  O305  1  0.75565553  0.76170870  0.13034932  1
  O  O306  1  0.75746890  0.75269189  0.61734110  1
  O  O307  1  0.24537291  0.24562242  0.38236138  1
  O  O308  1  0.25046864  0.25543462  0.89033057  1
  O  O309  1  0.24555743  0.74482468  0.38533228  1
  O  O310  1  0.24440907  0.74884341  0.88197124  1
  O  O311  1  0.75600507  0.23321935  0.37331061  1
  O  O312  1  0.75602326  0.25455881  0.88999068  1
  O  O313  1  0.74075745  0.75398532  0.38622656  1
  O  O314  1  0.75492599  0.73384188  0.87459257  1
  O  O315  1  0.00447966  0.12160793  0.00192753  1
  O  O316  1  -0.01001428  0.10857378  0.50653560  1
  O  O317  1  0.00781877  0.61776183  0.00976042  1
  O  O318  1  0.00816066  0.61335437  0.49809148  1
  O  O319  1  0.51208394  0.14336062  0.01674266  1
  O  O320  1  0.49847206  0.11431964  0.50340000  1
  O  O321  1  0.49475313  0.61421795  0.01162673  1
  O  O322  1  0.50121432  0.61595951  0.50535794  1
  O  O323  1  0.50052223  0.38558821  0.48686276  1
  O  O324  1  0.49418719  0.37967117  0.99727761  1
  O  O325  1  0.49046343  0.88861332  0.49827104  1
  O  O326  1  0.48868121  0.87204582  0.98804980  1
  O  O327  1  1.00394580  0.38975920  0.50257360  1
  O  O328  1  0.99269783  0.38172276  1.00151079  1
  O  O329  1  0.99148006  0.88912868  0.49884750  1
  O  O330  1  0.99494809  0.88091366  0.99445908  1
  O  O331  1  0.50023210  0.50388571  0.38648112  1
  O  O332  1  0.49869852  0.49721877  0.88377208  1
  O  O333  1  0.49045992  1.00972763  0.37704607  1
  O  O334  1  0.50191683  0.99035096  0.86656792  1
  O  O335  1  0.98853298  0.49540769  0.38830882  1
  O  O336  1  0.99160995  0.50074437  0.88934059  1
  O  O337  1  1.00342202  0.99894450  0.38628833  1
  O  O338  1  0.98987421  0.99273657  0.87677958  1
  O  O339  1  0.00389499  0.00709488  0.11532227  1
  O  O340  1  0.00177687  0.00739462  0.61733083  1
  O  O341  1  -0.00483722  0.50992834  0.11680663  1
  O  O342  1  -0.00325757  0.49954430  0.61447184  1
  O  O343  1  0.49898257  0.01293756  0.12095220  1
  O  O344  1  0.50245211  0.00757988  0.61409297  1
  O  O345  1  0.50622382  0.50720510  0.12102875  1
  O  O346  1  0.50572577  0.50947429  0.61670457  1
  O  O347  1  0.25106449  0.37563232  0.23706255  1
  O  O348  1  0.24533245  0.37907348  0.74612099  1
  O  O349  1  0.24323380  0.88656960  0.24208067  1
  O  O350  1  0.24688381  0.88294350  0.74391558  1
  O  O351  1  0.73454137  0.38011929  0.25753835  1
  O  O352  1  0.74473214  0.38563380  0.74606655  1
  O  O353  1  0.74548559  0.87944620  0.24580029  1
  O  O354  1  0.75125272  0.88412755  0.74774827  1
  O  O355  1  0.24480266  0.11443290  0.25392258  1
  O  O356  1  0.24818048  0.11107964  0.75051815  1
  O  O357  1  0.25750403  0.62489964  0.25965030  1
  O  O358  1  0.25825504  0.61755546  0.75078219  1
  O  O359  1  0.75625453  0.11750033  0.25470948  1
  O  O360  1  0.76041452  0.11746760  0.74181461  1
  O  O361  1  0.76534669  0.62163347  0.24823146  1
  O  O362  1  0.75249770  0.61182604  0.75692522  1
  O  O363  1  0.36103071  0.11807805  0.37552479  1
  O  O364  1  0.36976031  0.13287802  0.87300663  1
  O  O365  1  0.36527591  0.63193500  0.36526090  1
  O  O366  1  0.37548957  0.61974661  0.86767123  1
  O  O367  1  0.86728081  0.12453527  0.36102689  1
  O  O368  1  0.87761889  0.11307079  0.86379117  1
  O  O369  1  0.88054473  0.61586368  0.36526836  1
  O  O370  1  0.86692372  0.61490315  0.87453399  1
  O  O371  1  0.14095102  0.36737068  0.12621436  1
  O  O372  1  0.13613692  0.37705269  0.63705540  1
  O  O373  1  0.13003396  0.88207775  0.13124432  1
  O  O374  1  0.13378741  0.87435842  0.63013367  1
  O  O375  1  0.61443427  0.38504861  0.14381208  1
  O  O376  1  0.63182963  0.38404288  0.63195636  1
  O  O377  1  0.63293359  0.87039888  0.13439710  1
  O  O378  1  0.61440380  0.88831375  0.62542495  1
  O  O379  1  0.11590818  0.25056123  0.25628785  1
  O  O380  1  0.11499922  0.25789604  0.74814022  1
  O  O381  1  0.13325112  0.76695965  0.24741299  1
  O  O382  1  0.12169960  0.75511836  0.75275570  1
  O  O383  1  0.63012321  0.26354348  0.24521529  1
  O  O384  1  0.62170280  0.26319706  0.74420093  1
  O  O385  1  0.61803235  0.75505325  0.25569693  1
  O  O386  1  0.63605918  0.75105344  0.76917473  1
  O  O387  1  0.36753381  0.24711348  0.23591465  1
  O  O388  1  0.37996151  0.25069895  0.73715563  1
  O  O389  1  0.38113292  0.74842000  0.24375735  1
  O  O390  1  0.36837383  0.73778236  0.74277837  1
  O  O391  1  0.88061604  0.24355260  0.24452759  1
  O  O392  1  0.88007209  0.24245072  0.74396824  1
  O  O393  1  0.87460994  0.73622057  0.25486518  1
  O  O394  1  0.88577621  0.75007860  0.74205781  1
  O  O395  1  0.39069351  0.49695415  0.50744465  1
  O  O396  1  0.38603393  0.48983489  0.99866600  1
  O  O397  1  0.37947825  0.99487717  0.48780873  1
  O  O398  1  0.36919878  0.98570243  0.99935986  1
  O  O399  1  0.88461950  0.50670107  0.49238539  1
  O  O400  1  0.88116679  0.49445020  0.99864981  1
  O  O401  1  0.88180866  0.98844452  0.50556910  1
  O  O402  1  0.87805671  0.99477601  0.99123329  1
  O  O403  1  0.11973701  0.00669246  0.00371651  1
  O  O404  1  0.11083416  -0.00372536  0.50153759  1
  O  O405  1  0.11732103  0.50871265  -0.00139504  1
  O  O406  1  0.11198845  0.50614496  0.50432330  1
  O  O407  1  0.63432467  -0.00733552  0.00424659  1
  O  O408  1  0.61713648  0.00180910  0.50099527  1
  O  O409  1  0.61393345  0.48957017  0.00950461  1
  O  O410  1  0.61381029  0.50286571  0.50455054  1
  O  O411  1  0.36990741  0.36709955  0.12111232  1
  O  O412  1  0.36309167  0.36850481  0.62515320  1
  O  O413  1  0.37400313  0.87152078  0.11243596  1
  O  O414  1  0.37033047  0.87101369  0.61104036  1
  O  O415  1  0.88030295  0.36588601  0.12017859  1
  O  O416  1  0.86596964  0.36517326  0.63198651  1
  O  O417  1  0.87133643  0.87017692  0.11589898  1
  O  O418  1  0.87938567  0.86380755  0.60980199  1
  O  O419  1  0.13716407  0.13604205  0.37194567  1
  O  O420  1  0.12609667  0.11985151  0.88460449  1
  O  O421  1  0.13482473  0.62583487  0.38861380  1
  O  O422  1  0.12748033  0.63139100  0.89034153  1
  O  O423  1  0.63888652  0.12186725  0.36967141  1
  O  O424  1  0.62447730  0.13498669  0.87434452  1
  O  O425  1  0.61991885  0.64067305  0.37415724  1
  O  O426  1  0.63667172  0.63294284  0.87504537  1
