# generated using pymatgen
data_V85Zn86O256
_symmetry_space_group_name_H-M   'P 1'
_cell_length_a   16.91701114
_cell_length_b   16.91710401
_cell_length_c   16.92315591
_cell_angle_alpha   90.06743120
_cell_angle_beta   89.95265732
_cell_angle_gamma   89.96216042
_symmetry_Int_Tables_number   1
_chemical_formula_structural   V85Zn86O256
_chemical_formula_sum   'V85 Zn86 O256'
_cell_volume   4843.17839476
_cell_formula_units_Z   1
loop_
 _symmetry_equiv_pos_site_id
 _symmetry_equiv_pos_as_xyz
  1  'x, y, z'
loop_
 _atom_site_type_symbol
 _atom_site_label
 _atom_site_symmetry_multiplicity
 _atom_site_fract_x
 _atom_site_fract_y
 _atom_site_fract_z
 _atom_site_occupancy
  V  V0  1  0.74604706  0.62946340  0.87841838  1
  V  V1  1  0.36570128  0.61792481  0.73907628  1
  V  V2  1  0.00076830  0.74951719  0.24975031  1
  V  V3  1  0.38871784  0.37463625  0.49518039  1
  V  V4  1  0.61569956  0.37612945  0.25481220  1
  V  V5  1  0.25252825  0.37544728  0.11859110  1
  V  V6  1  0.74696690  0.50199418  0.25792219  1
  V  V7  1  0.61709642  0.49949920  0.12139154  1
  V  V8  1  0.50656925  0.51945988  0.50084557  1
  V  V9  1  0.26337605  0.87335395  0.61724101  1
  V  V10  1  -0.00024880  0.37623036  0.37359184  1
  V  V11  1  0.37648391  0.24067984  0.12221973  1
  V  V12  1  0.61475485  0.01687766  0.12843330  1
  V  V13  1  -0.00063315  0.00303943  0.49989753  1
  V  V14  1  0.25328282  0.38030927  0.62579140  1
  V  V15  1  0.61743272  0.86828964  0.76391896  1
  V  V16  1  0.75257906  0.86657817  0.62571216  1
  V  V17  1  0.87769192  0.86758262  0.50624314  1
  V  V18  1  0.00131995  0.87196608  0.87487280  1
  V  V19  1  0.37533124  0.12672935  0.75228355  1
  V  V20  1  0.12533241  0.36531470  0.74669910  1
  V  V21  1  0.73463487  0.87498845  0.12897791  1
  V  V22  1  0.37093815  -0.00370076  0.38453431  1
  V  V23  1  0.87457516  0.00284664  0.87607920  1
  V  V24  1  0.13472669  0.62935718  -0.00077763  1
  V  V25  1  0.74605399  0.37359014  0.62927751  1
  V  V26  1  0.12798572  -0.00196968  0.62267668  1
  V  V27  1  0.74231589  0.74195790  0.49323626  1
  V  V28  1  0.87439383  0.38052211  0.50033659  1
  V  V29  1  0.74603133  0.50110299  0.75140978  1
  V  V30  1  0.73746777  0.12693327  0.87915123  1
  V  V31  1  0.49920519  0.24101036  0.24696860  1
  V  V32  1  0.62675389  -0.00502665  0.62489506  1
  V  V33  1  0.00037726  0.50073111  -0.00114859  1
  V  V34  1  0.13136041  0.12621694  0.49162433  1
  V  V35  1  0.87559305  0.50128610  0.87612896  1
  V  V36  1  0.00023400  0.36817929  0.86889607  1
  V  V37  1  0.00145395  0.87338089  0.37533652  1
  V  V38  1  0.62467754  0.12303317  0.50254336  1
  V  V39  1  0.74835584  0.12439859  0.37561998  1
  V  V40  1  0.25094405  -0.00226338  0.74923346  1
  V  V41  1  0.50233579  0.73459778  0.75431092  1
  V  V42  1  0.75030213  -0.00083492  0.75171043  1
  V  V43  1  0.87254416  0.87500313  0.00388987  1
  V  V44  1  0.87718764  0.12305031  0.24752993  1
  V  V45  1  0.12404772  0.12851002  0.00052280  1
  V  V46  1  0.25005891  0.87230485  0.11638240  1
  V  V47  1  0.37744210  -0.01000321  0.87503686  1
  V  V48  1  0.12617902  0.50119907  0.12358628  1
  V  V49  1  0.50505166  0.00463839  -0.00449200  1
  V  V50  1  0.73606272  0.24599270  -0.00094960  1
  V  V51  1  0.13396060  0.74397068  0.37293809  1
  V  V52  1  0.74419561  -0.00383737  0.25153681  1
  V  V53  1  0.87068340  0.62472861  0.25671557  1
  V  V54  1  0.25175164  0.50751019  0.25458262  1
  V  V55  1  0.38098048  0.50045101  0.87561528  1
  V  V56  1  0.12246657  0.00478759  0.12795382  1
  V  V57  1  0.87225787  0.75145950  0.12585838  1
  V  V58  1  0.39335806  0.37781576  -0.00558011  1
  V  V59  1  0.50228701  0.12710710  0.62611470  1
  V  V60  1  0.62062251  0.37196152  0.76596107  1
  V  V61  1  0.50869178  0.87317414  0.36917879  1
  V  V62  1  0.87664238  0.63540893  0.74600470  1
  V  V63  1  0.61314054  0.62438116  -0.00263760  1
  V  V64  1  0.61484218  0.25251290  0.37896461  1
  V  V65  1  0.62494192  0.74234737  0.35932856  1
  V  V66  1  0.12396123  0.50381000  0.63382645  1
  V  V67  1  0.75034213  0.24988949  0.50012926  1
  V  V68  1  0.25932277  0.74929527  0.49557849  1
  V  V69  1  0.13681496  0.75159080  0.87538021  1
  V  V70  1  0.25467079  0.25137131  0.49106277  1
  V  V71  1  0.74880920  0.37554605  0.12542225  1
  V  V72  1  -0.00185458  0.00499152  0.00662787  1
  V  V73  1  0.37682390  0.75117979  0.12195138  1
  V  V74  1  0.12691288  0.37534645  0.24903975  1
  V  V75  1  0.25284821  0.00595947  0.25111533  1
  V  V76  1  0.49827750  0.63004416  0.13564298  1
  V  V77  1  0.88421434  0.24988872  0.63181683  1
  V  V78  1  0.13002926  0.62103732  0.49697394  1
  V  V79  1  0.37837990  0.50361857  0.37419619  1
  V  V80  1  0.87502758  0.24818096  0.12371739  1
  V  V81  1  -0.00141806  0.62602018  0.12278744  1
  V  V82  1  0.50334344  0.25216010  0.76612292  1
  V  V83  1  0.73936920  0.75171781  -0.00062500  1
  V  V84  1  0.00145114  0.24668739  0.24584169  1
  Zn  Zn85  1  0.25094032  0.61870496  0.87256005  1
  Zn  Zn86  1  0.87278922  -0.00040318  0.37640624  1
  Zn  Zn87  1  0.13125903  0.24692670  0.37003426  1
  Zn  Zn88  1  -0.00584742  0.63214188  0.61737894  1
  Zn  Zn89  1  0.37634094  0.25279660  0.62600108  1
  Zn  Zn90  1  0.12563235  0.87249225  0.74713208  1
  Zn  Zn91  1  0.61132233  0.50876896  0.62984615  1
  Zn  Zn92  1  0.87427209  0.37330077  -0.00077938  1
  Zn  Zn93  1  0.25077591  0.25050085  -0.00613978  1
  Zn  Zn94  1  -0.00102441  0.75638255  0.73940104  1
  Zn  Zn95  1  0.37387150  0.12442768  0.25389898  1
  Zn  Zn96  1  0.87934955  0.12991691  0.75362717  1
  Zn  Zn97  1  0.37227689  0.63603358  0.25692710  1
  Zn  Zn98  1  0.39009564  0.74635894  0.61554713  1
  Zn  Zn99  1  0.12185880  0.24355102  0.86636492  1
  Zn  Zn100  1  0.24777126  0.12627163  0.87435758  1
  Zn  Zn101  1  0.37923185  0.86930601  -0.00682848  1
  Zn  Zn102  1  0.86984355  0.50507446  0.38040571  1
  Zn  Zn103  1  0.00063151  0.50070740  0.50090748  1
  Zn  Zn104  1  0.12679353  0.87495688  0.24902854  1
  Zn  Zn105  1  0.49335962  -0.01330990  0.50576971  1
  Zn  Zn106  1  0.00687965  0.13005460  0.63092860  1
  Zn  Zn107  1  0.18934823  0.18651123  0.18357109  1
  Zn  Zn108  1  0.19141556  0.18839509  0.67943566  1
  Zn  Zn109  1  0.18994564  0.69029585  0.18490239  1
  Zn  Zn110  1  0.18646001  0.69154114  0.68463108  1
  Zn  Zn111  1  0.68907471  0.18854827  0.19043436  1
  Zn  Zn112  1  0.68996611  0.18848570  0.69400904  1
  Zn  Zn113  1  0.68628360  0.68480200  0.18734655  1
  Zn  Zn114  1  0.68345746  0.69052993  0.68835937  1
  Zn  Zn115  1  0.31659911  0.31924753  0.31141298  1
  Zn  Zn116  1  0.30936122  0.31290339  0.81366585  1
  Zn  Zn117  1  0.31612323  0.82147842  0.30683006  1
  Zn  Zn118  1  0.31646166  0.80783595  0.80456180  1
  Zn  Zn119  1  0.80860539  0.31356788  0.31327149  1
  Zn  Zn120  1  0.80995481  0.31245869  0.81550112  1
  Zn  Zn121  1  0.81211699  0.81422006  0.31506862  1
  Zn  Zn122  1  0.80869976  0.81450443  0.81619092  1
  Zn  Zn123  1  0.19046566  0.43672280  0.43765939  1
  Zn  Zn124  1  0.19103394  0.43917665  0.93108941  1
  Zn  Zn125  1  0.18932992  0.93393307  0.43629398  1
  Zn  Zn126  1  0.18682424  0.94160959  0.93663786  1
  Zn  Zn127  1  0.68369471  0.43711452  0.43903773  1
  Zn  Zn128  1  0.68770879  0.43805055  0.94129503  1
  Zn  Zn129  1  0.68491707  0.93207179  0.43839279  1
  Zn  Zn130  1  0.68464018  0.94262320  0.94312983  1
  Zn  Zn131  1  0.31141097  0.05993449  0.05939395  1
  Zn  Zn132  1  0.31273382  0.06673636  0.56256136  1
  Zn  Zn133  1  0.31694582  0.56038731  0.06134017  1
  Zn  Zn134  1  0.31124372  0.56066946  0.55798376  1
  Zn  Zn135  1  0.80793622  0.06416754  0.06494320  1
  Zn  Zn136  1  0.81348945  0.06089466  0.56390871  1
  Zn  Zn137  1  0.80829643  0.56294226  0.06580973  1
  Zn  Zn138  1  0.77765541  0.57947228  0.58078949  1
  Zn  Zn139  1  0.43723020  0.43595596  0.18600601  1
  Zn  Zn140  1  0.43905632  0.43853350  0.68600305  1
  Zn  Zn141  1  0.43722266  0.93517509  0.18922768  1
  Zn  Zn142  1  0.44095681  0.93548250  0.68881078  1
  Zn  Zn143  1  0.93586981  0.43738550  0.18805421  1
  Zn  Zn144  1  0.93798831  0.44246955  0.68785828  1
  Zn  Zn145  1  0.93501746  0.93671212  0.18869591  1
  Zn  Zn146  1  0.93892303  0.93988507  0.68805637  1
  Zn  Zn147  1  0.06237952  0.06242765  0.31218253  1
  Zn  Zn148  1  0.05971741  0.06237785  0.81102869  1
  Zn  Zn149  1  0.06104463  0.56213795  0.31290069  1
  Zn  Zn150  1  0.06282397  0.56219723  0.81180143  1
  Zn  Zn151  1  0.55868081  0.05852369  0.31567960  1
  Zn  Zn152  1  0.56072967  0.05860455  0.81170600  1
  Zn  Zn153  1  0.55951556  0.56136139  0.31744064  1
  Zn  Zn154  1  0.56022655  0.55820146  0.81652689  1
  Zn  Zn155  1  0.43626792  0.18043879  0.43741510  1
  Zn  Zn156  1  0.43673757  0.18147544  0.94080590  1
  Zn  Zn157  1  0.44232260  0.68918072  0.42955635  1
  Zn  Zn158  1  0.43397056  0.69050663  0.93349869  1
  Zn  Zn159  1  0.93813527  0.18956589  0.43706282  1
  Zn  Zn160  1  0.93639310  0.18598183  0.93955643  1
  Zn  Zn161  1  0.94021214  0.68834253  0.44010676  1
  Zn  Zn162  1  0.93670033  0.68951146  0.93750593  1
  Zn  Zn163  1  0.05964957  0.31476095  0.06225685  1
  Zn  Zn164  1  0.06539143  0.31432550  0.55936049  1
  Zn  Zn165  1  0.06427837  0.81433544  0.06049805  1
  Zn  Zn166  1  0.06754491  0.80932604  0.56260275  1
  Zn  Zn167  1  0.56164290  0.30918107  0.06610225  1
  Zn  Zn168  1  0.56440656  0.31307519  0.57127574  1
  Zn  Zn169  1  0.55547561  0.81533190  0.06116080  1
  Zn  Zn170  1  0.56038542  0.80926696  0.56005503  1
  O  O171  1  0.12660179  0.11205312  0.11849219  1
  O  O172  1  0.12694674  0.11339184  0.61379874  1
  O  O173  1  0.11841759  0.62261024  0.11733967  1
  O  O174  1  0.12650460  0.61693513  0.61764481  1
  O  O175  1  0.62730925  0.11495547  0.12638817  1
  O  O176  1  0.62142189  0.11702744  0.62508965  1
  O  O177  1  0.61766285  0.61930500  0.11909925  1
  O  O178  1  0.67172136  0.60327248  0.62332201  1
  O  O179  1  0.37399861  0.38751564  0.38466332  1
  O  O180  1  0.37169212  0.37796929  0.88913290  1
  O  O181  1  0.38462931  0.88828799  0.37243164  1
  O  O182  1  0.36955539  0.88607451  0.87132080  1
  O  O183  1  0.88065931  0.37407773  0.38229556  1
  O  O184  1  0.88163059  0.38411200  0.87531508  1
  O  O185  1  0.88773034  0.87775206  0.38082801  1
  O  O186  1  0.87874290  0.88414046  0.88337085  1
  O  O187  1  0.26160159  -0.00842256  0.36738680  1
  O  O188  1  0.25604772  0.00263061  0.86385017  1
  O  O189  1  0.25814816  0.49429131  0.36343886  1
  O  O190  1  0.26751058  0.50227514  0.87785654  1
  O  O191  1  0.74856490  0.00382420  0.36754938  1
  O  O192  1  0.75761782  0.00501172  0.87484139  1
  O  O193  1  0.75026856  0.49433307  0.36221980  1
  O  O194  1  0.75821136  0.50662311  0.87224865  1
  O  O195  1  0.24527369  0.49322750  0.12948482  1
  O  O196  1  0.24127040  0.48740212  0.61716638  1
  O  O197  1  0.24329919  0.99314689  0.13034004  1
  O  O198  1  0.24699712  0.99384631  0.62819432  1
  O  O199  1  0.73937083  0.49518114  0.13437960  1
  O  O200  1  0.76796175  0.47900926  0.63851494  1
  O  O201  1  0.73884424  0.99519687  0.13093736  1
  O  O202  1  0.74455484  0.99215542  0.63127245  1
  O  O203  1  0.00509333  0.36932354  0.25473997  1
  O  O204  1  0.00863785  0.38141775  0.75835074  1
  O  O205  1  0.00084613  0.86864670  0.25815529  1
  O  O206  1  0.00336347  0.87718252  0.76046431  1
  O  O207  1  0.51145474  0.36688388  0.24710900  1
  O  O208  1  0.50825196  0.36415407  0.74386263  1
  O  O209  1  0.49779323  0.87969076  0.26829119  1
  O  O210  1  0.51511848  0.87380379  0.75184916  1
  O  O211  1  0.50081245  0.13777085  0.25236295  1
  O  O212  1  0.49479932  0.12898504  0.74488351  1
  O  O213  1  0.49673087  0.62087588  0.23834829  1
  O  O214  1  0.49656271  0.63021611  0.74844880  1
  O  O215  1  0.99038731  0.13421332  0.25586311  1
  O  O216  1  0.99130762  0.11508005  0.74201747  1
  O  O217  1  0.99398361  0.62985569  0.24159877  1
  O  O218  1  0.98322787  0.62652077  0.75529923  1
  O  O219  1  0.37496331  0.25973764  0.00563024  1
  O  O220  1  0.37144248  0.25569540  0.49978262  1
  O  O221  1  0.37572085  0.75272355  0.01207535  1
  O  O222  1  0.36348403  0.74005533  0.49831793  1
  O  O223  1  0.87303074  0.24878667  0.01514854  1
  O  O224  1  0.86899749  0.25960281  0.50610245  1
  O  O225  1  0.86451227  0.75494732  0.00690152  1
  O  O226  1  0.86840016  0.76435959  0.49132534  1
  O  O227  1  0.13360471  0.24317359  0.49753120  1
  O  O228  1  0.11991530  0.23545165  1.00476524  1
  O  O229  1  0.13497566  0.74208287  0.49062197  1
  O  O230  1  0.11718105  0.74017764  0.98935159  1
  O  O231  1  0.62951182  0.24607606  0.49560405  1
  O  O232  1  0.63662496  0.25045240  1.00519474  1
  O  O233  1  0.63873102  0.75022330  0.49337734  1
  O  O234  1  0.63339606  0.74359313  1.00649931  1
  O  O235  1  0.48945913  0.25390887  0.13483898  1
  O  O236  1  0.50001433  0.23620458  0.63212121  1
  O  O237  1  0.49216775  0.74228555  0.12501676  1
  O  O238  1  0.50205366  0.75758672  0.64397098  1
  O  O239  1  0.99099145  0.25600995  0.13778919  1
  O  O240  1  0.98700959  0.25041005  0.61806539  1
  O  O241  1  0.99392089  0.74802483  0.13018435  1
  O  O242  1  1.00260112  0.74602248  0.62603505  1
  O  O243  1  -0.00037046  0.26018810  0.36327132  1
  O  O244  1  -0.00014252  0.26403002  0.88104950  1
  O  O245  1  0.00902949  0.75660285  0.37003992  1
  O  O246  1  0.00281158  0.76371714  0.87611134  1
  O  O247  1  0.51030663  0.24600978  0.37072815  1
  O  O248  1  0.49727781  0.24279433  0.86512416  1
  O  O249  1  0.51416128  0.75882739  0.37396076  1
  O  O250  1  0.49573408  0.75102915  0.85474529  1
  O  O251  1  0.24365448  0.13709052  0.50390533  1
  O  O252  1  0.23867904  0.12605454  0.99756922  1
  O  O253  1  0.23830144  0.63194949  0.50068421  1
  O  O254  1  0.23719254  0.62223394  1.00155226  1
  O  O255  1  0.74438182  0.12955486  0.49647422  1
  O  O256  1  0.75326089  0.13335479  0.99241060  1
  O  O257  1  0.76777162  0.64550661  0.48765858  1
  O  O258  1  0.74222986  0.63360234  0.99767125  1
  O  O259  1  0.24771580  0.37291150  0.01107120  1
  O  O260  1  0.25924848  0.36902933  0.50535258  1
  O  O261  1  0.25285039  0.88541539  0.01356653  1
  O  O262  1  0.24747025  0.86379048  0.50655698  1
  O  O263  1  0.75338869  0.36669502  0.00739665  1
  O  O264  1  0.75474493  0.37007042  0.50830908  1
  O  O265  1  0.75080060  0.86939045  0.00828173  1
  O  O266  1  0.75892713  0.87120343  0.50700394  1
  O  O267  1  0.13169661  0.49562281  0.24405285  1
  O  O268  1  0.12330359  0.49378749  0.73816620  1
  O  O269  1  0.12864156  0.99831341  0.24295239  1
  O  O270  1  0.13500887  0.99890657  0.74039054  1
  O  O271  1  0.62840555  0.49352640  0.24663560  1
  O  O272  1  0.62965854  0.49148416  0.75015508  1
  O  O273  1  0.63126718  1.00508449  0.23939749  1
  O  O274  1  0.62950617  0.99010761  0.74200963  1
  O  O275  1  0.36762593  0.00226117  0.25601610  1
  O  O276  1  0.37103714  0.00533780  0.75416576  1
  O  O277  1  0.36822323  0.49699298  0.25680434  1
  O  O278  1  0.38048518  0.51225126  0.75449113  1
  O  O279  1  0.86774551  0.00823914  0.25196433  1
  O  O280  1  0.86629070  -0.00456089  0.76152503  1
  O  O281  1  0.86500252  0.50709277  0.24947701  1
  O  O282  1  0.86992255  0.50839898  0.76286545  1
  O  O283  1  0.11717186  0.37263501  0.36766792  1
  O  O284  1  0.11787066  0.37520351  0.86392705  1
  O  O285  1  0.11405660  0.86756507  0.37447133  1
  O  O286  1  0.11814349  0.86942878  0.87609310  1
  O  O287  1  0.63011638  0.36383424  0.36645911  1
  O  O288  1  0.62826145  0.37731501  0.86563727  1
  O  O289  1  0.61565026  0.86965224  0.37333973  1
  O  O290  1  0.63276351  0.87935380  0.86129416  1
  O  O291  1  0.36709952  0.13816323  0.12721420  1
  O  O292  1  0.38457452  0.12429384  0.63570257  1
  O  O293  1  0.38355354  0.63108322  0.12351568  1
  O  O294  1  0.37153526  0.62368938  0.63573890  1
  O  O295  1  0.86894938  0.13226353  0.13887455  1
  O  O296  1  0.87276939  0.14223275  0.62167317  1
  O  O297  1  0.87925791  0.63105287  0.13241247  1
  O  O298  1  0.87091528  0.62057081  0.64403675  1
  O  O299  1  0.25833521  0.25942926  0.12346257  1
  O  O300  1  0.25330192  0.26166297  0.61256305  1
  O  O301  1  0.24994138  0.76670623  0.12261231  1
  O  O302  1  0.25176198  0.75862675  0.61413981  1
  O  O303  1  0.75605590  0.25483401  0.12124317  1
  O  O304  1  0.75691143  0.25847168  0.62139121  1
  O  O305  1  0.75211349  0.75805986  0.12040189  1
  O  O306  1  0.74755615  0.76104385  0.61196937  1
  O  O307  1  0.25053136  0.25740307  0.38567577  1
  O  O308  1  0.24115162  0.24532876  0.87640431  1
  O  O309  1  0.24046519  0.76004594  0.37781457  1
  O  O310  1  0.23958031  0.75011416  0.87223556  1
  O  O311  1  0.73994774  0.24391833  0.38000627  1
  O  O312  1  0.75953185  0.23931474  0.88771479  1
  O  O313  1  0.73739443  0.76252109  0.38449705  1
  O  O314  1  0.75344417  0.74197353  0.88775336  1
  O  O315  1  0.00358854  0.11122356  -0.00153276  1
  O  O316  1  0.00646680  0.11778576  0.50286280  1
  O  O317  1  0.00467195  0.61861047  0.00406895  1
  O  O318  1  0.01262182  0.62174528  0.49820341  1
  O  O319  1  0.49114412  0.10532246  0.00612224  1
  O  O320  1  0.50729409  0.12022581  0.51077122  1
  O  O321  1  0.51085075  0.63094952  0.00493199  1
  O  O322  1  0.50108989  0.61861436  0.50129821  1
  O  O323  1  0.48972205  0.37056525  0.50431658  1
  O  O324  1  0.49144363  0.37406954  1.00113560  1
  O  O325  1  0.50286004  0.87343420  0.48506496  1
  O  O326  1  0.49448459  0.89466133  1.00711085  1
  O  O327  1  0.99327605  0.37491926  0.49023992  1
  O  O328  1  0.99732303  0.38518642  0.99305391  1
  O  O329  1  0.99591536  0.88076474  0.49432909  1
  O  O330  1  0.99408902  0.88429537  0.99519832  1
  O  O331  1  0.49337153  0.49981568  0.38838879  1
  O  O332  1  0.48334908  0.50108277  0.87704283  1
  O  O333  1  0.49413786  0.99062972  0.38137472  1
  O  O334  1  0.49395558  1.00161098  0.88571442  1
  O  O335  1  0.99532390  0.48699505  0.37414004  1
  O  O336  1  0.99334286  0.49408868  0.88008114  1
  O  O337  1  1.00096543  0.99265844  0.38546514  1
  O  O338  1  0.99351756  0.98949026  0.88383119  1
  O  O339  1  0.00845831  -0.00762021  0.11805161  1
  O  O340  1  0.00982815  -0.00335360  0.61231756  1
  O  O341  1  0.00558107  0.50442220  0.11939926  1
  O  O342  1  0.00859538  0.50668983  0.62162668  1
  O  O343  1  0.51113271  0.00027862  0.12386105  1
  O  O344  1  0.50866414  0.00761327  0.62577890  1
  O  O345  1  0.51144655  0.50614414  0.12792563  1
  O  O346  1  0.49756521  0.49845413  0.60628713  1
  O  O347  1  0.24603187  0.38209976  0.23785762  1
  O  O348  1  0.24131278  0.37178070  0.73763520  1
  O  O349  1  0.24609860  0.88739440  0.23729088  1
  O  O350  1  0.24958418  0.88415956  0.74039404  1
  O  O351  1  0.73960697  0.37997220  0.24378871  1
  O  O352  1  0.74121252  0.37645202  0.74708159  1
  O  O353  1  0.75702447  0.88884816  0.24287330  1
  O  O354  1  0.74195471  0.87604506  0.74282995  1
  O  O355  1  0.24861968  0.11092309  0.24756057  1
  O  O356  1  0.25836278  0.11470034  0.74465328  1
  O  O357  1  0.25121831  0.61074943  0.24131819  1
  O  O358  1  0.26325548  0.62889731  0.74922260  1
  O  O359  1  0.75564502  0.11601681  0.25540102  1
  O  O360  1  0.75684758  0.11813192  0.75902581  1
  O  O361  1  0.75891059  0.61460480  0.24337182  1
  O  O362  1  0.75980665  0.62485229  0.76350344  1
  O  O363  1  0.38216219  0.10397043  0.37128896  1
  O  O364  1  0.37321431  0.11470783  0.86339677  1
  O  O365  1  0.37839581  0.61160215  0.37131004  1
  O  O366  1  0.37223315  0.61875730  0.86554590  1
  O  O367  1  0.86768480  0.12518056  0.36613227  1
  O  O368  1  0.87155907  0.11183150  0.87727667  1
  O  O369  1  0.88428612  0.62364122  0.36016635  1
  O  O370  1  0.86631197  0.61951201  0.87319594  1
  O  O371  1  0.13152479  0.38073041  0.12949298  1
  O  O372  1  0.12937093  0.38209719  0.62909253  1
  O  O373  1  0.13382468  0.88432965  0.12337996  1
  O  O374  1  0.13552735  0.88709780  0.62229894  1
  O  O375  1  0.62837854  0.38231487  0.13204393  1
  O  O376  1  0.63506688  0.38035252  0.63284648  1
  O  O377  1  0.63308815  0.88294561  0.12344259  1
  O  O378  1  0.63340417  0.88077735  0.63123100  1
  O  O379  1  0.11741824  0.25352472  0.24862771  1
  O  O380  1  0.12419768  0.26079256  0.74357335  1
  O  O381  1  0.12024676  0.75100469  0.25621098  1
  O  O382  1  0.12091926  0.75189072  0.76047945  1
  O  O383  1  0.61922269  0.25591421  0.25689149  1
  O  O384  1  0.61643660  0.25888817  0.74786229  1
  O  O385  1  0.63536293  0.75530760  0.26046869  1
  O  O386  1  0.61802618  0.75863325  0.75147059  1
  O  O387  1  0.38233831  0.25028674  0.24360474  1
  O  O388  1  0.38116556  0.24178670  0.74866362  1
  O  O389  1  0.36298217  0.74825278  0.23167640  1
  O  O390  1  0.38467345  0.73491057  0.74492690  1
  O  O391  1  0.87814371  0.24466897  0.24268432  1
  O  O392  1  0.87131013  0.25257232  0.73473582  1
  O  O393  1  0.87745435  0.74379018  0.24566541  1
  O  O394  1  0.87530237  0.73840323  0.75821107  1
  O  O395  1  0.38375802  0.49460677  0.49305945  1
  O  O396  1  0.37492816  0.48440104  0.99658819  1
  O  O397  1  0.37278343  1.00108850  0.48899245  1
  O  O398  1  0.38041026  0.99752745  0.98985451  1
  O  O399  1  0.87366052  0.48611875  0.50024091  1
  O  O400  1  0.87846691  0.50178132  0.99075327  1
  O  O401  1  0.88385851  0.99253919  0.49854837  1
  O  O402  1  0.87977573  0.99560286  0.99843114  1
  O  O403  1  0.11703231  0.00761413  0.00649306  1
  O  O404  1  0.12149554  0.00576127  0.50322217  1
  O  O405  1  0.11887440  0.50729894  0.00373893  1
  O  O406  1  0.12513286  0.50621284  0.50609016  1
  O  O407  1  0.61468571  0.00103872  0.01261607  1
  O  O408  1  0.62785054  0.00335587  0.51396213  1
  O  O409  1  0.63200976  0.51081373  0.01110832  1
  O  O410  1  0.60894429  0.49713154  0.49907796  1
  O  O411  1  0.36964137  0.37041165  0.11339651  1
  O  O412  1  0.36794054  0.37488062  0.61695029  1
  O  O413  1  0.36381373  0.87120830  0.12360357  1
  O  O414  1  0.36672861  0.87239447  0.62709870  1
  O  O415  1  0.86705134  0.36675101  0.12579089  1
  O  O416  1  0.87311076  0.36488151  0.61963835  1
  O  O417  1  0.86407540  0.87098202  0.12063465  1
  O  O418  1  0.86603273  0.88151327  0.61725053  1
  O  O419  1  0.12185575  0.12702873  0.38720190  1
  O  O420  1  0.12357021  0.12356890  0.88484643  1
  O  O421  1  0.12219485  0.63420641  0.38020878  1
  O  O422  1  0.12673936  0.63203061  0.88125081  1
  O  O423  1  0.62876886  0.13050170  0.38251211  1
  O  O424  1  0.63829731  0.11810249  0.87115765  1
  O  O425  1  0.62395615  0.64202935  0.36709697  1
  O  O426  1  0.63718832  0.61802345  0.88320867  1
