# generated using pymatgen
data_V85Zn86O256
_symmetry_space_group_name_H-M   'P 1'
_cell_length_a   16.96016862
_cell_length_b   16.95380602
_cell_length_c   16.94842323
_cell_angle_alpha   90.03382870
_cell_angle_beta   89.97915026
_cell_angle_gamma   90.03384576
_symmetry_Int_Tables_number   1
_chemical_formula_structural   V85Zn86O256
_chemical_formula_sum   'V85 Zn86 O256'
_cell_volume   4873.33757518
_cell_formula_units_Z   1
loop_
 _symmetry_equiv_pos_site_id
 _symmetry_equiv_pos_as_xyz
  1  'x, y, z'
loop_
 _atom_site_type_symbol
 _atom_site_label
 _atom_site_symmetry_multiplicity
 _atom_site_fract_x
 _atom_site_fract_y
 _atom_site_fract_z
 _atom_site_occupancy
  V  V0  1  0.75274682  0.75101676  0.49335202  1
  V  V1  1  0.37997877  0.88409879  -0.00375659  1
  V  V2  1  0.12029175  0.87678453  0.24642304  1
  V  V3  1  0.61852938  0.11244821  0.00132912  1
  V  V4  1  0.37417462  0.87469965  0.49949453  1
  V  V5  1  0.49555377  0.38872719  0.87937570  1
  V  V6  1  0.37193141  0.75065481  0.62670308  1
  V  V7  1  0.62120327  0.61992022  0.00183278  1
  V  V8  1  0.00461507  0.49824114  0.01048868  1
  V  V9  1  0.62408917  0.37596385  0.75130311  1
  V  V10  1  0.09179402  0.78765373  0.40655499  1
  V  V11  1  0.87513215  0.25553630  0.61012931  1
  V  V12  1  0.25587748  0.50886785  0.76835505  1
  V  V13  1  0.36907546  0.50125091  0.37004760  1
  V  V14  1  0.38046704  0.25197440  0.12459674  1
  V  V15  1  0.49654509  0.49895716  0.49642225  1
  V  V16  1  0.37835021  -0.00189061  0.37133406  1
  V  V17  1  0.50494029  0.00324047  0.50117375  1
  V  V18  1  0.74680382  0.24926904  0.00203641  1
  V  V19  1  0.12939143  0.49937057  0.62945226  1
  V  V20  1  0.87507202  0.62452688  0.75343341  1
  V  V21  1  0.26270577  0.00051309  0.74244779  1
  V  V22  1  0.63857176  0.23992492  0.37875108  1
  V  V23  1  -0.00267532  0.23840165  0.25027634  1
  V  V24  1  0.48451801  0.24982110  0.74320184  1
  V  V25  1  0.12528521  0.24161022  0.88271236  1
  V  V26  1  0.49656525  0.36157794  0.36865303  1
  V  V27  1  0.50104528  0.11216818  0.12191178  1
  V  V28  1  0.29037257  0.69530466  -0.05712021  1
  V  V29  1  0.11609848  0.75639478  0.87911312  1
  V  V30  1  0.87652051  0.87976948  0.00534286  1
  V  V31  1  0.11707274  0.88296986  0.74756057  1
  V  V32  1  0.87104367  0.24082175  0.13124385  1
  V  V33  1  0.75109733  0.01269148  0.23217779  1
  V  V34  1  0.24867229  0.00126790  0.24491369  1
  V  V35  1  0.62114549  0.87968457  0.74894832  1
  V  V36  1  0.87425671  0.37279356  0.00360030  1
  V  V37  1  0.74963555  0.12645271  0.87335744  1
  V  V38  1  0.00068740  0.37532407  0.87836847  1
  V  V39  1  0.67500189  0.04980191  0.56790953  1
  V  V40  1  0.00563500  0.12282149  0.62373828  1
  V  V41  1  0.25312893  0.74768279  0.49978097  1
  V  V42  1  0.62318102  0.49495833  0.12539552  1
  V  V43  1  0.25192634  0.12671005  0.37308881  1
  V  V44  1  0.63571400  0.88029073  0.23665786  1
  V  V45  1  0.62367113  0.62692208  0.49711381  1
  V  V46  1  0.87559843  0.49935045  0.87947758  1
  V  V47  1  0.25120371  0.25438192  0.50962410  1
  V  V48  1  0.12376710  0.11912203  0.49861939  1
  V  V49  1  -0.00507944  0.37343523  0.38176867  1
  V  V50  1  0.00853115  0.12194081  0.10736420  1
  V  V51  1  0.74888688  0.75552545  0.01050452  1
  V  V52  1  0.00055698  0.62372822  0.12717784  1
  V  V53  1  0.37567726  0.63102288  0.25410579  1
  V  V54  1  0.75368091  0.37335194  0.61159311  1
  V  V55  1  0.87383729  0.12765682  0.74509229  1
  V  V56  1  0.00039136  0.62379120  0.63075438  1
  V  V57  1  0.23991221  0.62319626  0.36864672  1
  V  V58  1  0.37515978  0.38643970  -0.00140194  1
  V  V59  1  0.62729186  0.75239411  0.87416258  1
  V  V60  1  0.74230625  0.86890189  0.62234223  1
  V  V61  1  0.62540410  0.49996241  0.62404048  1
  V  V62  1  -0.00070774  0.25355967  0.74982439  1
  V  V63  1  0.62237866  0.74851707  0.36429136  1
  V  V64  1  0.12850540  0.37548835  0.75412322  1
  V  V65  1  0.12527893  0.62084939  0.50151062  1
  V  V66  1  -0.00097834  0.75217098  0.25016331  1
  V  V67  1  0.24624757  0.38183295  0.13211844  1
  V  V68  1  0.61927246  0.25142228  0.87519265  1
  V  V69  1  0.49897097  0.62012597  0.13005959  1
  V  V70  1  0.24872025  0.87016111  0.11874160  1
  V  V71  1  0.50102592  0.86983213  0.36222559  1
  V  V72  1  0.87209819  0.74991564  0.62362229  1
  V  V73  1  0.38273880  0.13245729  0.25197455  1
  V  V74  1  0.12447856  0.38748268  0.24895618  1
  V  V75  1  0.12457893  0.62664031  -0.00169619  1
  V  V76  1  0.12633157  0.25065020  0.37111099  1
  V  V77  1  0.37207858  0.74809475  0.12841101  1
  V  V78  1  0.75031783  0.49794255  0.75053557  1
  V  V79  1  0.74947095  0.62395843  0.87807580  1
  V  V80  1  0.86949676  0.49594427  0.38091980  1
  V  V81  1  0.88015543  -0.00726928  0.86963423  1
  V  V82  1  0.49540243  0.62490211  0.62842249  1
  V  V83  1  0.25835243  0.12461914  0.87855753  1
  V  V84  1  0.74609849  0.00150713  0.74747083  1
  Zn  Zn85  1  0.74774647  0.37290371  0.12960413  1
  Zn  Zn86  1  0.38846529  0.01378190  0.87082888  1
  Zn  Zn87  1  0.50864701  0.88586643  0.88426048  1
  Zn  Zn88  1  0.87402202  0.62254572  0.25051321  1
  Zn  Zn89  1  0.74956640  0.62344033  0.36993534  1
  Zn  Zn90  1  0.12675933  0.00641483  0.10637503  1
  Zn  Zn91  1  -0.04667486  -0.07862745  0.45708378  1
  Zn  Zn92  1  0.87096854  0.75394030  0.13032100  1
  Zn  Zn93  1  0.37472287  0.37652187  0.50429351  1
  Zn  Zn94  1  0.49687278  0.11962983  0.63336790  1
  Zn  Zn95  1  0.62111011  0.36964184  0.24860962  1
  Zn  Zn96  1  -0.00408521  0.49220795  0.50649386  1
  Zn  Zn97  1  0.37161002  0.62783372  0.76748334  1
  Zn  Zn98  1  -0.00709609  0.76342354  0.75544733  1
  Zn  Zn99  1  0.13461739  -0.00488968  0.61920264  1
  Zn  Zn100  1  0.26058288  0.37270852  0.63442726  1
  Zn  Zn101  1  0.75032878  0.49763163  0.24854444  1
  Zn  Zn102  1  0.49755632  0.75102098  0.75205134  1
  Zn  Zn103  1  0.75308128  0.12206799  0.37583155  1
  Zn  Zn104  1  0.87734482  0.00233568  0.35289956  1
  Zn  Zn105  1  0.24738279  0.24609916  0.00558949  1
  Zn  Zn106  1  0.04353267  0.94177981  0.93785190  1
  Zn  Zn107  1  0.18831444  0.19051897  0.18635744  1
  Zn  Zn108  1  0.19119048  0.18408989  0.69291028  1
  Zn  Zn109  1  0.18179953  0.68891516  0.18895433  1
  Zn  Zn110  1  0.18831465  0.69132405  0.69323625  1
  Zn  Zn111  1  0.67583340  0.19060946  0.19277764  1
  Zn  Zn112  1  0.68771987  0.19462112  0.68630065  1
  Zn  Zn113  1  0.68803192  0.68297467  0.19088875  1
  Zn  Zn114  1  0.68509215  0.68561294  0.68862986  1
  Zn  Zn115  1  0.31358155  0.31328228  0.31363352  1
  Zn  Zn116  1  0.31107404  0.31470928  0.81719931  1
  Zn  Zn117  1  0.30546948  0.81054324  0.31337331  1
  Zn  Zn118  1  0.31188611  0.82130859  0.80612340  1
  Zn  Zn119  1  0.80913935  0.31390181  0.31111990  1
  Zn  Zn120  1  0.81153331  0.31251620  0.81030516  1
  Zn  Zn121  1  0.81859360  0.82210271  0.31697238  1
  Zn  Zn122  1  0.80966312  0.81339894  0.81275269  1
  Zn  Zn123  1  0.18455534  0.43799056  0.43691316  1
  Zn  Zn124  1  0.18699442  0.43568666  0.94484488  1
  Zn  Zn125  1  0.19387252  0.93985579  0.43758849  1
  Zn  Zn126  1  0.20589177  0.93572758  0.93213264  1
  Zn  Zn127  1  0.68099087  0.43402046  0.43420806  1
  Zn  Zn128  1  0.68536529  0.43651324  0.94194398  1
  Zn  Zn129  1  0.70565100  0.92863797  0.42164715  1
  Zn  Zn130  1  0.69478902  0.93771973  0.93625552  1
  Zn  Zn131  1  0.31132248  0.06384450  0.06179022  1
  Zn  Zn132  1  0.31934335  0.06928993  0.56459979  1
  Zn  Zn133  1  0.31019282  0.55723114  0.07154394  1
  Zn  Zn134  1  0.31149026  0.56021062  0.56391328  1
  Zn  Zn135  1  0.81289745  0.06189237  0.06233579  1
  Zn  Zn136  1  0.85391473  0.06626557  0.52461267  1
  Zn  Zn137  1  0.81137745  0.56369536  0.06652551  1
  Zn  Zn138  1  0.81178659  0.56237377  0.55918259  1
  Zn  Zn139  1  0.43456877  0.44129721  0.18994735  1
  Zn  Zn140  1  0.43418255  0.43762434  0.69082740  1
  Zn  Zn141  1  0.43760579  0.93648913  0.18655845  1
  Zn  Zn142  1  0.44132736  0.93558000  0.68212798  1
  Zn  Zn143  1  0.93526950  0.43100609  0.19347578  1
  Zn  Zn144  1  0.93711686  0.43676307  0.68900875  1
  Zn  Zn145  1  0.93867572  0.94113233  0.18356440  1
  Zn  Zn146  1  0.92870300  0.94781872  0.65956794  1
  Zn  Zn147  1  0.05950971  0.05600628  0.31532282  1
  Zn  Zn148  1  0.06641729  0.06733686  0.80660518  1
  Zn  Zn149  1  0.05546501  0.56208676  0.31592830  1
  Zn  Zn150  1  0.06471878  0.56436850  0.81862262  1
  Zn  Zn151  1  0.56643515  0.06033345  0.31204915  1
  Zn  Zn152  1  0.56019553  0.06535281  0.81107020  1
  Zn  Zn153  1  0.55955598  0.56100202  0.30971494  1
  Zn  Zn154  1  0.56118824  0.56511009  0.81095370  1
  Zn  Zn155  1  0.43025867  0.17692187  0.46546007  1
  Zn  Zn156  1  0.43684779  0.19518586  0.94049597  1
  Zn  Zn157  1  0.43894661  0.68670103  0.43548491  1
  Zn  Zn158  1  0.45333396  0.69516573  0.94383589  1
  Zn  Zn159  1  0.93936831  0.18515100  0.43341117  1
  Zn  Zn160  1  0.93382349  0.18621925  0.93475149  1
  Zn  Zn161  1  0.93392578  0.67892148  0.44236804  1
  Zn  Zn162  1  0.93733278  0.69147066  0.94053627  1
  Zn  Zn163  1  0.06253660  0.30965980  0.06603586  1
  Zn  Zn164  1  0.06784814  0.30974891  0.56376971  1
  Zn  Zn165  1  0.06110659  0.80983936  0.06418969  1
  Zn  Zn166  1  0.06806283  0.80867007  0.58049415  1
  Zn  Zn167  1  0.55635324  0.30936786  0.06234387  1
  Zn  Zn168  1  0.56416982  0.31410810  0.55935858  1
  Zn  Zn169  1  0.55717008  0.80501165  0.06663730  1
  Zn  Zn170  1  0.56026929  0.81216699  0.55628179  1
  O  O171  1  0.11309319  0.12850911  0.12353534  1
  O  O172  1  0.12199146  0.13302620  0.61426262  1
  O  O173  1  0.11174519  0.63179255  0.11415684  1
  O  O174  1  0.11797113  0.61924603  0.62596279  1
  O  O175  1  0.60744305  0.13283726  0.11694244  1
  O  O176  1  0.62225599  0.11971955  0.62319511  1
  O  O177  1  0.61626701  0.62012122  0.12090983  1
  O  O178  1  0.61459507  0.62052196  0.62025270  1
  O  O179  1  0.38009226  0.38566553  0.37717423  1
  O  O180  1  0.37884267  0.37332544  0.89060986  1
  O  O181  1  0.38200282  0.87593475  0.37649864  1
  O  O182  1  0.37498123  0.87069487  0.89111464  1
  O  O183  1  0.88302841  0.38309599  0.37293559  1
  O  O184  1  0.88099334  0.37818375  0.88278408  1
  O  O185  1  0.86092109  0.89130740  0.39188172  1
  O  O186  1  0.87072013  0.88436071  0.87979406  1
  O  O187  1  0.25845320  0.00674553  0.36567332  1
  O  O188  1  0.26372411  0.01142332  0.86593432  1
  O  O189  1  0.25697656  0.50964505  0.38110764  1
  O  O190  1  0.24413693  0.49976477  0.86625247  1
  O  O191  1  0.74710315  0.00630797  0.35265170  1
  O  O192  1  0.75963362  0.00811880  0.86648976  1
  O  O193  1  0.75990495  0.49763258  0.37757508  1
  O  O194  1  0.75485693  0.50419830  0.87288627  1
  O  O195  1  0.24904620  0.48136398  0.13044315  1
  O  O196  1  0.23737711  0.50192577  0.63422057  1
  O  O197  1  0.24886488  0.99262703  0.13043766  1
  O  O198  1  0.25220275  1.01158391  0.63741022  1
  O  O199  1  0.73869979  0.49564578  0.12378665  1
  O  O200  1  0.74599453  0.49596558  0.63101451  1
  O  O201  1  0.74176961  1.00577303  0.13167323  1
  O  O202  1  0.73969731  0.98810447  0.62712256  1
  O  O203  1  0.00827505  0.36326785  0.25813891  1
  O  O204  1  0.00758878  0.37239890  0.75860895  1
  O  O205  1  0.01083889  0.86933901  0.24106389  1
  O  O206  1  0.01351895  0.88146431  0.73993925  1
  O  O207  1  0.49505795  0.37699050  0.26557778  1
  O  O208  1  0.50505831  0.37043347  0.75925842  1
  O  O209  1  0.50737216  0.87744011  0.25761868  1
  O  O210  1  0.51338206  0.87166190  0.74790729  1
  O  O211  1  0.49210092  0.11739750  0.23793274  1
  O  O212  1  0.50209249  0.14467960  0.74902718  1
  O  O213  1  0.48808313  0.62527380  0.24348818  1
  O  O214  1  0.49301268  0.62846618  0.74288738  1
  O  O215  1  1.00497974  0.13665205  0.24590627  1
  O  O216  1  0.99648528  0.13849355  0.74469171  1
  O  O217  1  0.99991430  0.63239077  0.24231285  1
  O  O218  1  0.99546355  0.62314879  0.74235125  1
  O  O219  1  0.36946800  0.26070156  0.00959285  1
  O  O220  1  0.35092354  0.26044250  0.48318516  1
  O  O221  1  0.36409521  0.74911715  0.00635277  1
  O  O222  1  0.37019918  0.75383406  0.50319870  1
  O  O223  1  0.86471257  0.25349532  0.00424440  1
  O  O224  1  0.88330488  0.25389637  0.51170057  1
  O  O225  1  0.86465306  0.75995650  -0.00097929  1
  O  O226  1  0.86531126  0.74272780  0.51117617  1
  O  O227  1  0.13326083  0.24438186  0.48827032  1
  O  O228  1  0.12782263  0.25865727  0.98594012  1
  O  O229  1  0.13482526  0.73979483  0.50280565  1
  O  O230  1  0.12351397  0.74437245  0.99162878  1
  O  O231  1  0.61650829  0.25539017  0.47740180  1
  O  O232  1  0.62887855  0.24669979  0.99050337  1
  O  O233  1  0.63004825  0.74391437  0.48897697  1
  O  O234  1  0.63133532  0.74492398  0.99474635  1
  O  O235  1  0.48519478  0.24293607  0.12531000  1
  O  O236  1  0.50954937  0.25755729  0.64345741  1
  O  O237  1  0.48187296  0.73499347  0.12055816  1
  O  O238  1  0.49332474  0.73909844  0.62324775  1
  O  O239  1  0.99382964  0.24094965  0.13113199  1
  O  O240  1  0.99612174  0.24907923  0.63287861  1
  O  O241  1  0.99647060  0.74215266  0.13423084  1
  O  O242  1  0.98955677  0.74197308  0.63242736  1
  O  O243  1  0.00494114  0.25401208  0.36849819  1
  O  O244  1  0.00633174  0.25496764  0.87030425  1
  O  O245  1  0.00473290  0.73963539  0.36975746  1
  O  O246  1  0.01078439  0.74662162  0.87033777  1
  O  O247  1  0.48628667  0.26391544  0.38404302  1
  O  O248  1  0.50523021  0.25907921  0.86640392  1
  O  O249  1  0.51015957  0.75740025  0.37875438  1
  O  O250  1  0.51618444  0.75779035  0.87298610  1
  O  O251  1  0.24327816  0.13714571  0.49220647  1
  O  O252  1  0.25096571  0.12570907  0.98471161  1
  O  O253  1  0.24621812  0.62976821  0.49167922  1
  O  O254  1  0.24191086  0.62433687  1.00631273  1
  O  O255  1  0.74043307  0.10322041  0.51471895  1
  O  O256  1  0.74311043  0.13538141  0.99550467  1
  O  O257  1  0.74173844  0.63488297  0.49799522  1
  O  O258  1  0.74055561  0.63130982  0.99610434  1
  O  O259  1  0.25756946  0.37267238  0.01228417  1
  O  O260  1  0.23981265  0.36216763  0.50326898  1
  O  O261  1  0.26368612  0.87205806  0.01245557  1
  O  O262  1  0.26561636  0.86630168  0.49343678  1
  O  O263  1  0.75288085  0.36169772  0.00259682  1
  O  O264  1  0.74529587  0.38077640  0.51311642  1
  O  O265  1  0.76098480  0.86548891  -0.00440872  1
  O  O266  1  0.74098762  0.85858466  0.50895603  1
  O  O267  1  0.11706895  0.48654285  0.25366473  1
  O  O268  1  0.13139516  0.49468509  0.74895693  1
  O  O269  1  0.13683083  0.99463938  0.24565879  1
  O  O270  1  0.13598246  0.99243987  0.75211719  1
  O  O271  1  0.62280787  0.49836692  0.23620383  1
  O  O272  1  0.62955697  0.49649476  0.74345593  1
  O  O273  1  0.63169159  0.98676521  0.24701876  1
  O  O274  1  0.63314704  0.99156399  0.75354570  1
  O  O275  1  0.36533363  0.00637067  0.25127699  1
  O  O276  1  0.36614667  -0.00553813  0.74808650  1
  O  O277  1  0.37506413  0.51262704  0.26248879  1
  O  O278  1  0.35992186  0.50588264  0.75365485  1
  O  O279  1  0.85606841  -0.00218392  0.23744688  1
  O  O280  1  0.86659509  0.00610342  0.75001002  1
  O  O281  1  0.87597593  0.49903350  0.26499329  1
  O  O282  1  0.87045593  0.50485854  0.75913112  1
  O  O283  1  0.11986470  0.36766059  0.36702621  1
  O  O284  1  0.12071251  0.37052597  0.86809256  1
  O  O285  1  0.13994275  0.87286338  0.35837900  1
  O  O286  1  0.12179921  0.87234372  0.86682477  1
  O  O287  1  0.60781161  0.37073178  0.37295876  1
  O  O288  1  0.61643847  0.36955120  0.87460708  1
  O  O289  1  0.61894224  0.86638683  0.36435294  1
  O  O290  1  0.62942785  0.86803144  0.86755376  1
  O  O291  1  0.38233883  0.13050041  0.12975576  1
  O  O292  1  0.40173012  0.14112473  0.57626921  1
  O  O293  1  0.37672658  0.62777209  0.13414519  1
  O  O294  1  0.38305987  0.63340485  0.62307557  1
  O  O295  1  0.88642283  0.13637899  0.11604073  1
  O  O296  1  0.88726312  0.13599000  0.62624667  1
  O  O297  1  0.88787106  0.62887012  0.12525887  1
  O  O298  1  0.87989731  0.63002268  0.63176805  1
  O  O299  1  0.26121271  0.25626122  0.12493053  1
  O  O300  1  0.24538778  0.25113269  0.61311008  1
  O  O301  1  0.25952831  0.75703888  0.13237292  1
  O  O302  1  0.25876483  0.74105532  0.61186762  1
  O  O303  1  0.75467013  0.24697856  0.11889544  1
  O  O304  1  0.76169901  0.26147512  0.62898175  1
  O  O305  1  0.75118555  0.74334068  0.11335644  1
  O  O306  1  0.75321427  0.75028861  0.61818083  1
  O  O307  1  0.23995380  0.24529654  0.37562836  1
  O  O308  1  0.24282728  0.23995703  0.87391300  1
  O  O309  1  0.24320351  0.74237762  0.38780999  1
  O  O310  1  0.23878537  0.75594345  0.87509310  1
  O  O311  1  0.74371199  0.24396398  0.37805031  1
  O  O312  1  0.74226756  0.24670349  0.88219517  1
  O  O313  1  0.74346695  0.74844883  0.38073294  1
  O  O314  1  0.74124446  0.74345010  0.88214682  1
  O  O315  1  0.00226651  0.13097824  0.00854272  1
  O  O316  1  0.01422969  0.13482347  0.51010749  1
  O  O317  1  0.00470741  0.61798453  0.00642657  1
  O  O318  1  0.00534804  0.62226175  0.51698429  1
  O  O319  1  0.50504269  0.13060650  0.01071937  1
  O  O320  1  0.51697991  0.10020023  0.47829282  1
  O  O321  1  0.51444021  0.62629335  0.00909913  1
  O  O322  1  0.50313927  0.61577541  0.50561221  1
  O  O323  1  0.49897421  0.38836688  0.49187638  1
  O  O324  1  0.48435833  0.37112937  0.99397414  1
  O  O325  1  0.49158743  0.87858959  0.48809333  1
  O  O326  1  0.48334774  0.86563178  1.00248514  1
  O  O327  1  1.01068990  0.37268113  0.48517618  1
  O  O328  1  0.99686353  0.38129961  0.99870893  1
  O  O329  1  1.04100124  0.85136683  0.47935759  1
  O  O330  1  0.98212622  0.86570596  0.99725507  1
  O  O331  1  0.49118558  0.49709966  0.38204491  1
  O  O332  1  0.50377741  0.48805847  0.87257307  1
  O  O333  1  0.49551893  0.98711452  0.37477802  1
  O  O334  1  0.49788418  0.99715585  0.87202344  1
  O  O335  1  0.98977327  0.49020217  0.37998552  1
  O  O336  1  0.99448902  0.49493096  0.88615474  1
  O  O337  1  0.99063420  0.99307468  0.37171526  1
  O  O338  1  0.98468801  1.00907925  0.86616807  1
  O  O339  1  0.00311157  0.01905543  0.12643423  1
  O  O340  1  0.01937671  0.02300870  0.64411200  1
  O  O341  1  -0.00629503  0.50423724  0.11671620  1
  O  O342  1  0.01010064  0.50487884  0.62811142  1
  O  O343  1  0.49367723  0.01332763  0.12083552  1
  O  O344  1  0.50099718  0.00085195  0.61087131  1
  O  O345  1  0.50329336  0.51184372  0.12733573  1
  O  O346  1  0.50337987  0.50901084  0.61903903  1
  O  O347  1  0.24190124  0.36913607  0.24021726  1
  O  O348  1  0.24305822  0.38586490  0.75320896  1
  O  O349  1  0.24661281  0.88159494  0.23861454  1
  O  O350  1  0.24182905  0.89496648  0.75514349  1
  O  O351  1  0.74187589  0.37889091  0.24662375  1
  O  O352  1  0.74230016  0.38255218  0.74736431  1
  O  O353  1  0.73864203  0.87902342  0.24673404  1
  O  O354  1  0.73904174  0.87897205  0.74320169  1
  O  O355  1  0.25622985  0.11770908  0.25279654  1
  O  O356  1  0.24820657  0.11194027  0.76112008  1
  O  O357  1  0.25154728  0.63115444  0.26338653  1
  O  O358  1  0.24955701  0.61324911  0.75286163  1
  O  O359  1  0.74541274  0.11555798  0.24571991  1
  O  O360  1  0.75373760  0.12144248  0.75159597  1
  O  O361  1  0.75582900  0.61750508  0.25241857  1
  O  O362  1  0.75370014  0.61761420  0.75761631  1
  O  O363  1  0.37283832  0.11923165  0.36841586  1
  O  O364  1  0.36285577  0.13226116  0.87564587  1
  O  O365  1  0.36655149  0.62255548  0.36951994  1
  O  O366  1  0.36458106  0.64545693  0.88640075  1
  O  O367  1  0.86330943  0.10618685  0.41300561  1
  O  O368  1  0.86699070  0.12111035  0.86591158  1
  O  O369  1  0.87395326  0.60928535  0.37378526  1
  O  O370  1  0.86964156  0.61985262  0.87363966  1
  O  O371  1  0.13785683  0.36598557  0.13321297  1
  O  O372  1  0.12636787  0.38166975  0.63997821  1
  O  O373  1  0.13355984  0.87326312  0.13224002  1
  O  O374  1  0.13358433  0.87778269  0.64205073  1
  O  O375  1  0.62010544  0.38225461  0.12394842  1
  O  O376  1  0.63195042  0.38215501  0.63035913  1
  O  O377  1  0.61831361  0.86559805  0.13974252  1
  O  O378  1  0.63453345  0.86196443  0.63318017  1
  O  O379  1  0.11913219  0.25399125  0.25987633  1
  O  O380  1  0.12143603  0.25922309  0.75809550  1
  O  O381  1  0.11222373  0.75922549  0.25574503  1
  O  O382  1  0.12452284  0.76558028  0.75729732  1
  O  O383  1  0.61987977  0.25410188  0.27040660  1
  O  O384  1  0.62562767  0.25842558  0.76371042  1
  O  O385  1  0.62978914  0.75756138  0.25941188  1
  O  O386  1  0.62638341  0.75555494  0.75987457  1
  O  O387  1  0.36981847  0.23692842  0.24544791  1
  O  O388  1  0.38591661  0.25857230  0.74897088  1
  O  O389  1  0.36987119  0.73947923  0.24523841  1
  O  O390  1  0.37439210  0.74904187  0.74105235  1
  O  O391  1  0.88296003  0.25230518  0.24159308  1
  O  O392  1  0.88161933  0.24480046  0.74630788  1
  O  O393  1  0.88727158  0.75251067  0.25192693  1
  O  O394  1  0.87358364  0.74010530  0.74693373  1
  O  O395  1  0.38143008  0.50441890  0.48801964  1
  O  O396  1  0.37210453  0.48546980  1.00614788  1
  O  O397  1  0.38225974  0.98945727  0.49113269  1
  O  O398  1  0.37226198  0.98570210  0.99914200  1
  O  O399  1  0.87832888  0.50103153  0.48769690  1
  O  O400  1  0.88047319  0.49285447  0.99744992  1
  O  O401  1  0.90669502  0.97272759  0.54835333  1
  O  O402  1  0.86881499  0.98733075  0.98882228  1
  O  O403  1  0.12753608  -0.01565543  -0.00401386  1
  O  O404  1  0.13545681  0.01376827  0.50185726  1
  O  O405  1  0.11390190  0.50880823  -0.00330049  1
  O  O406  1  0.12252578  0.50355093  0.51312155  1
  O  O407  1  0.63125166  0.01414811  -0.00718970  1
  O  O408  1  0.62524148  -0.01322603  0.50187790  1
  O  O409  1  0.62811462  0.50898232  0.01142440  1
  O  O410  1  0.61621818  0.50672488  0.50374961  1
  O  O411  1  0.36766758  0.37074507  0.12236102  1
  O  O412  1  0.37054384  0.38646237  0.61637061  1
  O  O413  1  0.37161526  0.86571878  0.11813973  1
  O  O414  1  0.38202231  0.85962091  0.61369918  1
  O  O415  1  0.87550358  0.36039302  0.11886819  1
  O  O416  1  0.86611452  0.36824805  0.63127991  1
  O  O417  1  0.87584608  0.87460254  0.10895892  1
  O  O418  1  0.85661461  0.85454101  0.64009813  1
  O  O419  1  0.12962289  0.13190759  0.37926208  1
  O  O420  1  0.13632271  0.13443820  0.86961670  1
  O  O421  1  0.12912311  0.61942067  0.38531576  1
  O  O422  1  0.12290684  0.63523742  0.88944231  1
  O  O423  1  0.63007731  0.13607658  0.37171346  1
  O  O424  1  0.62933696  0.13517251  0.88086299  1
  O  O425  1  0.62418315  0.63141597  0.37803551  1
  O  O426  1  0.62788394  0.63064955  0.88305116  1
