# generated using pymatgen
data_V85Zn86O256
_symmetry_space_group_name_H-M   'P 1'
_cell_length_a   16.95008513
_cell_length_b   16.94530210
_cell_length_c   16.93225588
_cell_angle_alpha   90.02012551
_cell_angle_beta   90.03842196
_cell_angle_gamma   89.97701759
_symmetry_Int_Tables_number   1
_chemical_formula_structural   V85Zn86O256
_chemical_formula_sum   'V85 Zn86 O256'
_cell_volume   4863.35377938
_cell_formula_units_Z   1
loop_
 _symmetry_equiv_pos_site_id
 _symmetry_equiv_pos_as_xyz
  1  'x, y, z'
loop_
 _atom_site_type_symbol
 _atom_site_label
 _atom_site_symmetry_multiplicity
 _atom_site_fract_x
 _atom_site_fract_y
 _atom_site_fract_z
 _atom_site_occupancy
  V  V0  1  0.87119374  0.74877274  0.12430062  1
  V  V1  1  0.00450943  0.13006493  0.11793330  1
  V  V2  1  0.25205706  0.50152535  0.74794404  1
  V  V3  1  0.12315399  0.63741371  0.49725958  1
  V  V4  1  0.87127836  0.50901917  0.87073495  1
  V  V5  1  0.49909737  0.49894938  -0.00112113  1
  V  V6  1  -0.00041177  0.00480807  0.50018145  1
  V  V7  1  0.50123977  -0.00276485  0.50323349  1
  V  V8  1  0.11649493  0.86354220  0.75911353  1
  V  V9  1  0.87261873  0.50009147  0.37795868  1
  V  V10  1  0.01132388  0.75269793  0.24984989  1
  V  V11  1  0.26188655  0.25063407  0.50199462  1
  V  V12  1  0.63446486  0.75411864  0.38376732  1
  V  V13  1  0.12476337  0.37259301  0.74502441  1
  V  V14  1  0.86884999  -0.01192070  0.90540233  1
  V  V15  1  0.56158586  0.58620522  0.55746911  1
  V  V16  1  0.73615705  0.37712269  0.63294635  1
  V  V17  1  0.87590227  0.86545279  0.49649819  1
  V  V18  1  0.62244496  0.87438517  0.24843985  1
  V  V19  1  0.26900642  0.37289757  0.62278914  1
  V  V20  1  0.11834688  0.00589268  0.63034713  1
  V  V21  1  -0.00171718  0.37578728  0.37903347  1
  V  V22  1  0.12790554  0.24277905  0.37760788  1
  V  V23  1  -0.00128068  0.25294300  0.25275489  1
  V  V24  1  0.12538154  0.37449044  0.25249747  1
  V  V25  1  -0.00221005  0.63414933  0.63428095  1
  V  V26  1  0.38245604  0.64375141  0.73937883  1
  V  V27  1  0.75013085  0.00057954  0.24810537  1
  V  V28  1  0.37490854  0.87403681  0.50652322  1
  V  V29  1  0.75162086  0.87498907  0.61649436  1
  V  V30  1  0.12791758  0.12539867  0.50178913  1
  V  V31  1  0.74692372  0.74522182  -0.00815886  1
  V  V32  1  0.24695948  0.74936305  0.00489922  1
  V  V33  1  0.37411388  0.00008763  0.87617689  1
  V  V34  1  0.49775331  0.86697007  0.86149684  1
  V  V35  1  0.36986706  0.00589601  0.37416792  1
  V  V36  1  0.25323835  0.49822714  0.25188008  1
  V  V37  1  0.50321557  0.37754373  0.86264751  1
  V  V38  1  0.37163873  0.49715192  0.39203582  1
  V  V39  1  0.24929413  0.86877350  0.62730500  1
  V  V40  1  0.37393086  0.50200820  0.87064443  1
  V  V41  1  0.74672714  0.50131480  0.25289504  1
  V  V42  1  0.87164200  0.37821503  0.50745944  1
  V  V43  1  0.49868013  0.12661337  0.12567803  1
  V  V44  1  0.24559943  0.00099667  0.75060726  1
  V  V45  1  0.87286215  0.37603349  -0.00285982  1
  V  V46  1  0.24784612  0.63342764  0.37406022  1
  V  V47  1  0.63774736  0.87405193  0.74961224  1
  V  V48  1  0.12182063  0.24513717  0.87332844  1
  V  V49  1  0.86841495  0.10406321  0.76907521  1
  V  V50  1  0.74962569  0.87234908  0.11818074  1
  V  V51  1  0.62830650  0.12489096  0.49875317  1
  V  V52  1  0.87706593  -0.00109054  0.37094392  1
  V  V53  1  0.74967645  0.63063035  0.38898572  1
  V  V54  1  0.49183618  0.37501339  0.38843006  1
  V  V55  1  0.00045327  0.50078802  -0.00088478  1
  V  V56  1  0.24054895  0.00624900  0.24756934  1
  V  V57  1  0.62493930  0.62344317  -0.00771499  1
  V  V58  1  0.24506405  0.63151276  0.87491678  1
  V  V59  1  0.62291099  0.49940906  0.12543666  1
  V  V60  1  0.37533715  0.13049860  0.74648246  1
  V  V61  1  0.49631840  0.74791392  0.25386476  1
  V  V62  1  0.49826351  0.13232488  0.62522172  1
  V  V63  1  0.74821284  0.24928556  -0.00862206  1
  V  V64  1  0.49469426  0.62736181  0.12997127  1
  V  V65  1  0.87997449  0.23873139  0.62607523  1
  V  V66  1  0.12366752  0.49836613  0.62026063  1
  V  V67  1  -0.00093627  0.37430734  0.87007296  1
  V  V68  1  0.49850998  -0.00283992  -0.00064053  1
  V  V69  1  0.37726997  0.86628176  0.00480379  1
  V  V70  1  0.61881397  0.37672168  0.25414203  1
  V  V71  1  0.01450512  0.87325026  0.36912224  1
  V  V72  1  0.62375034  0.00131030  0.12354706  1
  V  V73  1  0.37374811  0.25062435  0.12459241  1
  V  V74  1  0.12693974  0.49910465  0.12341385  1
  V  V75  1  0.25751469  0.86609357  0.13970899  1
  V  V76  1  0.73764937  0.50954100  0.74956732  1
  V  V77  1  0.24927889  0.24804809  -0.00204850  1
  V  V78  1  0.74718877  0.37578332  0.12491822  1
  V  V79  1  0.62627969  0.12508102  -0.00793654  1
  V  V80  1  0.62505086  0.25161009  0.86275197  1
  V  V81  1  0.87336052  0.25224510  0.12450251  1
  V  V82  1  0.87297874  0.62582433  0.25073960  1
  V  V83  1  0.87543968  0.12538435  0.24955760  1
  V  V84  1  0.09853748  -0.03127418  0.11381302  1
  Zn  Zn85  1  0.49807658  0.25001268  0.25116453  1
  Zn  Zn86  1  0.37541370  0.37334208  -0.00406669  1
  Zn  Zn87  1  0.99227096  0.87480354  -0.12565743  1
  Zn  Zn88  1  0.74753260  0.12750390  0.37379515  1
  Zn  Zn89  1  0.25031247  0.75190407  0.49942001  1
  Zn  Zn90  1  0.25185376  0.37414952  0.12352977  1
  Zn  Zn91  1  -0.00158017  0.50376924  0.50166489  1
  Zn  Zn92  1  0.00071429  0.23859604  0.74346150  1
  Zn  Zn93  1  0.49962282  0.87492522  0.37857594  1
  Zn  Zn94  1  0.00089505  0.62307171  0.12656931  1
  Zn  Zn95  1  0.63052808  0.00279564  0.63177112  1
  Zn  Zn96  1  0.12356589  0.11802723  0.00009417  1
  Zn  Zn97  1  0.87672093  0.75617537  0.63884806  1
  Zn  Zn98  1  0.37102426  0.12659193  0.25379659  1
  Zn  Zn99  1  0.62557396  0.25140781  0.37541272  1
  Zn  Zn100  1  0.12341790  0.62689284  -0.00359672  1
  Zn  Zn101  1  0.62053642  0.74274420  0.86482633  1
  Zn  Zn102  1  0.74779097  0.25406755  0.49898320  1
  Zn  Zn103  1  0.87128233  0.63540282  0.75806778  1
  Zn  Zn104  1  0.49631990  0.25907994  0.74245909  1
  Zn  Zn105  1  0.24695246  0.12324381  0.87537564  1
  Zn  Zn106  1  0.37345396  0.62772260  0.25139141  1
  Zn  Zn107  1  0.18659241  0.18797344  0.18628891  1
  Zn  Zn108  1  0.18901128  0.18719281  0.68414529  1
  Zn  Zn109  1  0.19035149  0.68555367  0.18238378  1
  Zn  Zn110  1  0.18717819  0.68613990  0.68840599  1
  Zn  Zn111  1  0.68634376  0.19012762  0.18603428  1
  Zn  Zn112  1  0.69377819  0.18573149  0.68336813  1
  Zn  Zn113  1  0.68245298  0.68580650  0.18965029  1
  Zn  Zn114  1  0.68747792  0.69403766  0.68296102  1
  Zn  Zn115  1  0.31162362  0.31029371  0.31447351  1
  Zn  Zn116  1  0.31092564  0.31379997  0.81203691  1
  Zn  Zn117  1  0.31741545  0.81464282  0.32064874  1
  Zn  Zn118  1  0.30600859  0.81441497  0.81681213  1
  Zn  Zn119  1  0.80867155  0.31257669  0.31577293  1
  Zn  Zn120  1  0.81291494  0.31422944  0.80782258  1
  Zn  Zn121  1  0.81509650  0.81585595  0.30861716  1
  Zn  Zn122  1  0.81520950  0.81484595  0.81420956  1
  Zn  Zn123  1  0.18912336  0.43443091  0.44020103  1
  Zn  Zn124  1  0.18846698  0.43371687  0.93551636  1
  Zn  Zn125  1  0.18968964  0.94008753  0.43750242  1
  Zn  Zn126  1  0.18951887  0.93402767  0.94096937  1
  Zn  Zn127  1  0.68013023  0.44490053  0.44523454  1
  Zn  Zn128  1  0.68627466  0.43759445  0.93095827  1
  Zn  Zn129  1  0.68943499  0.93903821  0.43760968  1
  Zn  Zn130  1  0.68827626  0.93540632  0.93274028  1
  Zn  Zn131  1  0.30932379  0.06081163  0.06413095  1
  Zn  Zn132  1  0.31035282  0.06201532  0.56452425  1
  Zn  Zn133  1  0.31441829  0.56201792  0.06230063  1
  Zn  Zn134  1  0.31086242  0.56672941  0.56398228  1
  Zn  Zn135  1  0.80935898  0.06744863  0.06289780  1
  Zn  Zn136  1  0.81020081  0.05494162  0.56263331  1
  Zn  Zn137  1  0.81094765  0.56363854  0.06174877  1
  Zn  Zn138  1  0.80792810  0.56296847  0.56969461  1
  Zn  Zn139  1  0.43742027  0.43612871  0.18921513  1
  Zn  Zn140  1  0.44678740  0.45555155  0.68067473  1
  Zn  Zn141  1  0.43575113  0.93839780  0.19029787  1
  Zn  Zn142  1  0.43653789  0.94189222  0.68637216  1
  Zn  Zn143  1  0.93647311  0.43839130  0.18795295  1
  Zn  Zn144  1  0.93664374  0.44166393  0.68802138  1
  Zn  Zn145  1  0.93953473  0.93167167  0.17361742  1
  Zn  Zn146  1  0.93743445  0.93755655  0.68793793  1
  Zn  Zn147  1  0.06421652  0.06167248  0.30499595  1
  Zn  Zn148  1  0.04785186  0.05858821  0.81691310  1
  Zn  Zn149  1  0.06252333  0.56366290  0.31322334  1
  Zn  Zn150  1  0.06516767  0.56068773  0.81123762  1
  Zn  Zn151  1  0.55930655  0.06120669  0.31476732  1
  Zn  Zn152  1  0.56205763  0.05892989  0.81095698  1
  Zn  Zn153  1  0.54318382  0.57868591  0.35778904  1
  Zn  Zn154  1  0.55746477  0.56628001  0.80540482  1
  Zn  Zn155  1  0.44244981  0.18596397  0.43605329  1
  Zn  Zn156  1  0.43914187  0.18827332  0.93483648  1
  Zn  Zn157  1  0.45792180  0.70200522  0.47088051  1
  Zn  Zn158  1  0.43493425  0.68567676  0.93612822  1
  Zn  Zn159  1  0.93603580  0.18715188  0.44055966  1
  Zn  Zn160  1  0.93589324  0.18450874  0.93372521  1
  Zn  Zn161  1  0.94279269  0.68704562  0.43480563  1
  Zn  Zn162  1  0.93910343  0.69434792  0.93646899  1
  Zn  Zn163  1  0.06363681  0.31407908  0.06052016  1
  Zn  Zn164  1  0.06055866  0.31318647  0.56187845  1
  Zn  Zn165  1  0.04471719  0.80159610  0.04023979  1
  Zn  Zn166  1  0.06224617  0.81868898  0.56427739  1
  Zn  Zn167  1  0.56039700  0.31402814  0.05708971  1
  Zn  Zn168  1  0.56150559  0.31075364  0.56109828  1
  Zn  Zn169  1  0.56025980  0.80820107  0.06281883  1
  Zn  Zn170  1  0.56494393  0.80026727  0.57315248  1
  O  O171  1  0.11441743  0.12904140  0.12123828  1
  O  O172  1  0.12467550  0.11465184  0.61830788  1
  O  O173  1  0.12371715  0.60911567  0.12308856  1
  O  O174  1  0.11820136  0.61912599  0.61873599  1
  O  O175  1  0.61721337  0.12306233  0.11477585  1
  O  O176  1  0.61845758  0.12227228  0.61934375  1
  O  O177  1  0.61446072  0.61572017  0.12075473  1
  O  O178  1  0.64177460  0.61889536  0.61425548  1
  O  O179  1  0.38399251  0.37842803  0.37358851  1
  O  O180  1  0.38065355  0.38479565  0.87361354  1
  O  O181  1  0.37764107  0.88913756  0.38540422  1
  O  O182  1  0.37963468  0.88324685  0.88101745  1
  O  O183  1  0.87632700  0.37901813  0.38781899  1
  O  O184  1  0.88077197  0.38313753  0.87902891  1
  O  O185  1  0.88230460  0.88495154  0.37704630  1
  O  O186  1  0.87235188  0.88380527  0.88650418  1
  O  O187  1  0.25365633  -0.00556395  0.35740990  1
  O  O188  1  0.25634106  0.00099250  0.86922354  1
  O  O189  1  0.25362312  0.49983937  0.36810899  1
  O  O190  1  0.25739551  0.50372917  0.86966390  1
  O  O191  1  0.75992809  0.00209784  0.36594247  1
  O  O192  1  0.76735386  0.00076487  0.88773175  1
  O  O193  1  0.75372744  0.50922414  0.37133786  1
  O  O194  1  0.75946323  0.49315860  0.86098487  1
  O  O195  1  0.24358629  0.49648721  0.13033208  1
  O  O196  1  0.24309599  0.49219019  0.62888586  1
  O  O197  1  0.25541065  0.98841973  0.13864399  1
  O  O198  1  0.23943953  0.99414197  0.63362322  1
  O  O199  1  0.74342868  0.49418480  0.13044683  1
  O  O200  1  0.75508690  0.48812723  0.63899729  1
  O  O201  1  0.74232954  0.99221216  0.12756917  1
  O  O202  1  0.74668505  0.98400804  0.62373370  1
  O  O203  1  0.00424947  0.37038577  0.25686409  1
  O  O204  1  0.00735267  0.37562385  0.75566861  1
  O  O205  1  -0.00467674  0.86005795  0.25440344  1
  O  O206  1  0.01270085  0.87706163  0.75335444  1
  O  O207  1  0.50775671  0.37028057  0.25256900  1
  O  O208  1  0.49546776  0.37866942  0.75788763  1
  O  O209  1  0.50758801  0.86982750  0.25177049  1
  O  O210  1  0.49698296  0.87524776  0.75872172  1
  O  O211  1  0.50046430  0.12672642  0.23614702  1
  O  O212  1  0.49168412  0.12285999  0.74154641  1
  O  O213  1  0.50172930  0.63164404  0.24953615  1
  O  O214  1  0.48191136  0.63152781  0.75462466  1
  O  O215  1  0.99402942  0.13972157  0.24938804  1
  O  O216  1  0.97479117  0.12492351  0.75374752  1
  O  O217  1  0.99114905  0.63379935  0.25122307  1
  O  O218  1  1.00367959  0.62271225  0.73641216  1
  O  O219  1  0.36691039  0.24923183  0.00423663  1
  O  O220  1  0.35977022  0.24034394  0.49657719  1
  O  O221  1  0.36897144  0.76121077  -0.00146078  1
  O  O222  1  0.36944649  0.76983336  0.49318902  1
  O  O223  1  0.86582194  0.25504000  0.00154595  1
  O  O224  1  0.87241407  0.25837425  0.50911024  1
  O  O225  1  0.85993369  0.73390641  0.01766147  1
  O  O226  1  0.88460795  0.76440642  0.49788464  1
  O  O227  1  0.12632430  0.24188872  0.49535641  1
  O  O228  1  0.13116529  0.24995271  0.99019590  1
  O  O229  1  0.12561183  0.74061074  0.50290486  1
  O  O230  1  0.14449093  0.74276434  1.02043322  1
  O  O231  1  0.62673937  0.23915362  0.49835149  1
  O  O232  1  0.63020770  0.24380960  0.99154723  1
  O  O233  1  0.63706700  0.77148972  0.48028209  1
  O  O234  1  0.63045170  0.73820479  1.00292252  1
  O  O235  1  0.49249743  0.24226872  0.12177765  1
  O  O236  1  0.50025043  0.23792018  0.62624533  1
  O  O237  1  0.50628630  0.73846089  0.13813312  1
  O  O238  1  0.51984392  0.69858905  0.56899621  1
  O  O239  1  0.99454820  0.24827751  0.13176177  1
  O  O240  1  0.98483848  0.25217164  0.62397640  1
  O  O241  1  0.98783912  0.74345246  0.13322403  1
  O  O242  1  1.00163204  0.73702024  0.62174079  1
  O  O243  1  0.00545949  0.25637798  0.37260148  1
  O  O244  1  0.00559010  0.25624392  0.87280623  1
  O  O245  1  -0.00301174  0.75753323  0.35899301  1
  O  O246  1  0.00723053  0.78046304  0.93477834  1
  O  O247  1  0.50049214  0.26217798  0.37171013  1
  O  O248  1  0.50681265  0.25951468  0.87100584  1
  O  O249  1  0.51737657  0.75570497  0.37253566  1
  O  O250  1  0.50225908  0.76350030  0.88544456  1
  O  O251  1  0.23689912  0.13501931  0.50618995  1
  O  O252  1  0.24727931  0.13533823  0.99764815  1
  O  O253  1  0.24137156  0.62924966  0.49336751  1
  O  O254  1  0.25346764  0.63209353  0.99387504  1
  O  O255  1  0.73651045  0.12088910  0.50026037  1
  O  O256  1  0.73798265  0.13819731  1.00631573  1
  O  O257  1  0.76365171  0.62896657  0.48724498  1
  O  O258  1  0.73573844  0.63103307  1.00706692  1
  O  O259  1  0.25228450  0.36112634  0.00032003  1
  O  O260  1  0.24672004  0.35990759  0.50912241  1
  O  O261  1  0.25879719  0.86761458  0.00989367  1
  O  O262  1  0.25460042  0.87742007  0.50975544  1
  O  O263  1  0.75259900  0.36963955  0.00470349  1
  O  O264  1  0.75439209  0.37965702  0.51219481  1
  O  O265  1  0.73572130  0.86300456  0.01329792  1
  O  O266  1  0.76467566  0.88166923  0.50259326  1
  O  O267  1  0.13274375  0.49514176  0.24409504  1
  O  O268  1  0.13269918  0.49518773  0.73904062  1
  O  O269  1  0.13616965  0.99724829  0.23534524  1
  O  O270  1  0.12851651  1.00174892  0.74526887  1
  O  O271  1  0.62976901  0.48825013  0.24384601  1
  O  O272  1  0.63905429  0.50196557  0.75821777  1
  O  O273  1  0.62755126  0.99410506  0.24346569  1
  O  O274  1  0.61453960  0.98055357  0.74724511  1
  O  O275  1  0.36695689  0.00357819  0.25758375  1
  O  O276  1  0.36557164  0.00557155  0.75836344  1
  O  O277  1  0.35942848  0.49608919  0.25058122  1
  O  O278  1  0.37054423  0.50827331  0.75877971  1
  O  O279  1  0.87140855  0.00245613  0.25387606  1
  O  O280  1  0.87035949  0.00353130  0.75425919  1
  O  O281  1  0.86916216  0.50622050  0.25677460  1
  O  O282  1  0.86948498  0.50607445  0.75830667  1
  O  O283  1  0.11843224  0.36548971  0.37301066  1
  O  O284  1  0.12052214  0.36430983  0.86706340  1
  O  O285  1  0.11363929  0.87920851  0.37635498  1
  O  O286  1  0.12635913  0.88183417  0.86081242  1
  O  O287  1  0.61248097  0.37837615  0.36964593  1
  O  O288  1  0.61465500  0.36445196  0.87773465  1
  O  O289  1  0.62854832  0.87240158  0.36106886  1
  O  O290  1  0.61659368  0.87332268  0.86356529  1
  O  O291  1  0.38217870  0.13395772  0.12341451  1
  O  O292  1  0.38311234  0.11757973  0.63528335  1
  O  O293  1  0.39013288  0.61672985  0.13135010  1
  O  O294  1  0.36550327  0.62814147  0.64052330  1
  O  O295  1  0.88057921  0.13476324  0.13120614  1
  O  O296  1  0.87130203  0.13872188  0.61683300  1
  O  O297  1  0.87474512  0.62577173  0.13852055  1
  O  O298  1  0.89105787  0.62642737  0.62457983  1
  O  O299  1  0.25663787  0.25059039  0.11700198  1
  O  O300  1  0.24736975  0.25848093  0.61293671  1
  O  O301  1  0.26193416  0.75889857  0.12634989  1
  O  O302  1  0.24241487  0.76594848  0.62404961  1
  O  O303  1  0.75351337  0.25763889  0.11483657  1
  O  O304  1  0.76041763  0.26386616  0.62300374  1
  O  O305  1  0.75182550  0.75493720  0.12332617  1
  O  O306  1  0.75742336  0.76855245  0.62829360  1
  O  O307  1  0.24000227  0.25481050  0.38948243  1
  O  O308  1  0.24061705  0.24685210  0.87985204  1
  O  O309  1  0.25084056  0.73694833  0.37337576  1
  O  O310  1  0.25124588  0.74265210  0.88924926  1
  O  O311  1  0.74588500  0.24557586  0.38066225  1
  O  O312  1  0.74240406  0.25845161  0.88393845  1
  O  O313  1  0.74255961  0.74544364  0.36408716  1
  O  O314  1  0.74400923  0.75472758  0.88972139  1
  O  O315  1  -0.00048726  0.13068954  0.01435070  1
  O  O316  1  0.01008230  0.11222465  0.49270569  1
  O  O317  1  0.00221919  0.60991377  0.00191653  1
  O  O318  1  0.00830740  0.62295253  0.50605294  1
  O  O319  1  0.50502013  0.11953186  0.00822810  1
  O  O320  1  0.50843615  0.11858897  0.50615307  1
  O  O321  1  0.50380284  0.61933403  0.00945573  1
  O  O322  1  0.49667342  0.59872805  0.46214422  1
  O  O323  1  0.50085394  0.37478765  0.48729102  1
  O  O324  1  0.49729909  0.38349418  0.98773567  1
  O  O325  1  0.49304455  0.88196951  0.50664715  1
  O  O326  1  0.49356786  0.87994049  0.99764061  1
  O  O327  1  0.99072098  0.37973527  0.49558876  1
  O  O328  1  0.99487540  0.38371420  0.99296452  1
  O  O329  1  0.99713570  0.88583905  0.49018121  1
  O  O330  1  1.01838572  0.90386767  1.08271192  1
  O  O331  1  0.48227554  0.48101623  0.36081929  1
  O  O332  1  0.49296689  0.49587592  0.87726215  1
  O  O333  1  0.49297356  0.99671895  0.38738943  1
  O  O334  1  0.49194331  0.99038027  0.88128558  1
  O  O335  1  0.99110678  0.49355253  0.37570866  1
  O  O336  1  0.99612489  0.49368913  0.88086411  1
  O  O337  1  0.99558110  0.99382919  0.37472841  1
  O  O338  1  0.97985966  0.99308251  0.88051631  1
  O  O339  1  0.00713181  0.02528980  0.15319475  1
  O  O340  1  0.00798766  -0.00536412  0.61309697  1
  O  O341  1  0.00715940  0.49838413  0.11738529  1
  O  O342  1  0.00886534  0.50958336  0.62358438  1
  O  O343  1  0.50404542  0.00707375  0.11953826  1
  O  O344  1  0.50027389  0.00962311  0.61396783  1
  O  O345  1  0.50526204  0.50266672  0.11939372  1
  O  O346  1  0.50765196  0.52401357  0.61792877  1
  O  O347  1  0.24158009  0.37977315  0.24862823  1
  O  O348  1  0.24403395  0.37921533  0.74146536  1
  O  O349  1  0.26187325  0.88077134  0.24270880  1
  O  O350  1  0.24177147  0.88610950  0.74660305  1
  O  O351  1  0.74342251  0.38170346  0.24537667  1
  O  O352  1  0.75267061  0.38350383  0.73781553  1
  O  O353  1  0.74196381  0.88064843  0.23945730  1
  O  O354  1  0.73975175  0.87766302  0.74657784  1
  O  O355  1  0.24963758  0.10985797  0.24483868  1
  O  O356  1  0.25529987  0.11481297  0.75044927  1
  O  O357  1  0.24846051  0.61612885  0.25628127  1
  O  O358  1  0.25384350  0.62049875  0.75771790  1
  O  O359  1  0.75682728  0.11842492  0.24645210  1
  O  O360  1  0.77375400  0.13227026  0.74541324  1
  O  O361  1  0.75625595  0.61889785  0.25462960  1
  O  O362  1  0.75194579  0.61273008  0.74567569  1
  O  O363  1  0.37972694  0.11096317  0.37436060  1
  O  O364  1  0.37617870  0.11208642  0.87040925  1
  O  O365  1  0.35891776  0.60940009  0.36971311  1
  O  O366  1  0.36450672  0.61918250  0.86903176  1
  O  O367  1  0.87560534  0.11412235  0.36895168  1
  O  O368  1  0.87141124  0.11060892  0.87527124  1
  O  O369  1  0.87044183  0.62266123  0.36555879  1
  O  O370  1  0.88310907  0.61233294  0.87867951  1
  O  O371  1  0.12555606  0.38379423  0.13188869  1
  O  O372  1  0.12787391  0.38221904  0.62861638  1
  O  O373  1  0.15345690  0.87280340  0.12997791  1
  O  O374  1  0.12877363  0.88620850  0.63600494  1
  O  O375  1  0.62732916  0.38033589  0.12937920  1
  O  O376  1  0.63777182  0.36995071  0.62519771  1
  O  O377  1  0.62691360  0.87945543  0.13352445  1
  O  O378  1  0.62999337  0.87361413  0.63356263  1
  O  O379  1  0.12098488  0.25443607  0.25888656  1
  O  O380  1  0.12157671  0.25161270  0.75544746  1
  O  O381  1  0.10916358  0.74308642  0.24183298  1
  O  O382  1  0.12783800  0.76557277  0.74961010  1
  O  O383  1  0.62488658  0.26421423  0.25001280  1
  O  O384  1  0.62362319  0.24040927  0.76081990  1
  O  O385  1  0.61812146  0.75967596  0.25475730  1
  O  O386  1  0.62346598  0.76570805  0.74999799  1
  O  O387  1  0.37393612  0.24488685  0.24028455  1
  O  O388  1  0.37510176  0.23384965  0.75857351  1
  O  O389  1  0.39247039  0.74934266  0.26155273  1
  O  O390  1  0.36687275  0.74233342  0.75369824  1
  O  O391  1  0.87923222  0.24891133  0.24450472  1
  O  O392  1  0.87779152  0.25200048  0.73445384  1
  O  O393  1  0.87749693  0.74154140  0.24161193  1
  O  O394  1  0.87884027  0.74760865  0.75392979  1
  O  O395  1  0.36161634  0.49457504  0.49089880  1
  O  O396  1  0.37995156  0.49967827  0.98721679  1
  O  O397  1  0.37819310  0.99500393  0.49517232  1
  O  O398  1  0.37639795  0.99190751  0.99280983  1
  O  O399  1  0.87470623  0.49404986  0.49592165  1
  O  O400  1  0.88063485  0.49463077  0.99490661  1
  O  O401  1  0.88451946  0.99692970  0.48906122  1
  O  O402  1  0.87578896  0.99703103  1.00572370  1
  O  O403  1  0.13357827  0.00009341  0.01908389  1
  O  O404  1  0.12132731  0.00780728  0.50618124  1
  O  O405  1  0.11818720  0.49594950  0.00681197  1
  O  O406  1  0.12628633  0.50523595  0.51159020  1
  O  O407  1  0.61996661  0.00728255  0.00366358  1
  O  O408  1  0.61548566  0.00441730  0.50100327  1
  O  O409  1  0.62020594  0.50522662  0.00420701  1
  O  O410  1  0.61938788  0.52186406  0.49707327  1
  O  O411  1  0.37563171  0.36154763  0.12086204  1
  O  O412  1  0.36747323  0.38322113  0.63277778  1
  O  O413  1  0.36880476  0.87991116  0.11599609  1
  O  O414  1  0.36216267  0.88557583  0.61898010  1
  O  O415  1  0.86908065  0.37079164  0.11788001  1
  O  O416  1  0.87219801  0.37245046  0.61582086  1
  O  O417  1  0.85952862  0.86151936  0.12994531  1
  O  O418  1  0.87203206  0.87665692  0.61311276  1
  O  O419  1  0.12103639  0.13623663  0.38040537  1
  O  O420  1  0.12068682  0.13391831  0.87706863  1
  O  O421  1  0.13437542  0.61502801  0.38681976  1
  O  O422  1  0.14007709  0.61734011  0.87787914  1
  O  O423  1  0.62418544  0.12611253  0.38348966  1
  O  O424  1  0.61586233  0.13152248  0.88627530  1
  O  O425  1  0.63727204  0.64501241  0.36991542  1
  O  O426  1  0.61601476  0.62549212  0.88824317  1
