# generated using pymatgen
data_V85Zn86O256
_symmetry_space_group_name_H-M   'P 1'
_cell_length_a   16.92586935
_cell_length_b   16.93165724
_cell_length_c   16.92201951
_cell_angle_alpha   89.98751244
_cell_angle_beta   89.95372126
_cell_angle_gamma   89.96816260
_symmetry_Int_Tables_number   1
_chemical_formula_structural   V85Zn86O256
_chemical_formula_sum   'V85 Zn86 O256'
_cell_volume   4849.56098016
_cell_formula_units_Z   1
loop_
 _symmetry_equiv_pos_site_id
 _symmetry_equiv_pos_as_xyz
  1  'x, y, z'
loop_
 _atom_site_type_symbol
 _atom_site_label
 _atom_site_symmetry_multiplicity
 _atom_site_fract_x
 _atom_site_fract_y
 _atom_site_fract_z
 _atom_site_occupancy
  V  V0  1  0.74429685  0.00096822  0.74509697  1
  V  V1  1  0.50835120  0.37034400  0.37155453  1
  V  V2  1  0.24712271  0.12237640  0.87154119  1
  V  V3  1  0.00196132  0.74511640  0.74389161  1
  V  V4  1  0.75107281  0.62308049  0.87536782  1
  V  V5  1  0.62214321  0.62490178  0.01115357  1
  V  V6  1  0.74492229  0.88908283  0.12837903  1
  V  V7  1  0.24492663  0.38872219  0.12883874  1
  V  V8  1  0.75456687  0.37237698  0.61061948  1
  V  V9  1  0.49883021  0.25076145  0.74296386  1
  V  V10  1  0.25391785  0.88150615  0.13023895  1
  V  V11  1  0.12100524  0.12573181  0.00202774  1
  V  V12  1  0.87492926  0.49295564  0.38103481  1
  V  V13  1  0.00018053  0.00203506  0.00438955  1
  V  V14  1  0.37493013  0.49950117  0.87384877  1
  V  V15  1  0.37397643  0.12971421  0.74177326  1
  V  V16  1  0.35237542  0.90400091  0.52381085  1
  V  V17  1  0.24773117  0.61394546  0.37254278  1
  V  V18  1  0.12675765  0.39006754  0.25119131  1
  V  V19  1  0.62896097  0.24868955  0.87874093  1
  V  V20  1  0.62493940  0.50392701  0.61927283  1
  V  V21  1  0.24919244  0.24827464  0.00592092  1
  V  V22  1  0.75163230  0.49773785  0.74979458  1
  V  V23  1  0.00413257  0.49892288  0.00274440  1
  V  V24  1  0.00109318  0.62168967  0.12723771  1
  V  V25  1  0.00480975  0.25293733  0.74753168  1
  V  V26  1  0.87585694  0.37413649  0.00413459  1
  V  V27  1  0.87665227  0.87362354  0.00077066  1
  V  V28  1  -0.00175817  0.87616424  0.37287577  1
  V  V29  1  0.23259053  0.25037201  0.50910805  1
  V  V30  1  0.74267621  0.49435457  0.24873904  1
  V  V31  1  0.37305829  0.62176141  0.74818745  1
  V  V32  1  0.63479236  0.14136559  0.50453046  1
  V  V33  1  0.12579106  0.62387242  0.00710929  1
  V  V34  1  0.75030443  0.74972572  0.00257834  1
  V  V35  1  0.00941071  0.00261323  0.49769150  1
  V  V36  1  0.87324751  0.25194599  0.60929465  1
  V  V37  1  0.87433976  0.62412455  0.25103114  1
  V  V38  1  0.12406010  0.75346157  0.87279118  1
  V  V39  1  0.49996639  0.74878059  0.74758004  1
  V  V40  1  0.74334987  0.74803988  0.50127272  1
  V  V41  1  -0.00129573  0.50657532  0.50538860  1
  V  V42  1  0.12293140  0.49539470  0.63174985  1
  V  V43  1  0.36820409  0.74917413  0.62315248  1
  V  V44  1  0.01077940  0.11997358  0.61727951  1
  V  V45  1  0.25010364  0.75112588  0.00141010  1
  V  V46  1  0.62533661  0.74942058  0.87331847  1
  V  V47  1  0.24657271  0.48221624  0.74645366  1
  V  V48  1  0.52002572  0.25371723  0.24849498  1
  V  V49  1  0.49961773  0.50281320  0.00873287  1
  V  V50  1  0.37215752  -0.00044434  0.87063730  1
  V  V51  1  0.51276497  0.00151116  0.50511064  1
  V  V52  1  0.37481747  0.13359539  0.25311902  1
  V  V53  1  0.37602538  0.87613635  0.00177610  1
  V  V54  1  0.49504609  0.50061846  0.49712838  1
  V  V55  1  0.50083673  0.87415117  0.87336683  1
  V  V56  1  0.50095659  0.37579381  0.87556036  1
  V  V57  1  0.13055732  0.87948128  0.25487887  1
  V  V58  1  0.87528879  0.74259805  0.62348348  1
  V  V59  1  0.49884376  0.74584750  0.24981191  1
  V  V60  1  0.37140507  0.61787453  0.24851230  1
  V  V61  1  0.49515583  0.87874551  0.37958005  1
  V  V62  1  0.37347099  0.37426263  0.00215818  1
  V  V63  1  0.24919856  0.62318621  0.87361498  1
  V  V64  1  0.12512044  0.74903839  0.37389878  1
  V  V65  1  0.25174868  0.75075212  0.49872594  1
  V  V66  1  0.00979932  0.24153372  0.24929135  1
  V  V67  1  0.36539771  0.00583675  0.37116561  1
  V  V68  1  0.87879903  0.24073079  0.12671505  1
  V  V69  1  0.62805737  0.37419611  0.74951892  1
  V  V70  1  0.74497212  0.14287944  0.36813804  1
  V  V71  1  0.74561760  0.62469683  0.37912139  1
  V  V72  1  0.12588362  0.00334895  0.12779305  1
  V  V73  1  0.87810140  0.12560584  0.74469117  1
  V  V74  1  0.37304012  0.35947310  0.50701305  1
  V  V75  1  0.87733754  0.00050445  0.87068490  1
  V  V76  1  0.50147160  0.62389184  0.61956155  1
  V  V77  1  0.50567355  0.00585303  0.00070011  1
  V  V78  1  0.00582264  0.37590321  0.87089342  1
  V  V79  1  0.74438706  0.87815514  0.62393128  1
  V  V80  1  0.23645810  0.13657000  0.37341186  1
  V  V81  1  0.86044472  -0.00243018  0.36944487  1
  V  V82  1  0.37816764  0.74970856  0.12818029  1
  V  V83  1  0.61967547  0.74632916  0.37827135  1
  V  V84  1  0.00285990  0.36984392  0.38099867  1
  Zn  Zn85  1  0.36915115  0.49279838  0.37140791  1
  Zn  Zn86  1  0.00113986  0.87482385  0.87058864  1
  Zn  Zn87  1  0.75272023  0.12826997  0.87393629  1
  Zn  Zn88  1  0.50769204  0.12389452  0.62667650  1
  Zn  Zn89  1  0.12274490  0.62486108  0.50636261  1
  Zn  Zn90  1  0.63454955  0.88572863  0.25371081  1
  Zn  Zn91  1  0.87375598  0.12043304  0.24579552  1
  Zn  Zn92  1  0.87933286  0.62115498  0.74609444  1
  Zn  Zn93  1  0.75313191  0.24886097  0.00108286  1
  Zn  Zn94  1  0.62271026  0.87963760  0.74565577  1
  Zn  Zn95  1  -0.00001000  0.74945205  0.24899644  1
  Zn  Zn96  1  0.37646380  0.24979739  0.12786439  1
  Zn  Zn97  1  0.50562059  0.12248228  0.13032446  1
  Zn  Zn98  1  0.12659087  0.25292816  0.87065817  1
  Zn  Zn99  1  0.63492671  0.11934487  0.00468399  1
  Zn  Zn100  1  0.87638150  0.49857693  0.87445566  1
  Zn  Zn101  1  0.12819804  0.88361671  0.73279311  1
  Zn  Zn102  1  0.24959870  -0.01035960  0.71826619  1
  Zn  Zn103  1  0.74517750  0.36851554  0.13182827  1
  Zn  Zn104  1  0.87445719  0.75090947  0.12719751  1
  Zn  Zn105  1  0.87304467  0.87581060  0.49962704  1
  Zn  Zn106  1  0.61698322  0.49715435  0.13422063  1
  Zn  Zn107  1  0.18876494  0.18778992  0.19040155  1
  Zn  Zn108  1  0.18563226  0.18516943  0.68552951  1
  Zn  Zn109  1  0.18973123  0.68848437  0.18933065  1
  Zn  Zn110  1  0.18422706  0.68153292  0.68594451  1
  Zn  Zn111  1  0.68978893  0.18109021  0.18073034  1
  Zn  Zn112  1  0.69051394  0.18853197  0.68588361  1
  Zn  Zn113  1  0.68768860  0.69218713  0.18999726  1
  Zn  Zn114  1  0.68763617  0.68541316  0.68739468  1
  Zn  Zn115  1  0.31119629  0.31458725  0.31689241  1
  Zn  Zn116  1  0.31356263  0.30781999  0.81649741  1
  Zn  Zn117  1  0.31364400  0.81597960  0.31680978  1
  Zn  Zn118  1  0.30950922  0.81292993  0.80808768  1
  Zn  Zn119  1  0.81862651  0.31194049  0.31104642  1
  Zn  Zn120  1  0.81824524  0.31363323  0.81066043  1
  Zn  Zn121  1  0.81097625  0.81142561  0.31026239  1
  Zn  Zn122  1  0.81431084  0.81283219  0.81033254  1
  Zn  Zn123  1  0.18317455  0.43072728  0.44332738  1
  Zn  Zn124  1  0.18636166  0.43753851  0.93867612  1
  Zn  Zn125  1  0.17944504  0.94068275  0.55945467  1
  Zn  Zn126  1  0.18866120  0.93696322  0.93454257  1
  Zn  Zn127  1  0.68384822  0.43932452  0.43673432  1
  Zn  Zn128  1  0.68663291  0.43579294  0.94289569  1
  Zn  Zn129  1  0.68532349  0.93316374  0.43742302  1
  Zn  Zn130  1  0.69077200  0.93632573  0.93373701  1
  Zn  Zn131  1  0.31697863  0.06359855  0.06479271  1
  Zn  Zn132  1  0.31687604  0.08103851  0.55454627  1
  Zn  Zn133  1  0.31501710  0.56470963  0.06366011  1
  Zn  Zn134  1  0.30868487  0.55811330  0.56212288  1
  Zn  Zn135  1  0.81332290  0.06536808  0.05964082  1
  Zn  Zn136  1  0.81597297  0.06216216  0.55683568  1
  Zn  Zn137  1  0.81519249  0.56128573  0.06371090  1
  Zn  Zn138  1  0.81114581  0.56112423  0.55957553  1
  Zn  Zn139  1  0.43539737  0.43256299  0.18767174  1
  Zn  Zn140  1  0.43569882  0.43442306  0.68570394  1
  Zn  Zn141  1  0.47139630  0.95392281  0.20656217  1
  Zn  Zn142  1  0.43786822  0.94054985  0.68845477  1
  Zn  Zn143  1  0.93831690  0.43557030  0.18975321  1
  Zn  Zn144  1  0.93793727  0.43530998  0.68460603  1
  Zn  Zn145  1  0.93746348  0.93795865  0.18747590  1
  Zn  Zn146  1  0.94077320  0.93036305  0.68229289  1
  Zn  Zn147  1  0.06126241  0.05857833  0.31402854  1
  Zn  Zn148  1  0.06623308  0.05840581  0.80735731  1
  Zn  Zn149  1  0.06046922  0.56129252  0.31664193  1
  Zn  Zn150  1  0.06363882  0.56425039  0.81289584  1
  Zn  Zn151  1  0.56794936  0.06484307  0.31505757  1
  Zn  Zn152  1  0.56261053  0.06622740  0.81598167  1
  Zn  Zn153  1  0.55858236  0.56389561  0.31635193  1
  Zn  Zn154  1  0.56422405  0.56256146  0.81338474  1
  Zn  Zn155  1  0.44528425  0.18783302  0.43536404  1
  Zn  Zn156  1  0.43648943  0.18893380  0.93221245  1
  Zn  Zn157  1  0.43188472  0.68429600  0.43801196  1
  Zn  Zn158  1  0.43794588  0.68656102  0.93843904  1
  Zn  Zn159  1  0.93801934  0.18301871  0.43114324  1
  Zn  Zn160  1  0.93934510  0.18788670  0.93560096  1
  Zn  Zn161  1  0.93417397  0.68657490  0.43693918  1
  Zn  Zn162  1  0.93802306  0.68721855  0.93473672  1
  Zn  Zn163  1  0.06324647  0.31279608  0.06801296  1
  Zn  Zn164  1  0.05884264  0.31845911  0.56593121  1
  Zn  Zn165  1  0.06190155  0.81198210  0.06533255  1
  Zn  Zn166  1  0.05530645  0.80618943  0.55647175  1
  Zn  Zn167  1  0.56584172  0.31477841  0.06709687  1
  Zn  Zn168  1  0.56312698  0.31691266  0.56141004  1
  Zn  Zn169  1  0.56265515  0.81488199  0.06317680  1
  Zn  Zn170  1  0.56005727  0.81466634  0.56211387  1
  O  O171  1  0.13414499  0.11074446  0.11902510  1
  O  O172  1  0.10998301  0.12457174  0.62286273  1
  O  O173  1  0.12011469  0.63013400  0.11452734  1
  O  O174  1  0.12747842  0.60816361  0.62111567  1
  O  O175  1  0.61720802  0.12900099  0.11577275  1
  O  O176  1  0.62841121  0.12679594  0.61012968  1
  O  O177  1  0.62848923  0.62284419  0.11412695  1
  O  O178  1  0.61984643  0.61117853  0.62831020  1
  O  O179  1  0.38357373  0.37663586  0.38425390  1
  O  O180  1  0.37936287  0.38074314  0.88278503  1
  O  O181  1  0.37422635  0.89170274  0.38815378  1
  O  O182  1  0.38009927  0.88190509  0.87941545  1
  O  O183  1  0.88503903  0.38672083  0.36878282  1
  O  O184  1  0.88777009  0.37598798  0.88401855  1
  O  O185  1  0.87959911  0.88206959  0.37201790  1
  O  O186  1  0.87670286  0.88266844  0.88266551  1
  O  O187  1  0.26641113  0.01596829  0.38020015  1
  O  O188  1  0.25825557  0.01298132  0.88304374  1
  O  O189  1  0.24796673  0.51089261  0.38339686  1
  O  O190  1  0.25370298  0.50468788  0.86971456  1
  O  O191  1  0.75858780  -0.00509926  0.37242885  1
  O  O192  1  0.76433067  -0.00032431  0.86615775  1
  O  O193  1  0.75398158  0.50638885  0.36950564  1
  O  O194  1  0.74976867  0.50572958  0.86736314  1
  O  O195  1  0.25023953  0.48779943  0.11773161  1
  O  O196  1  0.24036965  0.49959271  0.63548517  1
  O  O197  1  0.24453072  0.98780326  0.11846259  1
  O  O198  1  0.27888532  0.98207987  0.59796968  1
  O  O199  1  0.75317932  0.50395670  0.14352231  1
  O  O200  1  0.74345365  0.49540649  0.62979138  1
  O  O201  1  0.75474034  0.98780450  0.12163247  1
  O  O202  1  0.76096531  0.99049098  0.63291354  1
  O  O203  1  0.01035106  0.37082012  0.25705848  1
  O  O204  1  -0.00629372  0.36574443  0.75862807  1
  O  O205  1  0.00646712  0.87202463  0.25763247  1
  O  O206  1  0.00385711  0.86124783  0.75164034  1
  O  O207  1  0.49604973  0.36624507  0.26085739  1
  O  O208  1  0.50562968  0.37032007  0.75527558  1
  O  O209  1  0.47963105  0.85750408  0.27252401  1
  O  O210  1  0.50174634  0.86976492  0.75550018  1
  O  O211  1  0.49576032  0.14312847  0.25563605  1
  O  O212  1  0.49413799  0.13254571  0.74995707  1
  O  O213  1  0.49013695  0.63860947  0.25774590  1
  O  O214  1  0.49373724  0.62708445  0.74182611  1
  O  O215  1  0.99837923  0.13875858  0.25754490  1
  O  O216  1  0.99117913  0.12806881  0.74082295  1
  O  O217  1  0.99295553  0.62344474  0.24410629  1
  O  O218  1  0.99586119  0.63888227  0.75753679  1
  O  O219  1  0.36674082  0.25466161  0.00067796  1
  O  O220  1  0.37616806  0.25676445  0.49892143  1
  O  O221  1  0.37190781  0.75479811  0.00816048  1
  O  O222  1  0.36707573  0.75506418  0.50703745  1
  O  O223  1  0.88221031  0.25786082  0.00864591  1
  O  O224  1  0.87891004  0.24713005  0.51109613  1
  O  O225  1  0.86997167  0.75876404  -0.00091380  1
  O  O226  1  0.86187424  0.74993414  0.50394966  1
  O  O227  1  0.13369165  0.25883365  0.50089888  1
  O  O228  1  0.13010509  0.24085391  1.00140295  1
  O  O229  1  0.13144684  0.74612026  0.48766229  1
  O  O230  1  0.12948269  0.74355270  0.99553219  1
  O  O231  1  0.62462231  0.23988751  0.50018645  1
  O  O232  1  0.62504433  0.25458953  0.98551433  1
  O  O233  1  0.63429052  0.75269088  0.49395265  1
  O  O234  1  0.62836205  0.74255485  0.99430714  1
  O  O235  1  0.49711817  0.25519394  0.14015821  1
  O  O236  1  0.50812556  0.25041408  0.63973741  1
  O  O237  1  0.49050628  0.75851864  0.13655638  1
  O  O238  1  0.49231779  0.74253936  0.62666173  1
  O  O239  1  0.99461008  0.25462746  0.14071909  1
  O  O240  1  0.99051065  0.24502913  0.62807613  1
  O  O241  1  0.99735515  0.73677786  0.12679943  1
  O  O242  1  0.98730793  0.74760253  0.62970328  1
  O  O243  1  -0.00827485  0.25939836  0.36217433  1
  O  O244  1  0.00118810  0.25692526  0.86539069  1
  O  O245  1  0.00678063  0.75625532  0.37474515  1
  O  O246  1  0.00841582  0.75153553  0.86910187  1
  O  O247  1  0.50082589  0.26205190  0.36414789  1
  O  O248  1  0.50805628  0.25690293  0.86674912  1
  O  O249  1  0.50394064  0.75450042  0.37729417  1
  O  O250  1  0.50343299  0.75443419  0.86835381  1
  O  O251  1  0.25051414  0.14099892  0.48624277  1
  O  O252  1  0.24317062  0.13052565  0.99606350  1
  O  O253  1  0.25143491  0.63533873  0.49098630  1
  O  O254  1  0.24253345  0.62914568  0.99625640  1
  O  O255  1  0.73950855  0.12101686  0.49019504  1
  O  O256  1  0.75183660  0.13029872  0.99152974  1
  O  O257  1  0.74966559  0.63008611  0.48655720  1
  O  O258  1  0.74373203  0.62738123  0.99446304  1
  O  O259  1  0.25192536  0.36685782  0.00566120  1
  O  O260  1  0.26209220  0.36011013  0.49277215  1
  O  O261  1  0.25705501  0.87000681  0.00635136  1
  O  O262  1  0.25473303  0.86192376  0.49678271  1
  O  O263  1  0.76790089  0.37509835  -0.00253392  1
  O  O264  1  0.74808149  0.38197153  0.51151610  1
  O  O265  1  0.75996599  0.87212426  0.00554944  1
  O  O266  1  0.75086532  0.86618535  0.50579312  1
  O  O267  1  0.12161784  0.48895035  0.24931869  1
  O  O268  1  0.13226466  0.50339858  0.74238501  1
  O  O269  1  0.11964314  0.99033402  0.24069415  1
  O  O270  1  0.13711894  1.00052370  0.74629418  1
  O  O271  1  0.63875161  0.50958436  0.25216680  1
  O  O272  1  0.63429567  0.49516223  0.74370948  1
  O  O273  1  0.57841562  0.98202525  0.24269717  1
  O  O274  1  0.64087076  1.00231090  0.75605282  1
  O  O275  1  0.38578753  0.01287164  0.26557533  1
  O  O276  1  0.37112742  0.00751301  0.75834413  1
  O  O277  1  0.38012874  0.51411260  0.24862443  1
  O  O278  1  0.36746505  0.50195819  0.75348250  1
  O  O279  1  0.88295800  0.00337334  0.26501165  1
  O  O280  1  0.87379834  0.00470700  0.75485450  1
  O  O281  1  0.86759408  0.50911028  0.25816682  1
  O  O282  1  0.86333803  0.50084994  0.74940484  1
  O  O283  1  0.11731439  0.37840671  0.36243231  1
  O  O284  1  0.11079402  0.37164974  0.88224791  1
  O  O285  1  0.11585015  0.86709905  0.36497964  1
  O  O286  1  0.12294749  0.85977166  0.88172938  1
  O  O287  1  0.60740219  0.37892185  0.37797117  1
  O  O288  1  0.62096081  0.37098654  0.86836011  1
  O  O289  1  0.61328456  0.86478051  0.37493629  1
  O  O290  1  0.61985116  0.86651824  0.87160582  1
  O  O291  1  0.38129758  0.12679399  0.13722391  1
  O  O292  1  0.38166203  0.12551309  0.63874687  1
  O  O293  1  0.36752654  0.64073582  0.13204928  1
  O  O294  1  0.37971605  0.62991924  0.62901834  1
  O  O295  1  0.87730584  0.13581040  0.12555596  1
  O  O296  1  0.87845370  0.13561902  0.62810320  1
  O  O297  1  0.88224239  0.62626422  0.13375601  1
  O  O298  1  0.86291539  0.63778430  0.62721735  1
  O  O299  1  0.25000277  0.25447533  0.11458606  1
  O  O300  1  0.24776229  0.24319616  0.60854641  1
  O  O301  1  0.25437427  0.76117636  0.12010317  1
  O  O302  1  0.26169656  0.74169149  0.61764493  1
  O  O303  1  0.76366385  0.25241129  0.12337824  1
  O  O304  1  0.76425153  0.25788958  0.62816675  1
  O  O305  1  0.75360263  0.75440353  0.11625994  1
  O  O306  1  0.75117121  0.75362916  0.61717936  1
  O  O307  1  0.24878467  0.24080466  0.38198437  1
  O  O308  1  0.24769789  0.23912857  0.88615935  1
  O  O309  1  0.24387618  0.74430184  0.38127067  1
  O  O310  1  0.24527936  0.74228128  0.88229292  1
  O  O311  1  0.75425721  0.24114618  0.37540240  1
  O  O312  1  0.74298004  0.25200317  0.87326906  1
  O  O313  1  0.74162467  0.74495380  0.38045050  1
  O  O314  1  0.74600309  0.74325040  0.88057592  1
  O  O315  1  0.01295946  0.11776798  -0.00395094  1
  O  O316  1  -0.00565040  0.11477065  0.50373432  1
  O  O317  1  0.00535048  0.61915470  0.00579245  1
  O  O318  1  0.00128546  0.61080538  0.49201232  1
  O  O319  1  0.49726887  0.11134199  -0.00657334  1
  O  O320  1  0.51620060  0.11768462  0.49865949  1
  O  O321  1  0.50991509  0.61580066  -0.00625973  1
  O  O322  1  0.49259232  0.61441655  0.50789619  1
  O  O323  1  0.49171630  0.37659760  0.49042325  1
  O  O324  1  0.49282449  0.38286803  0.99453874  1
  O  O325  1  0.49168070  0.88645353  0.49642530  1
  O  O326  1  0.49458942  0.88182988  0.99244919  1
  O  O327  1  1.00448194  0.38492676  0.48657488  1
  O  O328  1  0.99523302  0.38229978  0.99793082  1
  O  O329  1  0.99430826  0.87904246  0.48494797  1
  O  O330  1  0.99011194  0.88057107  0.99974938  1
  O  O331  1  0.49578893  0.49125179  0.38127830  1
  O  O332  1  0.49473208  0.49449120  0.88017838  1
  O  O333  1  0.49422341  0.99389291  0.38791497  1
  O  O334  1  0.49083491  0.99454154  0.87845426  1
  O  O335  1  0.99154494  0.49340459  0.38120075  1
  O  O336  1  0.99832046  0.49440726  0.88186312  1
  O  O337  1  0.99058597  0.99284712  0.37925483  1
  O  O338  1  0.99259638  0.99813563  0.88288963  1
  O  O339  1  0.00908778  -0.00512029  0.11238785  1
  O  O340  1  -0.01348127  0.00788823  0.60952199  1
  O  O341  1  -0.00369263  0.51232557  0.11836115  1
  O  O342  1  0.00669828  0.49846463  0.61840881  1
  O  O343  1  0.48754039  -0.00056056  0.10155425  1
  O  O344  1  0.49607762  0.00287648  0.60970432  1
  O  O345  1  0.49698018  0.49868595  0.11281978  1
  O  O346  1  0.50629166  0.50313160  0.61921591  1
  O  O347  1  0.23590112  0.37051248  0.24455833  1
  O  O348  1  0.25155100  0.38326870  0.75811484  1
  O  O349  1  0.24156835  0.87247544  0.24400700  1
  O  O350  1  0.24295239  0.88090792  0.75535387  1
  O  O351  1  0.75444511  0.39197088  0.25390337  1
  O  O352  1  0.74744682  0.38254711  0.74284139  1
  O  O353  1  0.74988935  0.87189521  0.23413264  1
  O  O354  1  0.74949418  0.88326619  0.74256809  1
  O  O355  1  0.25953222  0.13132856  0.26317603  1
  O  O356  1  0.25752918  0.12610022  0.75704130  1
  O  O357  1  0.25781336  0.62915751  0.25986503  1
  O  O358  1  0.25688282  0.61866574  0.75736570  1
  O  O359  1  0.75127683  0.12742563  0.26430270  1
  O  O360  1  0.76291494  0.11839744  0.74844072  1
  O  O361  1  0.75526738  0.62111180  0.26069906  1
  O  O362  1  0.74939125  0.61591775  0.75886805  1
  O  O363  1  0.37422401  0.12057467  0.37115182  1
  O  O364  1  0.36792833  0.11765690  0.86677831  1
  O  O365  1  0.36479344  0.62147863  0.36654265  1
  O  O366  1  0.37025429  0.61834168  0.86956337  1
  O  O367  1  0.85854969  0.11401520  0.37547437  1
  O  O368  1  0.87796777  0.11740763  0.86360128  1
  O  O369  1  0.86671486  0.61646658  0.36911115  1
  O  O370  1  0.86118061  0.62202478  0.87542974  1
  O  O371  1  0.13108708  0.37406613  0.13886493  1
  O  O372  1  0.12217192  0.39358305  0.62496133  1
  O  O373  1  0.13192543  0.88174901  0.13210247  1
  O  O374  1  0.11919768  0.87027183  0.61933521  1
  O  O375  1  0.63552887  0.38760442  0.11290293  1
  O  O376  1  0.63197914  0.38391988  0.63024911  1
  O  O377  1  0.64247328  0.87286275  0.12089061  1
  O  O378  1  0.63848668  0.87069749  0.62687910  1
  O  O379  1  0.11207126  0.25590010  0.24652963  1
  O  O380  1  0.10969443  0.24330592  0.75029861  1
  O  O381  1  0.12436629  0.75697782  0.25941865  1
  O  O382  1  0.11933420  0.74690663  0.75814927  1
  O  O383  1  0.61788641  0.25208498  0.24755735  1
  O  O384  1  0.62101074  0.25459927  0.75818734  1
  O  O385  1  0.61438308  0.75596247  0.25761496  1
  O  O386  1  0.61673794  0.74879638  0.75540963  1
  O  O387  1  0.37752353  0.24218581  0.25168716  1
  O  O388  1  0.38591172  0.24146159  0.75854657  1
  O  O389  1  0.37714483  0.74261000  0.24554676  1
  O  O390  1  0.38019770  0.74317874  0.74259819  1
  O  O391  1  0.88582968  0.24827815  0.24168156  1
  O  O392  1  0.88475157  0.24087735  0.74370457  1
  O  O393  1  0.87671546  0.73534252  0.25210833  1
  O  O394  1  0.88148820  0.74766972  0.74174371  1
  O  O395  1  0.38368739  0.49059704  0.49979325  1
  O  O396  1  0.38180255  0.49813110  0.99354554  1
  O  O397  1  0.38762460  1.00742528  0.48919877  1
  O  O398  1  0.38067888  0.99628354  0.98710805  1
  O  O399  1  0.88146923  0.50189018  0.49148247  1
  O  O400  1  0.88684488  0.49415430  0.99949328  1
  O  O401  1  0.87880180  0.99581307  0.48303243  1
  O  O402  1  0.88324913  0.99533575  0.99282748  1
  O  O403  1  0.11892186  0.00423936  0.00511322  1
  O  O404  1  0.10886777  -0.00114624  0.48981950  1
  O  O405  1  0.11292831  0.50884999  -0.00336283  1
  O  O406  1  0.11755222  0.50093953  0.50962351  1
  O  O407  1  0.60916282  -0.00106287  -0.01250157  1
  O  O408  1  0.61482963  0.00213238  0.49770546  1
  O  O409  1  0.61566530  0.51036356  -0.00330705  1
  O  O410  1  0.60915416  0.49521533  0.50815169  1
  O  O411  1  0.36429566  0.37186595  0.11937911  1
  O  O412  1  0.38051942  0.37453861  0.60584453  1
  O  O413  1  0.36771919  0.86667049  0.12282655  1
  O  O414  1  0.38348912  0.86282468  0.61999948  1
  O  O415  1  0.87446691  0.36796755  0.11898942  1
  O  O416  1  0.86929140  0.36090047  0.62638246  1
  O  O417  1  0.86834834  0.87301242  0.11733727  1
  O  O418  1  0.86312396  0.86094354  0.62253650  1
  O  O419  1  0.13902436  0.12306137  0.36806036  1
  O  O420  1  0.13251569  0.12605120  0.88362426  1
  O  O421  1  0.13107544  0.63275810  0.37450317  1
  O  O422  1  0.12827211  0.63419975  0.88665333  1
  O  O423  1  0.63915670  0.12214417  0.38453868  1
  O  O424  1  0.62940549  0.13587213  0.87787762  1
  O  O425  1  0.63001179  0.63796569  0.37206832  1
  O  O426  1  0.63528797  0.62953976  0.88129949  1
