# generated using pymatgen
data_V85Zn86O256
_symmetry_space_group_name_H-M   'P 1'
_cell_length_a   16.93983820
_cell_length_b   16.93353715
_cell_length_c   16.93530445
_cell_angle_alpha   90.07862490
_cell_angle_beta   89.93554077
_cell_angle_gamma   89.96737203
_symmetry_Int_Tables_number   1
_chemical_formula_structural   V85Zn86O256
_chemical_formula_sum   'V85 Zn86 O256'
_cell_volume   4857.90700381
_cell_formula_units_Z   1
loop_
 _symmetry_equiv_pos_site_id
 _symmetry_equiv_pos_as_xyz
  1  'x, y, z'
loop_
 _atom_site_type_symbol
 _atom_site_label
 _atom_site_symmetry_multiplicity
 _atom_site_fract_x
 _atom_site_fract_y
 _atom_site_fract_z
 _atom_site_occupancy
  V  V0  1  0.62334632  0.49637693  0.62424947  1
  V  V1  1  0.61285853  -0.00110452  0.12553838  1
  V  V2  1  0.49284832  0.13800381  0.12418265  1
  V  V3  1  0.49478442  0.37449872  0.86974063  1
  V  V4  1  -0.00086644  0.87382549  0.37576762  1
  V  V5  1  -0.00143251  0.38163478  0.87617728  1
  V  V6  1  0.50357805  0.87571628  0.37703099  1
  V  V7  1  0.38381741  0.24105097  0.62274197  1
  V  V8  1  0.74362777  0.75154469  -0.00391977  1
  V  V9  1  0.11800691  0.00293619  0.12689278  1
  V  V10  1  0.25696114  0.35336814  0.12416067  1
  V  V11  1  0.00200348  0.25066476  0.75095909  1
  V  V12  1  0.37240331  -0.00223359  0.37420169  1
  V  V13  1  0.49914157  0.01376450  0.50169036  1
  V  V14  1  0.75010776  0.87788929  0.12503633  1
  V  V15  1  0.88344834  0.49238484  0.36724752  1
  V  V16  1  0.13303603  0.25394924  0.88520836  1
  V  V17  1  0.25490659  0.74997485  0.50939525  1
  V  V18  1  0.12663546  0.50160517  0.62370990  1
  V  V19  1  0.49104568  0.50143383  -0.00609643  1
  V  V20  1  0.87790342  0.12464061  0.24344919  1
  V  V21  1  0.75271207  0.74681872  0.50127598  1
  V  V22  1  0.63153616  0.11537543  -0.00435690  1
  V  V23  1  0.00351850  0.75109202  0.76000362  1
  V  V24  1  0.62206753  0.00755292  0.62540843  1
  V  V25  1  0.25278986  -0.00379515  0.24125876  1
  V  V26  1  0.50238755  0.62327874  0.12213508  1
  V  V27  1  0.12523712  0.62578750  0.49841035  1
  V  V28  1  0.00322141  0.49382493  0.48721116  1
  V  V29  1  0.25424825  0.37629949  0.62441236  1
  V  V30  1  0.11884097  0.25356320  0.38018166  1
  V  V31  1  0.62432066  0.62510120  0.50463715  1
  V  V32  1  0.87653275  0.74816243  0.63009939  1
  V  V33  1  0.25304275  0.62489595  0.37475844  1
  V  V34  1  0.24962780  0.12079125  0.87187422  1
  V  V35  1  0.25860148  0.50184066  0.76022489  1
  V  V36  1  0.63869773  0.24951378  0.87237791  1
  V  V37  1  0.87401569  0.00815146  0.87670898  1
  V  V38  1  0.75056133  0.62350403  0.37021365  1
  V  V39  1  -0.00160478  0.24936945  0.25353636  1
  V  V40  1  0.75233997  0.87746478  0.62523716  1
  V  V41  1  0.62863322  0.37387206  0.74456363  1
  V  V42  1  0.87527247  0.50992752  0.87083481  1
  V  V43  1  0.12948545  0.87412793  0.24501918  1
  V  V44  1  0.75204837  0.12963959  0.38043787  1
  V  V45  1  0.87247184  0.62591496  0.23852254  1
  V  V46  1  -0.00990843  0.62374503  0.62553269  1
  V  V47  1  0.25642981  0.63270669  0.87883291  1
  V  V48  1  0.25278716  0.49919947  0.24254880  1
  V  V49  1  0.49802055  0.87609324  0.87697959  1
  V  V50  1  -0.00230889  0.74754040  0.24356837  1
  V  V51  1  0.87457282  0.00105535  0.37534630  1
  V  V52  1  0.37970808  0.62864287  0.73488164  1
  V  V53  1  0.24456893  0.75489668  0.00667547  1
  V  V54  1  0.86585058  0.25772070  0.62279228  1
  V  V55  1  0.37701006  0.87756840  0.00962508  1
  V  V56  1  0.25037186  0.12457830  0.37312032  1
  V  V57  1  -0.00139966  0.12259058  0.63065904  1
  V  V58  1  0.62448951  0.87542485  0.75061583  1
  V  V59  1  0.12909739  0.37604117  0.75189874  1
  V  V60  1  0.50688431  0.37548548  0.35889210  1
  V  V61  1  0.74345715  0.48655776  0.24011823  1
  V  V62  1  0.13388215  -0.00441775  0.63157927  1
  V  V63  1  0.12703676  0.87472664  0.76648940  1
  V  V64  1  0.00023618  -0.00174087  0.50251254  1
  V  V65  1  0.24873098  0.25089545  0.50187241  1
  V  V66  1  0.37053951  -0.00378324  0.86878385  1
  V  V67  1  0.62816087  0.25560909  0.35777904  1
  V  V68  1  0.12346937  0.12373047  0.50287025  1
  V  V69  1  0.49563723  0.75097179  0.73482024  1
  V  V70  1  0.12569222  0.13247408  0.00628515  1
  V  V71  1  0.88490908  0.25424802  0.11573920  1
  V  V72  1  0.12630113  0.75054097  0.37550186  1
  V  V73  1  0.37800458  0.87134403  0.51226745  1
  V  V74  1  0.00308710  -0.00078095  -0.00431858  1
  V  V75  1  0.50098958  0.75040120  0.24930037  1
  V  V76  1  0.62562006  0.13740102  0.50074832  1
  V  V77  1  0.69985532  0.30673844  0.05803325  1
  V  V78  1  0.50090635  0.50273280  0.50128148  1
  V  V79  1  0.36664570  0.36235870  -0.00553335  1
  V  V80  1  0.12541962  0.37216609  0.25175817  1
  V  V81  1  0.37879329  0.49939808  0.37332168  1
  V  V82  1  0.75282653  0.50769256  0.74667653  1
  V  V83  1  0.87799992  0.87707525  -0.00534108  1
  V  V84  1  0.74974806  0.00697769  0.75565022  1
  Zn  Zn85  1  -0.00893549  0.52264390  0.01561518  1
  Zn  Zn86  1  0.62687833  0.87661467  0.25144878  1
  Zn  Zn87  1  0.37984285  0.37355043  0.49867238  1
  Zn  Zn88  1  0.87803402  0.74834067  0.11825533  1
  Zn  Zn89  1  0.74681007  0.62978761  0.86962921  1
  Zn  Zn90  1  0.62509900  0.61949832  -0.00437057  1
  Zn  Zn91  1  0.37556595  0.11686265  0.74500748  1
  Zn  Zn92  1  0.10829435  0.63579383  0.97315521  1
  Zn  Zn93  1  0.86989740  0.37886170  -0.00184850  1
  Zn  Zn94  1  0.62520618  0.48700440  0.12101961  1
  Zn  Zn95  1  0.74846344  -0.00061201  0.25107044  1
  Zn  Zn96  1  0.25307521  0.87305762  0.63570990  1
  Zn  Zn97  1  0.37311723  0.14091517  0.23389614  1
  Zn  Zn98  1  0.86987810  0.13112434  0.75755129  1
  Zn  Zn99  1  0.37866145  0.62537307  0.24818110  1
  Zn  Zn100  1  0.61996968  0.74624869  0.87164835  1
  Zn  Zn101  1  0.50206309  0.24040516  0.74903452  1
  Zn  Zn102  1  0.62713030  0.75064105  0.37502094  1
  Zn  Zn103  1  0.12230901  0.51086891  0.11447693  1
  Zn  Zn104  1  0.37254608  0.74999386  0.12763207  1
  Zn  Zn105  1  0.87454668  0.87387191  0.50045191  1
  Zn  Zn106  1  0.86979390  0.36554396  0.49303269  1
  Zn  Zn107  1  0.18610756  0.18337326  0.19001446  1
  Zn  Zn108  1  0.18938000  0.18724885  0.69124182  1
  Zn  Zn109  1  0.18624872  0.68221588  0.18519650  1
  Zn  Zn110  1  0.18390897  0.68645341  0.69144894  1
  Zn  Zn111  1  0.68924678  0.17654700  0.18796368  1
  Zn  Zn112  1  0.68638701  0.18712995  0.68791666  1
  Zn  Zn113  1  0.68419206  0.68946812  0.18334042  1
  Zn  Zn114  1  0.68347716  0.68691106  0.68577728  1
  Zn  Zn115  1  0.31436553  0.31330003  0.31293283  1
  Zn  Zn116  1  0.31397372  0.30852928  0.81101733  1
  Zn  Zn117  1  0.31511111  0.81261703  0.31595025  1
  Zn  Zn118  1  0.31255705  0.80893169  0.81444161  1
  Zn  Zn119  1  0.81175930  0.31143917  0.31122986  1
  Zn  Zn120  1  0.81337234  0.32059665  0.80737411  1
  Zn  Zn121  1  0.81222414  0.81212775  0.31164249  1
  Zn  Zn122  1  0.81489425  0.81662545  0.81328699  1
  Zn  Zn123  1  0.19004351  0.43711254  0.43451024  1
  Zn  Zn124  1  0.18570568  0.44592745  0.94269336  1
  Zn  Zn125  1  0.18842830  0.93509533  0.43904256  1
  Zn  Zn126  1  0.19145908  0.93793963  0.94136663  1
  Zn  Zn127  1  0.69186508  0.43394108  0.43140647  1
  Zn  Zn128  1  0.68019041  0.44464377  0.92828597  1
  Zn  Zn129  1  0.68846474  0.94082926  0.44078488  1
  Zn  Zn130  1  0.68724634  0.93710609  0.93624151  1
  Zn  Zn131  1  0.30862035  0.06218463  0.05663307  1
  Zn  Zn132  1  0.31118748  0.06146994  0.55855101  1
  Zn  Zn133  1  0.31662326  0.56212384  0.06066961  1
  Zn  Zn134  1  0.31410570  0.56136299  0.56202605  1
  Zn  Zn135  1  0.81038985  0.06388486  0.06389601  1
  Zn  Zn136  1  0.81326967  0.06581618  0.56410761  1
  Zn  Zn137  1  0.80936925  0.56232625  0.05813172  1
  Zn  Zn138  1  0.79723891  0.52640359  0.54255567  1
  Zn  Zn139  1  0.43567543  0.43651599  0.17996141  1
  Zn  Zn140  1  0.43901185  0.43748351  0.68674065  1
  Zn  Zn141  1  0.43920175  0.93964262  0.18945668  1
  Zn  Zn142  1  0.44057887  0.94151697  0.68877246  1
  Zn  Zn143  1  0.93857393  0.43389227  0.18671687  1
  Zn  Zn144  1  0.93869516  0.43928661  0.68739177  1
  Zn  Zn145  1  0.93810405  0.93675235  0.18537778  1
  Zn  Zn146  1  0.93932333  0.93422567  0.69283422  1
  Zn  Zn147  1  0.06132884  0.06462622  0.31253482  1
  Zn  Zn148  1  0.06376970  0.06111269  0.81646841  1
  Zn  Zn149  1  0.07120559  0.56987047  0.28966153  1
  Zn  Zn150  1  0.06627397  0.56564850  0.80902243  1
  Zn  Zn151  1  0.56139930  0.06587455  0.30949844  1
  Zn  Zn152  1  0.55584308  0.06251539  0.81542358  1
  Zn  Zn153  1  0.56695180  0.56271590  0.30956458  1
  Zn  Zn154  1  0.55901660  0.56337916  0.81285704  1
  Zn  Zn155  1  0.42815893  0.19951087  0.41007128  1
  Zn  Zn156  1  0.44367380  0.18306753  0.93437793  1
  Zn  Zn157  1  0.43900945  0.68744712  0.43863933  1
  Zn  Zn158  1  0.43346436  0.69077577  0.93292219  1
  Zn  Zn159  1  0.93750555  0.18668829  0.43990764  1
  Zn  Zn160  1  0.94628876  0.18558001  0.93822892  1
  Zn  Zn161  1  0.93548580  0.68182998  0.43623614  1
  Zn  Zn162  1  0.92915575  0.68786179  0.93681356  1
  Zn  Zn163  1  0.05261608  0.33917945  0.07346059  1
  Zn  Zn164  1  0.05907527  0.31566660  0.56473158  1
  Zn  Zn165  1  0.06277183  0.81358537  0.06067843  1
  Zn  Zn166  1  0.06457589  0.81248161  0.56559553  1
  Zn  Zn167  1  0.53710677  0.30553858  0.05677363  1
  Zn  Zn168  1  0.56174681  0.31830754  0.55634490  1
  Zn  Zn169  1  0.56077274  0.81339208  0.06308046  1
  Zn  Zn170  1  0.56697876  0.81687039  0.56070598  1
  O  O171  1  0.12787683  0.11645670  0.11872102  1
  O  O172  1  0.11584291  0.11868520  0.62555847  1
  O  O173  1  0.11209644  0.60098266  0.18150305  1
  O  O174  1  0.12031798  0.61873318  0.61731591  1
  O  O175  1  0.61720354  0.11807094  0.11766326  1
  O  O176  1  0.63005550  0.11560398  0.61612952  1
  O  O177  1  0.61204330  0.62546604  0.11823469  1
  O  O178  1  0.62521053  0.61903729  0.61028182  1
  O  O179  1  0.38368219  0.38755000  0.37751345  1
  O  O180  1  0.37914017  0.37188237  0.88270224  1
  O  O181  1  0.38402097  0.88311371  0.38454088  1
  O  O182  1  0.37801461  0.87847769  0.88212977  1
  O  O183  1  0.87650994  0.38834635  0.37145654  1
  O  O184  1  0.88271721  0.38585512  0.87239754  1
  O  O185  1  0.88339677  0.88033736  0.37663846  1
  O  O186  1  0.87164662  0.88820269  0.88821962  1
  O  O187  1  0.25439091  0.00079585  0.36667379  1
  O  O188  1  0.25584393  0.00844745  0.87774721  1
  O  O189  1  0.26169513  0.50335173  0.36956697  1
  O  O190  1  0.25148733  0.50729233  0.86361087  1
  O  O191  1  0.75737077  0.00780112  0.37413263  1
  O  O192  1  0.75819460  -0.00267000  0.86672399  1
  O  O193  1  0.75849029  0.50762247  0.35698770  1
  O  O194  1  0.75698686  0.50190748  0.86488453  1
  O  O195  1  0.24982452  0.49817741  0.13632509  1
  O  O196  1  0.24719459  0.49218420  0.62979488  1
  O  O197  1  0.24070735  1.00317027  0.13666732  1
  O  O198  1  0.23668455  1.00010436  0.62372073  1
  O  O199  1  0.74728981  0.50200796  0.13528591  1
  O  O200  1  0.73225661  0.50611116  0.63416605  1
  O  O201  1  0.74152044  0.99064913  0.12537689  1
  O  O202  1  0.74473715  0.99614402  0.63017247  1
  O  O203  1  0.01236981  0.36052891  0.24990620  1
  O  O204  1  0.00812741  0.36910223  0.75576574  1
  O  O205  1  0.00548408  0.87123182  0.26058692  1
  O  O206  1  0.01104136  0.86074685  0.74596991  1
  O  O207  1  0.49779573  0.38111912  0.25959034  1
  O  O208  1  0.50698803  0.37092544  0.75490348  1
  O  O209  1  0.50096111  0.86956298  0.26009062  1
  O  O210  1  0.50394626  0.86932511  0.75517582  1
  O  O211  1  0.49588522  0.11327979  0.22847583  1
  O  O212  1  0.48889331  0.12775139  0.75608662  1
  O  O213  1  0.50132318  0.63241339  0.24297212  1
  O  O214  1  0.48668074  0.63355426  0.75211113  1
  O  O215  1  0.99201457  0.13707899  0.25406429  1
  O  O216  1  1.00006035  0.13270009  0.74599759  1
  O  O217  1  0.98195820  0.63976965  0.26398017  1
  O  O218  1  1.00924308  0.63924165  0.73724708  1
  O  O219  1  0.37796173  0.26365651  -0.00530821  1
  O  O220  1  0.36771384  0.25156727  0.50647746  1
  O  O221  1  0.36552174  0.76090004  0.00225949  1
  O  O222  1  0.36815856  0.75911472  0.49486063  1
  O  O223  1  0.88080734  0.24575841  0.01334751  1
  O  O224  1  0.88236546  0.25097979  0.51620121  1
  O  O225  1  0.86314173  0.76160018  -0.00041196  1
  O  O226  1  0.87029875  0.74864884  0.51103630  1
  O  O227  1  0.12524880  0.24506107  0.49709112  1
  O  O228  1  0.11380611  0.24580095  0.99261786  1
  O  O229  1  0.13300120  0.74693004  0.49358395  1
  O  O230  1  0.13917032  0.74954672  1.00345296  1
  O  O231  1  0.62567792  0.23928849  0.50099286  1
  O  O232  1  0.63184181  0.24898004  0.99802470  1
  O  O233  1  0.63267536  0.74209122  0.49880615  1
  O  O234  1  0.63528708  0.75462453  0.99643696  1
  O  O235  1  0.49415276  0.23703461  0.13443446  1
  O  O236  1  0.48491435  0.25505479  0.61917804  1
  O  O237  1  0.49812379  0.74419522  0.13308512  1
  O  O238  1  0.50236615  0.75847610  0.63516364  1
  O  O239  1  0.99025904  0.25259893  0.13305772  1
  O  O240  1  1.00023610  0.24297379  0.63682967  1
  O  O241  1  0.99799413  0.75952171  0.14047040  1
  O  O242  1  0.99325399  0.74369265  0.62712309  1
  O  O243  1  0.00823162  0.24539259  0.36956076  1
  O  O244  1  0.00727713  0.25516215  0.86319804  1
  O  O245  1  0.00351473  0.75808013  0.37018985  1
  O  O246  1  -0.00693487  0.74637819  0.85789935  1
  O  O247  1  0.52172113  0.26227001  0.38319794  1
  O  O248  1  0.50942842  0.26167697  0.87559612  1
  O  O249  1  0.50224317  0.75894424  0.36996182  1
  O  O250  1  0.49760088  0.76210699  0.86495378  1
  O  O251  1  0.24001044  0.13016577  0.49601623  1
  O  O252  1  0.23428392  0.12228591  0.99078364  1
  O  O253  1  0.24689480  0.63044908  0.49413806  1
  O  O254  1  0.25489012  0.63339385  0.98954833  1
  O  O255  1  0.74222854  0.12028441  0.48771572  1
  O  O256  1  0.73100525  0.12589542  1.00646711  1
  O  O257  1  0.74386660  0.62461167  0.49045499  1
  O  O258  1  0.74742918  0.63794227  0.99752494  1
  O  O259  1  0.25974028  0.37927535  0.00695589  1
  O  O260  1  0.25166734  0.37006148  0.50869259  1
  O  O261  1  0.25770042  0.86114853  -0.00075713  1
  O  O262  1  0.26020587  0.86684565  0.50115000  1
  O  O263  1  0.74939270  0.37161440  -0.00371841  1
  O  O264  1  0.77047709  0.41721071  0.50556766  1
  O  O265  1  0.75571054  0.87258716  0.00638522  1
  O  O266  1  0.75068951  0.86733065  0.50754321  1
  O  O267  1  0.14101783  0.47657676  0.27063661  1
  O  O268  1  0.13609956  0.49440796  0.74257603  1
  O  O269  1  0.12950160  0.99514593  0.24565838  1
  O  O270  1  0.11626841  0.98436592  0.74485055  1
  O  O271  1  0.63923651  0.49979970  0.24399936  1
  O  O272  1  0.62486028  0.49393707  0.74142339  1
  O  O273  1  0.62747338  0.99860697  0.24034678  1
  O  O274  1  0.63015309  0.99748306  0.74395532  1
  O  O275  1  0.36672949  -0.00198524  0.25890910  1
  O  O276  1  0.37190607  -0.00394508  0.76326861  1
  O  O277  1  0.36791190  0.49921452  0.25582627  1
  O  O278  1  0.36948807  0.51310933  0.74268729  1
  O  O279  1  0.87735524  0.00937364  0.25548702  1
  O  O280  1  0.86895629  0.00013781  0.75957101  1
  O  O281  1  0.87163762  0.50652566  0.24959563  1
  O  O282  1  0.86245371  0.49418879  0.75327862  1
  O  O283  1  0.13077679  0.35926175  0.37153327  1
  O  O284  1  0.12140288  0.37162042  0.87147341  1
  O  O285  1  0.11770779  0.87175511  0.36746378  1
  O  O286  1  0.12452423  0.87969189  0.86520072  1
  O  O287  1  0.62395818  0.36447867  0.37275846  1
  O  O288  1  0.61713565  0.36663555  0.86631454  1
  O  O289  1  0.61356243  0.87671628  0.37728416  1
  O  O290  1  0.61510959  0.87586722  0.86780042  1
  O  O291  1  0.38769717  0.11822937  0.11869565  1
  O  O292  1  0.36796987  0.13782720  0.62299397  1
  O  O293  1  0.38843019  0.62619930  0.12729887  1
  O  O294  1  0.37248964  0.62727552  0.63556166  1
  O  O295  1  0.86881229  0.13592086  0.13724763  1
  O  O296  1  0.88761212  0.13258535  0.62851328  1
  O  O297  1  0.87074577  0.62764337  0.13497322  1
  O  O298  1  0.88753432  0.63028132  0.62069622  1
  O  O299  1  0.25715887  0.25403611  0.13349375  1
  O  O300  1  0.25430348  0.25733638  0.62006638  1
  O  O301  1  0.25335584  0.73954099  0.11193590  1
  O  O302  1  0.24426073  0.74963608  0.61175303  1
  O  O303  1  0.75662919  0.24991435  0.12325733  1
  O  O304  1  0.76764012  0.24566483  0.63037632  1
  O  O305  1  0.74947448  0.76287260  0.11697627  1
  O  O306  1  0.75839046  0.75397595  0.62278214  1
  O  O307  1  0.23830759  0.24562924  0.38606745  1
  O  O308  1  0.23792304  0.24614307  0.87349191  1
  O  O309  1  0.24686490  0.74418282  0.38305505  1
  O  O310  1  0.25380850  0.74095681  0.88926273  1
  O  O311  1  0.73970534  0.24524714  0.37457486  1
  O  O312  1  0.73840055  0.25320077  0.86673820  1
  O  O313  1  0.75013955  0.74206362  0.38183825  1
  O  O314  1  0.74772238  0.75227252  0.88105463  1
  O  O315  1  0.01562915  0.11445136  -0.00219138  1
  O  O316  1  0.00566323  0.11899143  0.50986346  1
  O  O317  1  -0.00014966  0.63542357  0.00385671  1
  O  O318  1  0.00935047  0.62026656  0.50560929  1
  O  O319  1  0.51458209  0.13345270  0.01390314  1
  O  O320  1  0.50705419  0.11591716  0.48890781  1
  O  O321  1  0.49618992  0.61872738  0.00301198  1
  O  O322  1  0.51008399  0.61305324  0.49045445  1
  O  O323  1  0.50112984  0.38938244  0.48733856  1
  O  O324  1  0.48593422  0.38028040  0.99085575  1
  O  O325  1  0.49521316  0.88262567  0.49389504  1
  O  O326  1  0.48492487  0.86777395  0.99247674  1
  O  O327  1  0.99650680  0.39093001  0.50232117  1
  O  O328  1  0.99417230  0.36710207  0.97842395  1
  O  O329  1  1.00126034  0.87818387  0.48933426  1
  O  O330  1  0.99084927  0.88472463  1.00545514  1
  O  O331  1  0.49700658  0.49587451  0.37685513  1
  O  O332  1  0.50308711  0.48461534  0.87934850  1
  O  O333  1  0.49318389  0.99462392  0.38005453  1
  O  O334  1  0.48968349  0.98444131  0.87423716  1
  O  O335  1  0.99671284  0.50852617  0.37584404  1
  O  O336  1  0.99275176  0.49505156  0.86594591  1
  O  O337  1  0.99630222  0.99322878  0.38053387  1
  O  O338  1  0.99368695  1.00104339  0.88777186  1
  O  O339  1  0.01173382  -0.00163065  0.11892929  1
  O  O340  1  0.00484343  0.00653627  0.62307009  1
  O  O341  1  0.01453566  0.45736906  0.10788634  1
  O  O342  1  0.00618454  0.50734849  0.61795505  1
  O  O343  1  0.51073685  -0.00179718  0.12050725  1
  O  O344  1  0.51004588  -0.00226179  0.61465506  1
  O  O345  1  0.50393139  0.50585463  0.11639970  1
  O  O346  1  0.50954686  0.49704918  0.61411965  1
  O  O347  1  0.25141244  0.37775637  0.24237184  1
  O  O348  1  0.25006774  0.38353645  0.74446943  1
  O  O349  1  0.24072964  0.88230327  0.25762414  1
  O  O350  1  0.23283972  0.86410987  0.75092041  1
  O  O351  1  0.75366476  0.38839911  0.24801959  1
  O  O352  1  0.73441193  0.38669323  0.75221634  1
  O  O353  1  0.74869860  0.87719310  0.24078329  1
  O  O354  1  0.74494220  0.88488808  0.74404345  1
  O  O355  1  0.25391358  0.11442015  0.25665451  1
  O  O356  1  0.25452012  0.12935290  0.76588764  1
  O  O357  1  0.25796413  0.61600141  0.25916486  1
  O  O358  1  0.26061735  0.62174515  0.75283539  1
  O  O359  1  0.75958896  0.12226134  0.26179284  1
  O  O360  1  0.75203335  0.11116153  0.74590721  1
  O  O361  1  0.75480324  0.62414975  0.25395132  1
  O  O362  1  0.74252810  0.61232726  0.74985095  1
  O  O363  1  0.36433564  0.10229235  0.39456900  1
  O  O364  1  0.36641104  0.11343951  0.88370007  1
  O  O365  1  0.37309975  0.61368008  0.37387568  1
  O  O366  1  0.36176255  0.62713601  0.86239225  1
  O  O367  1  0.86840620  0.12364364  0.36903314  1
  O  O368  1  0.87928900  0.11378126  0.87595328  1
  O  O369  1  0.86310892  0.61962099  0.36507042  1
  O  O370  1  0.87031418  0.61346826  0.87010005  1
  O  O371  1  0.14295492  0.37130498  0.13840609  1
  O  O372  1  0.13594131  0.37925584  0.63018044  1
  O  O373  1  0.12246048  0.88267097  0.13893588  1
  O  O374  1  0.12796282  0.88333612  0.63084794  1
  O  O375  1  0.63149731  0.36104456  0.11057399  1
  O  O376  1  0.62007702  0.38228329  0.63218419  1
  O  O377  1  0.63095690  0.88304974  0.12466116  1
  O  O378  1  0.63208567  0.88827745  0.62901446  1
  O  O379  1  0.12008476  0.25265061  0.25949291  1
  O  O380  1  0.12013518  0.25762842  0.75701977  1
  O  O381  1  0.11923323  0.75872996  0.25612818  1
  O  O382  1  0.11309283  0.76081370  0.74654995  1
  O  O383  1  0.62745617  0.24514878  0.25990052  1
  O  O384  1  0.62296052  0.25580228  0.75440412  1
  O  O385  1  0.61376183  0.75388561  0.25343996  1
  O  O386  1  0.61678661  0.75869673  0.74837614  1
  O  O387  1  0.38061265  0.22629217  0.30495009  1
  O  O388  1  0.37516622  0.25054707  0.73151340  1
  O  O389  1  0.38754649  0.75039881  0.25004959  1
  O  O390  1  0.38029077  0.73942346  0.74848860  1
  O  O391  1  0.88190796  0.24556771  0.24400272  1
  O  O392  1  0.88420679  0.24990895  0.74293157  1
  O  O393  1  0.88065605  0.74457394  0.24639659  1
  O  O394  1  0.88602427  0.75716578  0.73797438  1
  O  O395  1  0.38377387  0.50014203  0.49215359  1
  O  O396  1  0.38586692  0.49075301  1.00010878  1
  O  O397  1  0.38249341  0.99059397  0.49771042  1
  O  O398  1  0.36441680  0.98153426  0.99151528  1
  O  O399  1  0.89285111  0.51605132  0.47967243  1
  O  O400  1  0.87650694  0.49798530  0.98868285  1
  O  O401  1  0.88314622  0.99953583  0.49477158  1
  O  O402  1  0.88225267  0.99916475  0.99727231  1
  O  O403  1  0.12007452  0.00276384  0.00882075  1
  O  O404  1  0.11933225  0.00339871  0.50883889  1
  O  O405  1  0.12090898  0.51902556  -0.00119331  1
  O  O406  1  0.12120868  0.50498742  0.50160907  1
  O  O407  1  0.62559019  0.01019485  0.00446898  1
  O  O408  1  0.61829471  0.00989906  0.50637184  1
  O  O409  1  0.60961117  0.49802334  0.00196771  1
  O  O410  1  0.61961080  0.50565146  0.50400992  1
  O  O411  1  0.36813951  0.37589618  0.10922350  1
  O  O412  1  0.36569887  0.36838076  0.62170232  1
  O  O413  1  0.37856275  0.87476006  0.11279523  1
  O  O414  1  0.37190938  0.88053343  0.61566686  1
  O  O415  1  0.87216579  0.35747621  0.12097610  1
  O  O416  1  0.88236691  0.35952068  0.62607343  1
  O  O417  1  0.86666197  0.87735830  0.11444949  1
  O  O418  1  0.87025778  0.86746104  0.62279127  1
  O  O419  1  0.13035876  0.13184851  0.38113731  1
  O  O420  1  0.13064134  0.13349654  0.88120278  1
  O  O421  1  0.13327387  0.63186055  0.37820355  1
  O  O422  1  0.14922489  0.62592591  0.86287538  1
  O  O423  1  0.63121416  0.13528238  0.37889504  1
  O  O424  1  0.61782885  0.13323919  0.88995963  1
  O  O425  1  0.63717684  0.62423448  0.38158496  1
  O  O426  1  0.62592032  0.62847790  0.87790138  1
