# generated using pymatgen
data_V85Zn86O256
_symmetry_space_group_name_H-M   'P 1'
_cell_length_a   16.92710348
_cell_length_b   16.93930293
_cell_length_c   16.93686921
_cell_angle_alpha   90.01852230
_cell_angle_beta   89.97652004
_cell_angle_gamma   89.99940535
_symmetry_Int_Tables_number   1
_chemical_formula_structural   V85Zn86O256
_chemical_formula_sum   'V85 Zn86 O256'
_cell_volume   4856.36430588
_cell_formula_units_Z   1
loop_
 _symmetry_equiv_pos_site_id
 _symmetry_equiv_pos_as_xyz
  1  'x, y, z'
loop_
 _atom_site_type_symbol
 _atom_site_label
 _atom_site_symmetry_multiplicity
 _atom_site_fract_x
 _atom_site_fract_y
 _atom_site_fract_z
 _atom_site_occupancy
  V  V0  1  0.37539922  -0.00684781  0.87812543  1
  V  V1  1  0.87135308  -0.00607216  0.87675606  1
  V  V2  1  0.50760587  0.50604011  -0.00050908  1
  V  V3  1  0.61360514  0.63034929  0.50347713  1
  V  V4  1  0.87078922  0.24715185  0.62144404  1
  V  V5  1  0.87332985  0.12355683  0.75052689  1
  V  V6  1  0.50200857  0.00075099  0.01089464  1
  V  V7  1  0.25078199  0.24901432  -0.00045796  1
  V  V8  1  0.61995711  0.24054976  0.87694478  1
  V  V9  1  0.37879961  0.74819164  0.12754585  1
  V  V10  1  0.75101359  0.50245001  0.24785119  1
  V  V11  1  0.00377884  0.00023438  0.49794716  1
  V  V12  1  0.37222740  0.12381332  0.74281479  1
  V  V13  1  0.49583154  0.24877725  0.74031482  1
  V  V14  1  0.49927534  0.26250552  0.27112283  1
  V  V15  1  0.75004181  0.62837448  0.37711642  1
  V  V16  1  0.61612419  0.00081181  0.61355912  1
  V  V17  1  0.12365189  0.12461661  0.49907577  1
  V  V18  1  0.12627381  -0.00136147  0.62246070  1
  V  V19  1  0.43374116  0.93878628  0.40841027  1
  V  V20  1  0.39031653  0.75058097  0.61818699  1
  V  V21  1  0.74698953  0.87383632  0.62357385  1
  V  V22  1  0.12011176  0.25584698  0.37929969  1
  V  V23  1  0.25247178  0.50103595  0.74925907  1
  V  V24  1  0.26427528  0.87773616  0.12042386  1
  V  V25  1  0.12278457  0.87518142  0.75065705  1
  V  V26  1  0.50831125  0.62881817  0.12980856  1
  V  V27  1  0.00587194  0.49788849  0.49420117  1
  V  V28  1  -0.00963517  0.37388804  0.87619628  1
  V  V29  1  0.00260741  0.62281324  0.61948976  1
  V  V30  1  0.86785498  -0.00354151  0.36995678  1
  V  V31  1  0.00608467  0.75079929  0.25176904  1
  V  V32  1  0.26131783  0.36994829  0.62565757  1
  V  V33  1  0.25958565  0.24738849  0.50532780  1
  V  V34  1  0.37573500  0.37691244  -0.00186995  1
  V  V35  1  0.87732902  0.87310928  0.49775378  1
  V  V36  1  0.38920865  0.25240233  0.12213367  1
  V  V37  1  0.62081818  0.38264188  0.25480900  1
  V  V38  1  0.25964562  0.00534981  0.24837341  1
  V  V39  1  0.12248446  0.37535472  0.25195962  1
  V  V40  1  -0.00085548  0.12472389  0.12452911  1
  V  V41  1  0.25661284  0.75539670  -0.00279121  1
  V  V42  1  0.23613979  0.74147491  0.50149286  1
  V  V43  1  0.74851603  0.25165420  0.00234841  1
  V  V44  1  0.87397512  0.74741079  0.62518730  1
  V  V45  1  0.12807401  0.50000173  0.61905342  1
  V  V46  1  0.74760647  0.74940177  0.49655263  1
  V  V47  1  0.25258736  0.62572905  0.87194282  1
  V  V48  1  0.87895285  0.49841556  0.37613046  1
  V  V49  1  0.86903132  0.61823005  0.75610891  1
  V  V50  1  0.87824075  0.63273445  0.24902779  1
  V  V51  1  0.50382044  0.86757008  0.87560727  1
  V  V52  1  0.74490957  0.12168813  0.88067775  1
  V  V53  1  0.12580811  0.50256550  0.12326656  1
  V  V54  1  -0.00214521  -0.00383295  -0.00051263  1
  V  V55  1  0.24944507  0.37783894  0.12347591  1
  V  V56  1  0.60743771  0.75867922  0.36389578  1
  V  V57  1  0.39088083  0.63200335  0.74605791  1
  V  V58  1  0.62998103  0.73661116  0.87300522  1
  V  V59  1  0.00023534  0.25266071  0.25295889  1
  V  V60  1  0.87550619  0.25881809  0.12023736  1
  V  V61  1  0.86802640  0.12157669  0.24859150  1
  V  V62  1  0.12762094  -0.00185035  0.12394537  1
  V  V63  1  0.12518807  0.12386741  -0.00253958  1
  V  V64  1  0.49940359  0.37252266  0.87496825  1
  V  V65  1  0.12426565  0.37300979  0.75140103  1
  V  V66  1  0.74572382  0.37237921  0.62239315  1
  V  V67  1  0.74367304  0.74125390  0.00622215  1
  V  V68  1  0.62060262  0.50277775  0.62630729  1
  V  V69  1  0.23870428  0.62924333  0.38038757  1
  V  V70  1  0.74282062  -0.00561273  0.75214290  1
  V  V71  1  0.25238198  0.12664317  0.37373213  1
  V  V72  1  0.87658468  0.37146633  0.49745831  1
  V  V73  1  0.72984619  0.88388707  0.13553175  1
  V  V74  1  -0.00463587  0.49702220  -0.00069280  1
  V  V75  1  0.38066830  0.13230176  0.24734607  1
  V  V76  1  0.13419401  0.87051813  0.25181914  1
  V  V77  1  0.12604433  0.74886699  0.87362415  1
  V  V78  1  0.25344776  0.86907551  0.62361323  1
  V  V79  1  0.87089733  0.86795444  0.01267266  1
  V  V80  1  -0.00136118  0.74726949  0.74975324  1
  V  V81  1  0.25330417  0.50394009  0.25187271  1
  V  V82  1  0.49995484  0.49230204  0.49329107  1
  V  V83  1  0.01216288  0.87000624  0.37571846  1
  V  V84  1  0.00068665  0.63285147  0.12314653  1
  Zn  Zn85  1  0.38579471  0.36053960  0.49310137  1
  Zn  Zn86  1  -0.00156249  0.24845283  0.75132684  1
  Zn  Zn87  1  0.75053593  0.13063075  0.38010007  1
  Zn  Zn88  1  0.61757533  0.11775706  0.04084824  1
  Zn  Zn89  1  0.62477126  0.37284369  0.74883347  1
  Zn  Zn90  1  0.37905678  0.63142093  0.25752459  1
  Zn  Zn91  1  -0.00510393  0.87067710  0.87622708  1
  Zn  Zn92  1  0.25175709  0.12235566  0.87402088  1
  Zn  Zn93  1  0.49106815  0.12017606  0.61832048  1
  Zn  Zn94  1  0.12344261  0.24957934  0.87445459  1
  Zn  Zn95  1  0.86332072  0.49881557  0.88519077  1
  Zn  Zn96  1  0.37828765  0.50265612  0.87287007  1
  Zn  Zn97  1  0.62917171  0.14020348  0.49568100  1
  Zn  Zn98  1  0.61657651  0.86517203  0.74524985  1
  Zn  Zn99  1  0.75151876  0.37996891  0.12044912  1
  Zn  Zn100  1  0.74473982  0.49943868  0.75585891  1
  Zn  Zn101  1  -0.00076030  0.12544244  0.62548399  1
  Zn  Zn102  1  0.12612567  0.62573065  -0.00225263  1
  Zn  Zn103  1  0.63039594  0.50477440  0.12028442  1
  Zn  Zn104  1  0.37696691  0.49999372  0.37706741  1
  Zn  Zn105  1  0.64622702  0.25893463  0.38431454  1
  Zn  Zn106  1  0.25059211  -0.00047977  0.74898238  1
  Zn  Zn107  1  0.18804448  0.19038690  0.18359460  1
  Zn  Zn108  1  0.18762475  0.18585204  0.68781013  1
  Zn  Zn109  1  0.19185956  0.68860857  0.18750832  1
  Zn  Zn110  1  0.18821186  0.68539073  0.68673055  1
  Zn  Zn111  1  0.68604118  0.19156277  0.19585343  1
  Zn  Zn112  1  0.68704866  0.18629812  0.68691542  1
  Zn  Zn113  1  0.68912884  0.69390405  0.18628376  1
  Zn  Zn114  1  0.68428404  0.68690962  0.68745558  1
  Zn  Zn115  1  0.31222238  0.31623046  0.31601964  1
  Zn  Zn116  1  0.31354952  0.30898022  0.81268897  1
  Zn  Zn117  1  0.34497962  0.83047289  0.30565652  1
  Zn  Zn118  1  0.31729848  0.81273509  0.80756478  1
  Zn  Zn119  1  0.81694890  0.31886152  0.30805684  1
  Zn  Zn120  1  0.80808466  0.31147198  0.81057901  1
  Zn  Zn121  1  0.81246109  0.81372970  0.31043989  1
  Zn  Zn122  1  0.80861346  0.80866557  0.81538845  1
  Zn  Zn123  1  0.19772173  0.43344030  0.43633687  1
  Zn  Zn124  1  0.18464460  0.43948399  0.93544677  1
  Zn  Zn125  1  0.22149483  0.92289991  0.42395828  1
  Zn  Zn126  1  0.18971044  0.93642161  0.93584469  1
  Zn  Zn127  1  0.69033720  0.43776343  0.44016042  1
  Zn  Zn128  1  0.68654067  0.43397146  0.93396469  1
  Zn  Zn129  1  0.68478563  0.93765607  0.43334877  1
  Zn  Zn130  1  0.68159190  0.93363665  0.94523900  1
  Zn  Zn131  1  0.31999102  0.06450634  0.06283377  1
  Zn  Zn132  1  0.31514437  0.05176118  0.55589367  1
  Zn  Zn133  1  0.31858506  0.56553029  0.06003038  1
  Zn  Zn134  1  0.31696160  0.56624586  0.56475046  1
  Zn  Zn135  1  0.80768053  0.06188790  0.06538512  1
  Zn  Zn136  1  0.81026202  0.06081129  0.56103326  1
  Zn  Zn137  1  0.81733036  0.56603954  0.06554818  1
  Zn  Zn138  1  0.80970196  0.56059809  0.56459719  1
  Zn  Zn139  1  0.43821154  0.44101144  0.18499889  1
  Zn  Zn140  1  0.44073777  0.44123280  0.68601467  1
  Zn  Zn141  1  0.48302816  0.95413832  0.22058737  1
  Zn  Zn142  1  0.43672431  0.93271387  0.69160799  1
  Zn  Zn143  1  0.93916255  0.43976649  0.18743281  1
  Zn  Zn144  1  0.93827308  0.43573592  0.68525379  1
  Zn  Zn145  1  0.93957467  0.93573372  0.18832982  1
  Zn  Zn146  1  0.93574355  0.93709559  0.68645979  1
  Zn  Zn147  1  0.06446928  0.06170097  0.31161655  1
  Zn  Zn148  1  0.06021178  0.05915059  0.81423928  1
  Zn  Zn149  1  0.06625870  0.56344252  0.31298116  1
  Zn  Zn150  1  0.06105013  0.55991125  0.81075647  1
  Zn  Zn151  1  0.57842215  0.07770503  0.29483615  1
  Zn  Zn152  1  0.55695274  0.05918787  0.80994105  1
  Zn  Zn153  1  0.56499313  0.56980324  0.31424411  1
  Zn  Zn154  1  0.56539904  0.55933521  0.81408304  1
  Zn  Zn155  1  0.44707466  0.10688908  0.43573692  1
  Zn  Zn156  1  0.43801554  0.17911328  0.93584876  1
  Zn  Zn157  1  0.43121932  0.68423806  0.43882241  1
  Zn  Zn158  1  0.43932599  0.68792294  0.93997087  1
  Zn  Zn159  1  0.93289365  0.18694504  0.43498800  1
  Zn  Zn160  1  0.93558856  0.18705908  0.93624158  1
  Zn  Zn161  1  0.94170809  0.68724796  0.43717796  1
  Zn  Zn162  1  0.93557723  0.68851976  0.93865470  1
  Zn  Zn163  1  0.06188412  0.31369377  0.06108561  1
  Zn  Zn164  1  0.05931262  0.31318453  0.56530060  1
  Zn  Zn165  1  0.06780216  0.81267221  0.06216394  1
  Zn  Zn166  1  0.06498785  0.81113448  0.56330792  1
  Zn  Zn167  1  0.57068359  0.31795444  0.06247684  1
  Zn  Zn168  1  0.56304776  0.30572888  0.55548177  1
  Zn  Zn169  1  0.55991362  0.81484524  0.05784534  1
  Zn  Zn170  1  0.55812713  0.82691656  0.54205049  1
  O  O171  1  0.12134455  0.12030306  0.11381273  1
  O  O172  1  0.12155314  0.11654854  0.61930497  1
  O  O173  1  0.11989009  0.61796318  0.12457872  1
  O  O174  1  0.11768352  0.60868842  0.63272965  1
  O  O175  1  0.61614980  0.11725037  0.15289923  1
  O  O176  1  0.62901520  0.10511497  0.62940135  1
  O  O177  1  0.61196764  0.62691769  0.12624213  1
  O  O178  1  0.63160317  0.61646796  0.61499275  1
  O  O179  1  0.35165877  0.38952413  0.38853620  1
  O  O180  1  0.38450230  0.37521486  0.87974271  1
  O  O181  1  0.33241244  0.89263246  0.39812849  1
  O  O182  1  0.38378964  0.88429310  0.87065345  1
  O  O183  1  0.87553441  0.39077745  0.38103176  1
  O  O184  1  0.88717207  0.37574293  0.86781374  1
  O  O185  1  0.88760617  0.87897932  0.37833749  1
  O  O186  1  0.87262427  0.88040290  0.88356250  1
  O  O187  1  0.23768599  0.01937075  0.36031616  1
  O  O188  1  0.26236456  -0.00243430  0.87196689  1
  O  O189  1  0.24389470  0.51315214  0.36734798  1
  O  O190  1  0.25333858  0.50861308  0.86856863  1
  O  O191  1  0.76604109  -0.00857049  0.37177708  1
  O  O192  1  0.75082213  -0.00000495  0.87020601  1
  O  O193  1  0.75990463  0.50913116  0.36949964  1
  O  O194  1  0.75235313  0.49341460  0.86934972  1
  O  O195  1  0.24453354  0.49976283  0.12953370  1
  O  O196  1  0.24442415  0.49412253  0.62838700  1
  O  O197  1  0.24835377  0.99511464  0.12712462  1
  O  O198  1  0.24531081  0.98624991  0.62359806  1
  O  O199  1  0.75104138  0.50195012  0.13274118  1
  O  O200  1  0.73966039  0.49164287  0.62687867  1
  O  O201  1  0.75112331  0.98193970  0.12072857  1
  O  O202  1  0.74489101  0.98686611  0.63221168  1
  O  O203  1  0.00684386  0.36263688  0.24367567  1
  O  O204  1  0.00823494  0.37562193  0.75668706  1
  O  O205  1  0.01253365  0.87117321  0.25622253  1
  O  O206  1  0.00584573  0.86754506  0.74995689  1
  O  O207  1  0.50545247  0.37195456  0.24804740  1
  O  O208  1  0.49720996  0.36821620  0.75991246  1
  O  O209  1  0.44527635  0.89135409  0.30602345  1
  O  O210  1  0.50146185  0.87675647  0.76920714  1
  O  O211  1  0.48546454  0.15049033  0.25466534  1
  O  O212  1  0.49192079  0.13144751  0.74371548  1
  O  O213  1  0.49599083  0.61838503  0.23429722  1
  O  O214  1  0.48868094  0.62367988  0.75356585  1
  O  O215  1  0.99919129  0.13476059  0.24232240  1
  O  O216  1  0.98476494  0.12072766  0.75018644  1
  O  O217  1  0.99803271  0.63052502  0.24528671  1
  O  O218  1  0.99303009  0.62666512  0.73837641  1
  O  O219  1  0.36950974  0.25337111  0.00425928  1
  O  O220  1  0.35886483  0.24557543  0.50069215  1
  O  O221  1  0.36282700  0.74632046  0.00760436  1
  O  O222  1  0.36363788  0.74018736  0.51657069  1
  O  O223  1  0.86461742  0.24059335  0.01009165  1
  O  O224  1  0.88132938  0.25950806  0.50758340  1
  O  O225  1  0.86386356  0.76246174  -0.00734377  1
  O  O226  1  0.87038977  0.75415161  0.50568929  1
  O  O227  1  0.12407633  0.24461508  0.49371260  1
  O  O228  1  0.13235608  0.24104297  1.00059269  1
  O  O229  1  0.13660921  0.73921307  0.50964732  1
  O  O230  1  0.13715681  0.74779058  0.99209589  1
  O  O231  1  0.64275226  0.25886260  0.49863361  1
  O  O232  1  0.62797028  0.23983667  0.99504325  1
  O  O233  1  0.62889233  0.74469124  0.49521477  1
  O  O234  1  0.63718007  0.75357051  0.99098357  1
  O  O235  1  0.48991243  0.25948610  0.12419031  1
  O  O236  1  0.49981155  0.25737580  0.63956376  1
  O  O237  1  0.49208895  0.73852379  0.11507766  1
  O  O238  1  0.48878246  0.76096317  0.61295792  1
  O  O239  1  0.99448714  0.24429193  0.12780888  1
  O  O240  1  0.98653656  0.24714534  0.63015146  1
  O  O241  1  1.00902140  0.73944657  0.13157997  1
  O  O242  1  0.99618940  0.74078223  0.62898513  1
  O  O243  1  0.00625252  0.24628698  0.36372417  1
  O  O244  1  0.00226277  0.25766217  0.87344404  1
  O  O245  1  0.00257800  0.76259417  0.37170280  1
  O  O246  1  0.00749291  0.74971679  0.86831412  1
  O  O247  1  0.49490695  0.26367810  0.36698022  1
  O  O248  1  0.50423287  0.25294923  0.87087688  1
  O  O249  1  0.50825671  0.74179595  0.37686720  1
  O  O250  1  0.51198550  0.75960209  0.88535395  1
  O  O251  1  0.24232679  0.12862332  0.49248848  1
  O  O252  1  0.24310775  0.13210576  0.99963277  1
  O  O253  1  0.24927295  0.62793457  0.49225124  1
  O  O254  1  0.25129003  0.63030523  0.98562390  1
  O  O255  1  0.74087984  0.10844781  0.49220062  1
  O  O256  1  0.74182352  0.13080185  0.99684106  1
  O  O257  1  0.74371202  0.63104968  0.49643534  1
  O  O258  1  0.75824143  0.64278330  1.00544707  1
  O  O259  1  0.25417508  0.36994917  0.00254252  1
  O  O260  1  0.24418622  0.36284914  0.51315311  1
  O  O261  1  0.24635394  0.86682449  0.00767913  1
  O  O262  1  0.23688706  0.85659170  0.51736779  1
  O  O263  1  0.74238262  0.35644894  0.00247728  1
  O  O264  1  0.76678290  0.38476369  0.51091185  1
  O  O265  1  0.75798477  0.86879066  0.00861130  1
  O  O266  1  0.75610085  0.87041644  0.50625595  1
  O  O267  1  0.13308166  0.49590631  0.24388810  1
  O  O268  1  0.13188283  0.49044048  0.74386049  1
  O  O269  1  0.13473030  0.99500476  0.24119937  1
  O  O270  1  0.12502104  0.99119997  0.74397661  1
  O  O271  1  0.63550280  0.50131312  0.24922510  1
  O  O272  1  0.62399018  0.49557801  0.74066914  1
  O  O273  1  0.58776329  0.99834330  0.22035225  1
  O  O274  1  0.63541376  0.99454485  0.74591677  1
  O  O275  1  0.36381935  0.01874788  0.23935136  1
  O  O276  1  0.37409386  0.00411075  0.76039411  1
  O  O277  1  0.35998877  0.50038392  0.24781759  1
  O  O278  1  0.37033550  0.51358609  0.74804505  1
  O  O279  1  0.88939550  0.00931451  0.25917136  1
  O  O280  1  0.86336188  0.00201935  0.75466563  1
  O  O281  1  0.87364062  0.50875643  0.25773782  1
  O  O282  1  0.87662744  0.51280214  0.74630694  1
  O  O283  1  0.12962510  0.36244506  0.36967253  1
  O  O284  1  0.11765727  0.37481678  0.86505996  1
  O  O285  1  0.12413731  0.88195186  0.36467826  1
  O  O286  1  0.12400350  0.87006435  0.86303881  1
  O  O287  1  0.63524243  0.37939510  0.35928863  1
  O  O288  1  0.61302131  0.35973043  0.87456474  1
  O  O289  1  0.62629177  0.85739135  0.37877160  1
  O  O290  1  0.61549968  0.86782901  0.87307713  1
  O  O291  1  0.36570657  0.14235974  0.13489695  1
  O  O292  1  0.37197651  0.11250974  0.63861079  1
  O  O293  1  0.38297212  0.63280601  0.12820719  1
  O  O294  1  0.37563246  0.63655244  0.63727785  1
  O  O295  1  0.88189643  0.12890848  0.13059362  1
  O  O296  1  0.87388371  0.12867414  0.63254107  1
  O  O297  1  0.88928517  0.62232109  0.13747281  1
  O  O298  1  0.88263369  0.62922129  0.63095064  1
  O  O299  1  0.25424945  0.25859881  0.11350145  1
  O  O300  1  0.24249231  0.25855148  0.61741054  1
  O  O301  1  0.25429461  0.75642759  0.11502448  1
  O  O302  1  0.25482968  0.75001240  0.61834434  1
  O  O303  1  0.75849673  0.25023478  0.12097494  1
  O  O304  1  0.76241071  0.25570363  0.62971798  1
  O  O305  1  0.74635049  0.76039174  0.11190080  1
  O  O306  1  0.75174867  0.75911978  0.61904531  1
  O  O307  1  0.23895212  0.24267112  0.38215692  1
  O  O308  1  0.24728309  0.24895008  0.88849883  1
  O  O309  1  0.25414208  0.73952757  0.39477865  1
  O  O310  1  0.24857093  0.74589525  0.87846090  1
  O  O311  1  0.75996278  0.24425931  0.36248622  1
  O  O312  1  0.74124902  0.24366550  0.88207666  1
  O  O313  1  0.75188885  0.74477430  0.38295617  1
  O  O314  1  0.73743274  0.75304280  0.88688488  1
  O  O315  1  0.00660071  0.11846966  0.00397210  1
  O  O316  1  0.00428061  0.11505564  0.49933280  1
  O  O317  1  0.00254779  0.62162235  0.00808125  1
  O  O318  1  -0.00304507  0.61675659  0.51238708  1
  O  O319  1  0.50164721  0.10811463  -0.00140331  1
  O  O320  1  0.51439830  0.14695914  0.51298619  1
  O  O321  1  0.49355609  0.61492767  0.01077296  1
  O  O322  1  0.51103571  0.61782414  0.50026765  1
  O  O323  1  0.49959805  0.38831932  0.50251498  1
  O  O324  1  0.49494747  0.37907936  0.99267528  1
  O  O325  1  0.48574251  0.88488251  0.47517843  1
  O  O326  1  0.50046010  0.88493859  0.98468614  1
  O  O327  1  0.98777577  0.38559838  0.50534529  1
  O  O328  1  1.00634993  0.38414384  0.98933541  1
  O  O329  1  1.00039696  0.87868505  0.49334191  1
  O  O330  1  0.98929137  0.87577431  0.99989729  1
  O  O331  1  0.50125403  0.50523259  0.38971410  1
  O  O332  1  0.49950709  0.49014536  0.88109153  1
  O  O333  1  0.49310352  1.02028182  0.37181655  1
  O  O334  1  0.49164939  0.99151318  0.88036754  1
  O  O335  1  0.99639914  0.50744146  0.38651461  1
  O  O336  1  0.99866537  0.49284140  0.88321455  1
  O  O337  1  0.99970763  0.98949100  0.38307709  1
  O  O338  1  0.99043598  0.99484420  0.88264422  1
  O  O339  1  0.00720121  0.00411823  0.11840115  1
  O  O340  1  0.00352537  -0.00192866  0.61205145  1
  O  O341  1  0.00727053  0.50786854  0.11972255  1
  O  O342  1  0.00721641  0.50413029  0.61607428  1
  O  O343  1  0.47505763  -0.01269309  0.10512454  1
  O  O344  1  0.51352238  -0.00365585  0.63127074  1
  O  O345  1  0.50090524  0.51213395  0.11704306  1
  O  O346  1  0.51408595  0.49727268  0.61547350  1
  O  O347  1  0.24178772  0.38295852  0.24253665  1
  O  O348  1  0.24537931  0.37840005  0.74488577  1
  O  O349  1  0.24942374  0.88742432  0.24276673  1
  O  O350  1  0.24075629  0.87243918  0.74007989  1
  O  O351  1  0.75001156  0.39270603  0.24604418  1
  O  O352  1  0.74848207  0.37493053  0.73504584  1
  O  O353  1  0.75411600  0.86892863  0.23287534  1
  O  O354  1  0.74926085  0.87910743  0.74083231  1
  O  O355  1  0.25357404  0.12521325  0.25393743  1
  O  O356  1  0.25583162  0.12191419  0.75428288  1
  O  O357  1  0.24987896  0.61985478  0.26051326  1
  O  O358  1  0.25572217  0.62211595  0.75919109  1
  O  O359  1  0.76714339  0.12348908  0.24888503  1
  O  O360  1  0.75776835  0.11510163  0.75659214  1
  O  O361  1  0.76031199  0.62022237  0.25304103  1
  O  O362  1  0.76686501  0.62409417  0.74275352  1
  O  O363  1  0.36066658  0.13920843  0.36027268  1
  O  O364  1  0.37464544  0.11103023  0.86447491  1
  O  O365  1  0.36195319  0.61884073  0.37302552  1
  O  O366  1  0.37029361  0.62796663  0.86325606  1
  O  O367  1  0.87970357  0.11228477  0.36553755  1
  O  O368  1  0.86643189  0.11512247  0.86998860  1
  O  O369  1  0.87306405  0.61675141  0.37025588  1
  O  O370  1  0.88332832  0.62181375  0.85881176  1
  O  O371  1  0.12991931  0.38333783  0.12903530  1
  O  O372  1  0.12869826  0.38353570  0.63394702  1
  O  O373  1  0.13547823  0.88076997  0.13173287  1
  O  O374  1  0.12837062  0.87772975  0.63596679  1
  O  O375  1  0.63043742  0.38137895  0.13876284  1
  O  O376  1  0.63291638  0.38201920  0.62461490  1
  O  O377  1  0.62975301  0.87232930  0.12664250  1
  O  O378  1  0.62978867  0.88108716  0.62458537  1
  O  O379  1  0.11897053  0.25397258  0.25543548  1
  O  O380  1  0.12240022  0.26047770  0.75114889  1
  O  O381  1  0.12543200  0.76435132  0.24615996  1
  O  O382  1  0.11897765  0.75573601  0.75258582  1
  O  O383  1  0.60986735  0.26448083  0.25416318  1
  O  O384  1  0.61567907  0.24964068  0.75791310  1
  O  O385  1  0.62524688  0.74259343  0.26599294  1
  O  O386  1  0.63167915  0.74991171  0.76648534  1
  O  O387  1  0.38186991  0.25616530  0.24212895  1
  O  O388  1  0.38326175  0.23661924  0.75737590  1
  O  O389  1  0.36515463  0.74695664  0.23284123  1
  O  O390  1  0.37455236  0.73890000  0.73843565  1
  O  O391  1  0.88578399  0.24285499  0.24017491  1
  O  O392  1  0.87403404  0.23789363  0.74485412  1
  O  O393  1  0.88607363  0.73807261  0.25774704  1
  O  O394  1  0.87908537  0.74069287  0.74538445  1
  O  O395  1  0.39501134  0.50542621  0.50619946  1
  O  O396  1  0.38436518  0.49249287  0.99625763  1
  O  O397  1  0.38345005  1.01342122  0.47628807  1
  O  O398  1  0.37860141  1.00530457  0.98268967  1
  O  O399  1  0.88364228  0.49707004  0.49367409  1
  O  O400  1  0.89016237  0.50342273  1.00164108  1
  O  O401  1  0.88598743  0.99153650  0.49253153  1
  O  O402  1  0.87738973  0.98866933  0.99631977  1
  O  O403  1  0.11994191  0.00481737  0.00313352  1
  O  O404  1  0.11850534  0.00360115  0.50379071  1
  O  O405  1  0.11651140  0.50418258  0.00612103  1
  O  O406  1  0.11829214  0.49096179  0.50749239  1
  O  O407  1  0.60850759  0.00217836  0.00169652  1
  O  O408  1  0.62283142  -0.00651641  0.51339392  1
  O  O409  1  0.61147308  0.49154340  0.00220302  1
  O  O410  1  0.61724650  0.50672825  0.50377838  1
  O  O411  1  0.36784526  0.37113726  0.11742672  1
  O  O412  1  0.36336085  0.37911095  0.62170371  1
  O  O413  1  0.36459300  0.86646190  0.12649271  1
  O  O414  1  0.36626549  0.86016862  0.63304690  1
  O  O415  1  0.87546892  0.36235499  0.12750886  1
  O  O416  1  0.87015955  0.36698594  0.61878546  1
  O  O417  1  0.87783047  0.87344703  0.11350328  1
  O  O418  1  0.86777229  0.86803821  0.61869019  1
  O  O419  1  0.12855523  0.13660526  0.37822298  1
  O  O420  1  0.12597260  0.12407042  0.88641198  1
  O  O421  1  0.13892104  0.62991687  0.37205523  1
  O  O422  1  0.13405587  0.63106739  0.87188422  1
  O  O423  1  0.63144433  0.13755226  0.37079647  1
  O  O424  1  0.62811209  0.13273457  0.86797326  1
  O  O425  1  0.63273532  0.63387587  0.38526417  1
  O  O426  1  0.61959490  0.63804411  0.87709146  1
