# generated using pymatgen
data_V85Zn86O256
_symmetry_space_group_name_H-M   'P 1'
_cell_length_a   16.94071414
_cell_length_b   16.93313785
_cell_length_c   16.93287194
_cell_angle_alpha   89.96391611
_cell_angle_beta   89.99899974
_cell_angle_gamma   89.99881396
_symmetry_Int_Tables_number   1
_chemical_formula_structural   V85Zn86O256
_chemical_formula_sum   'V85 Zn86 O256'
_cell_volume   4857.35333114
_cell_formula_units_Z   1
loop_
 _symmetry_equiv_pos_site_id
 _symmetry_equiv_pos_as_xyz
  1  'x, y, z'
loop_
 _atom_site_type_symbol
 _atom_site_label
 _atom_site_symmetry_multiplicity
 _atom_site_fract_x
 _atom_site_fract_y
 _atom_site_fract_z
 _atom_site_occupancy
  V  V0  1  0.87849490  0.39557311  -0.00889074  1
  V  V1  1  0.86569675  0.25303052  0.11373802  1
  V  V2  1  0.50692876  0.63233785  0.61904857  1
  V  V3  1  0.36875691  0.63757656  0.25929478  1
  V  V4  1  0.61942046  0.87121212  0.75038520  1
  V  V5  1  0.00028137  0.24426717  0.75544531  1
  V  V6  1  0.75885942  0.62398314  0.87841195  1
  V  V7  1  0.63825366  0.12633963  0.00487999  1
  V  V8  1  0.00264358  0.87019294  0.37213937  1
  V  V9  1  -0.00058288  0.74161506  0.24444222  1
  V  V10  1  0.38367952  0.49918314  0.88571863  1
  V  V11  1  0.24998077  0.50392820  0.25630556  1
  V  V12  1  0.62374639  -0.00012413  0.62055573  1
  V  V13  1  0.87064926  0.12415212  0.24803212  1
  V  V14  1  0.63849270  0.24226281  0.87962937  1
  V  V15  1  0.50645125  0.37539008  0.88639639  1
  V  V16  1  0.87267540  0.87279181  0.50005479  1
  V  V17  1  -0.00448912  0.25219518  0.25236046  1
  V  V18  1  -0.00148044  -0.00189279  0.49824803  1
  V  V19  1  0.38710368  0.63087012  0.75017528  1
  V  V20  1  0.88012280  0.37356481  0.49701649  1
  V  V21  1  0.86981049  0.11878494  0.76463710  1
  V  V22  1  0.75574587  0.50013658  0.75577323  1
  V  V23  1  0.26223772  0.25049166  0.00450324  1
  V  V24  1  0.12013316  0.25664386  0.37692358  1
  V  V25  1  0.25126599  0.37539171  0.63096255  1
  V  V26  1  0.12136488  -0.00592547  0.12405822  1
  V  V27  1  0.87409630  0.24743136  0.62537492  1
  V  V28  1  0.74591580  0.38154038  0.13342724  1
  V  V29  1  -0.00409510  0.12074435  0.62433997  1
  V  V30  1  0.12422804  0.12560558  -0.00014533  1
  V  V31  1  0.50221677  0.24992298  0.75204001  1
  V  V32  1  0.13138621  0.50178384  0.62463438  1
  V  V33  1  0.74140467  0.62155150  0.37891475  1
  V  V34  1  0.13591941  0.62534600  0.49233086  1
  V  V35  1  0.74631683  -0.01804269  0.24757049  1
  V  V36  1  0.87324025  -0.00211725  0.37227666  1
  V  V37  1  0.37298314  0.75654140  0.62694531  1
  V  V38  1  0.12261142  0.12826834  0.49966952  1
  V  V39  1  0.62213101  0.74518049  0.87412539  1
  V  V40  1  0.48552572  0.62581521  0.11742542  1
  V  V41  1  0.26082351  0.49776845  0.75117106  1
  V  V42  1  0.00074408  0.75416575  0.74910138  1
  V  V43  1  0.74948088  0.37621296  0.62332406  1
  V  V44  1  0.00384865  0.49577990  0.49668367  1
  V  V45  1  0.62154429  0.60881764  -0.00114392  1
  V  V46  1  0.37441124  -0.00040283  0.87623097  1
  V  V47  1  0.26539645  0.87434458  0.12391267  1
  V  V48  1  0.50297884  0.88565297  0.35933564  1
  V  V49  1  0.09120361  0.40448930  0.76979891  1
  V  V50  1  0.87516690  0.74852915  0.62323054  1
  V  V51  1  0.13363294  -0.00271648  0.62390636  1
  V  V52  1  0.13486670  0.87456187  0.74650051  1
  V  V53  1  0.25351231  0.12929972  0.37260257  1
  V  V54  1  0.38119200  0.88757698  0.50250268  1
  V  V55  1  0.12592695  0.25102534  0.87443211  1
  V  V56  1  0.12006465  0.49805339  0.11960861  1
  V  V57  1  0.87496509  0.49846255  0.36899869  1
  V  V58  1  0.49921694  -0.00180784  0.00082268  1
  V  V59  1  0.50370009  0.38314346  0.36334136  1
  V  V60  1  0.74752307  0.12369739  0.37227854  1
  V  V61  1  0.37718393  0.25362261  0.62635425  1
  V  V62  1  0.49409064  0.86968462  0.87584482  1
  V  V63  1  0.11933744  0.62468189  -0.00000567  1
  V  V64  1  0.25004598  0.00524956  0.25187694  1
  V  V65  1  -0.00722118  -0.00235954  -0.00974001  1
  V  V66  1  0.74879536  0.87514225  0.62506330  1
  V  V67  1  0.62038254  0.50052761  0.14434402  1
  V  V68  1  0.26138052  0.75444427  0.00431222  1
  V  V69  1  0.25499688  0.75610874  0.49212022  1
  V  V70  1  0.86357424  0.87163202  0.00036903  1
  V  V71  1  0.61995953  0.12589902  0.49588865  1
  V  V72  1  0.00353494  0.62624982  0.62227219  1
  V  V73  1  0.12115732  0.37620385  0.24924511  1
  V  V74  1  -0.00344254  0.12377108  0.12514124  1
  V  V75  1  0.62927817  -0.02273729  0.12619123  1
  V  V76  1  0.12652537  0.75347895  0.87634026  1
  V  V77  1  0.50033059  0.12256970  0.62269861  1
  V  V78  1  0.25410070  0.62678494  0.87582361  1
  V  V79  1  0.62559525  0.25493266  0.36228960  1
  V  V80  1  0.48121217  0.24357020  0.24710228  1
  V  V81  1  0.75101009  0.00105232  0.76117956  1
  V  V82  1  0.51011106  0.50497130  0.49646096  1
  V  V83  1  0.37764064  0.37926432  0.49925674  1
  V  V84  1  0.62804608  0.37403310  0.75106930  1
  Zn  Zn85  1  0.25253861  0.12373815  0.87239581  1
  Zn  Zn86  1  0.73530155  0.73710976  0.50685870  1
  Zn  Zn87  1  0.38171759  0.01154724  0.38079333  1
  Zn  Zn88  1  0.62044575  0.75645265  0.37829295  1
  Zn  Zn89  1  0.25399959  0.00014698  0.74896484  1
  Zn  Zn90  1  0.49250573  0.13206833  0.12294015  1
  Zn  Zn91  1  0.86035392  0.74971679  0.12966177  1
  Zn  Zn92  1  0.13056444  0.74490732  0.37070008  1
  Zn  Zn93  1  0.86760999  0.61837378  0.24521264  1
  Zn  Zn94  1  0.38566385  0.37406118  0.01144288  1
  Zn  Zn95  1  0.62903192  0.50903299  0.62330881  1
  Zn  Zn96  1  0.37400017  0.50735827  0.37639653  1
  Zn  Zn97  1  0.49974893  0.76006023  0.24198276  1
  Zn  Zn98  1  0.24822259  0.25411382  0.50149727  1
  Zn  Zn99  1  0.12531765  0.87165899  0.24931169  1
  Zn  Zn100  1  -0.00909714  0.61898634  0.11423183  1
  Zn  Zn101  1  -0.00516374  0.87851476  0.87268796  1
  Zn  Zn102  1  0.74829929  0.25110602  0.49713346  1
  Zn  Zn103  1  0.73942476  0.75025740  0.01411960  1
  Zn  Zn104  1  0.37412929  0.12401226  0.75017892  1
  Zn  Zn105  1  0.25663800  0.37093634  0.12962917  1
  Zn  Zn106  1  0.87733646  0.62299633  0.75294927  1
  Zn  Zn107  1  0.18552461  0.18680316  0.18632819  1
  Zn  Zn108  1  0.18860828  0.18585425  0.68966946  1
  Zn  Zn109  1  0.18614566  0.68887606  0.18469523  1
  Zn  Zn110  1  0.19500417  0.68799887  0.68423964  1
  Zn  Zn111  1  0.68747079  0.18570281  0.18375996  1
  Zn  Zn112  1  0.68936157  0.18706369  0.68866408  1
  Zn  Zn113  1  0.68438480  0.68753584  0.19717207  1
  Zn  Zn114  1  0.68806068  0.68929645  0.69216786  1
  Zn  Zn115  1  0.30984666  0.31786794  0.31511403  1
  Zn  Zn116  1  0.31665259  0.31282901  0.81899020  1
  Zn  Zn117  1  0.31565040  0.82080723  0.31380396  1
  Zn  Zn118  1  0.31377623  0.81212313  0.81276226  1
  Zn  Zn119  1  0.81140132  0.31536061  0.31114605  1
  Zn  Zn120  1  0.81732902  0.31216608  0.81484627  1
  Zn  Zn121  1  0.81338808  0.80183043  0.31669508  1
  Zn  Zn122  1  0.80999168  0.81364052  0.81744245  1
  Zn  Zn123  1  0.18937066  0.43538392  0.43593882  1
  Zn  Zn124  1  0.19201375  0.43710190  0.93874411  1
  Zn  Zn125  1  0.19011491  0.93610326  0.43981321  1
  Zn  Zn126  1  0.18748768  0.93627996  0.93895122  1
  Zn  Zn127  1  0.68862252  0.43799263  0.43467835  1
  Zn  Zn128  1  0.69767520  0.43163014  0.94123416  1
  Zn  Zn129  1  0.68406231  0.93419307  0.43810253  1
  Zn  Zn130  1  0.68288803  0.93655208  0.93780564  1
  Zn  Zn131  1  0.31346924  0.06463294  0.05952841  1
  Zn  Zn132  1  0.31007581  0.07028522  0.56152960  1
  Zn  Zn133  1  0.30269862  0.55871056  0.06495950  1
  Zn  Zn134  1  0.31843899  0.56649175  0.56177131  1
  Zn  Zn135  1  0.81230246  0.05555686  0.06353292  1
  Zn  Zn136  1  0.80799076  0.06131156  0.56250795  1
  Zn  Zn137  1  0.80727478  0.56339399  0.06572017  1
  Zn  Zn138  1  0.81586767  0.55992375  0.56316109  1
  Zn  Zn139  1  0.43507377  0.44365638  0.18628843  1
  Zn  Zn140  1  0.44411185  0.44097356  0.68784658  1
  Zn  Zn141  1  0.42515127  0.97488236  0.17948678  1
  Zn  Zn142  1  0.43847863  0.93797216  0.68813999  1
  Zn  Zn143  1  0.93940377  0.43310461  0.18148121  1
  Zn  Zn144  1  0.93851611  0.44128269  0.69119756  1
  Zn  Zn145  1  0.93480087  0.93252319  0.18446864  1
  Zn  Zn146  1  0.93739082  0.93734103  0.68942087  1
  Zn  Zn147  1  0.06421122  0.06382399  0.31168610  1
  Zn  Zn148  1  0.06633504  0.06361245  0.81181404  1
  Zn  Zn149  1  0.06045276  0.55927910  0.31429906  1
  Zn  Zn150  1  0.06549340  0.57251467  0.81093034  1
  Zn  Zn151  1  0.56295069  0.06093988  0.30688176  1
  Zn  Zn152  1  0.56455853  0.06187349  0.81351839  1
  Zn  Zn153  1  0.56632829  0.59322446  0.30394706  1
  Zn  Zn154  1  0.56645848  0.55904580  0.80987673  1
  Zn  Zn155  1  0.43956756  0.19454460  0.43664808  1
  Zn  Zn156  1  0.44489815  0.18160647  0.93597977  1
  Zn  Zn157  1  0.44215725  0.69660998  0.43744658  1
  Zn  Zn158  1  0.44046015  0.68750062  0.93897153  1
  Zn  Zn159  1  0.93561286  0.18777241  0.43559600  1
  Zn  Zn160  1  0.93833692  0.18985037  0.93846810  1
  Zn  Zn161  1  0.93803632  0.68342948  0.43713505  1
  Zn  Zn162  1  0.93599139  0.69400402  0.93835691  1
  Zn  Zn163  1  0.05833466  0.31453249  0.06183336  1
  Zn  Zn164  1  0.06363025  0.31511721  0.57286772  1
  Zn  Zn165  1  0.06019920  0.81261199  0.06032302  1
  Zn  Zn166  1  0.06610803  0.81265036  0.55993768  1
  Zn  Zn167  1  0.56874475  0.30935953  0.06953591  1
  Zn  Zn168  1  0.56433541  0.31299219  0.55744193  1
  Zn  Zn169  1  0.55762132  0.80627221  0.05726518  1
  Zn  Zn170  1  0.55740668  0.81399256  0.55717400  1
  O  O171  1  0.11816330  0.11524315  0.11924010  1
  O  O172  1  0.11536545  0.11907543  0.62019338  1
  O  O173  1  0.12335530  0.61816132  0.11455660  1
  O  O174  1  0.12414642  0.61970567  0.61673917  1
  O  O175  1  0.61987843  0.12277998  0.11271515  1
  O  O176  1  0.62027730  0.12088289  0.61722662  1
  O  O177  1  0.61769506  0.61110140  0.11751239  1
  O  O178  1  0.61099476  0.62910105  0.63110598  1
  O  O179  1  0.38285998  0.37938959  0.38401517  1
  O  O180  1  0.38813550  0.38263665  0.87983597  1
  O  O181  1  0.38103318  0.88372613  0.38706682  1
  O  O182  1  0.38816391  0.87943653  0.86875047  1
  O  O183  1  0.87206626  0.38198024  0.38856438  1
  O  O184  1  0.86839287  0.37576568  0.89131734  1
  O  O185  1  0.88478951  0.87620180  0.38089057  1
  O  O186  1  0.87907788  0.86942797  0.89023612  1
  O  O187  1  0.23884634  0.01387428  0.36905026  1
  O  O188  1  0.26063013  -0.00117690  0.87555700  1
  O  O189  1  0.24965045  0.49849371  0.36156487  1
  O  O190  1  0.26097796  0.50504968  0.86778655  1
  O  O191  1  0.75323624  0.00434306  0.36887872  1
  O  O192  1  0.74172884  -0.00337191  0.86010710  1
  O  O193  1  0.76865894  0.50288962  0.38286191  1
  O  O194  1  0.74232345  0.51008105  0.86624249  1
  O  O195  1  0.23604809  0.49856414  0.13805396  1
  O  O196  1  0.25169534  0.49645903  0.63203514  1
  O  O197  1  0.23988538  0.99142426  0.13006485  1
  O  O198  1  0.23622532  1.00573468  0.62467833  1
  O  O199  1  0.73328107  0.49375836  0.12544081  1
  O  O200  1  0.74816384  0.49236942  0.62986923  1
  O  O201  1  0.73792899  0.99816117  0.13281256  1
  O  O202  1  0.74144615  0.99244322  0.63073388  1
  O  O203  1  0.01161402  0.36565376  0.24573762  1
  O  O204  1  -0.00025063  0.34787726  0.72799005  1
  O  O205  1  0.00062937  0.86423832  0.25676316  1
  O  O206  1  0.00784779  0.86632881  0.75034710  1
  O  O207  1  0.49434480  0.36917153  0.26094817  1
  O  O208  1  0.50946018  0.36791981  0.75550097  1
  O  O209  1  0.48797628  0.88099280  0.25787885  1
  O  O210  1  0.51364633  0.88167290  0.75785521  1
  O  O211  1  0.49900283  0.14121349  0.25350833  1
  O  O212  1  0.50181112  0.13406555  0.74159238  1
  O  O213  1  0.47688074  0.62091577  0.23556734  1
  O  O214  1  0.49114830  0.62054022  0.74251719  1
  O  O215  1  0.99224017  0.13008770  0.24432905  1
  O  O216  1  0.99329487  0.12721202  0.74276199  1
  O  O217  1  0.99970344  0.63566871  0.25175166  1
  O  O218  1  1.00058096  0.64043352  0.74207225  1
  O  O219  1  0.36431439  0.24611977  -0.00542782  1
  O  O220  1  0.37602011  0.26467464  0.50681564  1
  O  O221  1  0.36055216  0.74732181  -0.00431244  1
  O  O222  1  0.37003166  0.76146255  0.50532146  1
  O  O223  1  0.87436814  0.24699848  0.01299903  1
  O  O224  1  0.87493346  0.25698808  0.50560034  1
  O  O225  1  0.87042101  0.76007902  0.00401713  1
  O  O226  1  0.87923856  0.75484169  0.51224265  1
  O  O227  1  0.12069224  0.24918757  0.49361511  1
  O  O228  1  0.12623859  0.24733576  0.98919400  1
  O  O229  1  0.13606589  0.74242189  0.50033702  1
  O  O230  1  0.13200491  0.74490748  0.99443828  1
  O  O231  1  0.62651612  0.24180392  0.48842514  1
  O  O232  1  0.62265853  0.23514549  0.99502417  1
  O  O233  1  0.62484587  0.75531718  0.49277093  1
  O  O234  1  0.62261630  0.73886834  0.98714158  1
  O  O235  1  0.50151295  0.25102998  0.14296554  1
  O  O236  1  0.49985523  0.24310833  0.63154129  1
  O  O237  1  0.50352047  0.73081006  0.12561157  1
  O  O238  1  0.48565709  0.74332429  0.61869210  1
  O  O239  1  0.99262507  0.24324532  0.13502987  1
  O  O240  1  0.99645033  0.23359659  0.62838245  1
  O  O241  1  1.00265392  0.74654866  0.13813187  1
  O  O242  1  0.99564012  0.74727977  0.62959958  1
  O  O243  1  0.00455718  0.24427095  0.36086814  1
  O  O244  1  0.00853147  0.24688034  0.86567844  1
  O  O245  1  0.00207085  0.75507818  0.36695530  1
  O  O246  1  0.00816872  0.75032323  0.86381884  1
  O  O247  1  0.50548261  0.25936139  0.36463179  1
  O  O248  1  0.50771536  0.25583594  0.86717827  1
  O  O249  1  0.49404048  0.77269135  0.37073820  1
  O  O250  1  0.50654747  0.75869301  0.87712443  1
  O  O251  1  0.23796788  0.13235341  0.49439574  1
  O  O252  1  0.24349315  0.13431929  0.99806110  1
  O  O253  1  0.24540623  0.63468898  0.50373554  1
  O  O254  1  0.24199917  0.63345204  0.99440277  1
  O  O255  1  0.73844686  0.12605286  0.49242092  1
  O  O256  1  0.73728161  0.11952336  1.00290357  1
  O  O257  1  0.76570940  0.62536252  0.48645622  1
  O  O258  1  0.73891698  0.62508556  0.99167505  1
  O  O259  1  0.25245938  0.35839503  -0.00174880  1
  O  O260  1  0.25834660  0.37629349  0.50968767  1
  O  O261  1  0.24597872  0.86977603  0.01508468  1
  O  O262  1  0.26188614  0.86809988  0.49960149  1
  O  O263  1  0.76451522  0.37898627  0.01665118  1
  O  O264  1  0.75874591  0.37367216  0.50800912  1
  O  O265  1  0.76017148  0.87386972  -0.00456830  1
  O  O266  1  0.75895905  0.87443808  0.50667007  1
  O  O267  1  0.12742253  0.49286004  0.24709336  1
  O  O268  1  0.14711095  0.50551098  0.74532562  1
  O  O269  1  0.12964889  0.99771681  0.24145376  1
  O  O270  1  0.12422851  0.99194964  0.74127002  1
  O  O271  1  0.61871780  0.50493856  0.24218797  1
  O  O272  1  0.63548563  0.49086149  0.74411908  1
  O  O273  1  0.63177120  1.00053346  0.23393006  1
  O  O274  1  0.63108888  0.99626370  0.73945863  1
  O  O275  1  0.35210668  -0.00507664  0.26617710  1
  O  O276  1  0.37551600  0.00009489  0.76078393  1
  O  O277  1  0.36413915  0.51072120  0.25349648  1
  O  O278  1  0.37347529  0.50788276  0.75662349  1
  O  O279  1  0.86767412  0.00276094  0.25318570  1
  O  O280  1  0.86494560  0.00636743  0.74575178  1
  O  O281  1  0.88753463  0.49409823  0.26727521  1
  O  O282  1  0.85973914  0.50388461  0.74474326  1
  O  O283  1  0.12508023  0.36350774  0.36903738  1
  O  O284  1  0.13018403  0.37042645  0.86289946  1
  O  O285  1  0.11128246  0.87416432  0.37650960  1
  O  O286  1  0.12203151  0.86981327  0.86541212  1
  O  O287  1  0.61614278  0.36709846  0.37928634  1
  O  O288  1  0.62306935  0.36621748  0.87180685  1
  O  O289  1  0.60768353  0.88033678  0.37241837  1
  O  O290  1  0.61841034  0.86656570  0.86868706  1
  O  O291  1  0.39187861  0.08056380  0.13429489  1
  O  O292  1  0.38473420  0.13413340  0.62378068  1
  O  O293  1  0.38316352  0.61860474  0.12369408  1
  O  O294  1  0.38409860  0.63248132  0.63308832  1
  O  O295  1  0.87529282  0.13141198  0.13045385  1
  O  O296  1  0.88147025  0.12711677  0.62782370  1
  O  O297  1  0.87699627  0.62701654  0.12911709  1
  O  O298  1  0.88330141  0.63331735  0.62776922  1
  O  O299  1  0.24342964  0.24876647  0.10810646  1
  O  O300  1  0.25632742  0.25821598  0.62610607  1
  O  O301  1  0.24579351  0.76661221  0.11984128  1
  O  O302  1  0.26579088  0.74697388  0.61440956  1
  O  O303  1  0.75512270  0.26363042  0.13038181  1
  O  O304  1  0.75776416  0.25681839  0.62352453  1
  O  O305  1  0.74574207  0.74586100  0.12759852  1
  O  O306  1  0.75903919  0.75509104  0.62538891  1
  O  O307  1  0.23864028  0.24639873  0.37700918  1
  O  O308  1  0.24324016  0.24811388  0.88402869  1
  O  O309  1  0.24910515  0.75614497  0.38672112  1
  O  O310  1  0.24508869  0.74700512  0.88168219  1
  O  O311  1  0.74337555  0.24382109  0.37412658  1
  O  O312  1  0.73678721  0.24738035  0.86578170  1
  O  O313  1  0.74672996  0.73458092  0.38079834  1
  O  O314  1  0.73911765  0.73986086  0.87627110  1
  O  O315  1  0.00304107  0.11776825  0.00654240  1
  O  O316  1  0.00215631  0.11833165  0.50528946  1
  O  O317  1  0.01467800  0.62981687  -0.00539591  1
  O  O318  1  0.00940877  0.61740474  0.50602108  1
  O  O319  1  0.50909442  0.11102806  0.00191591  1
  O  O320  1  0.51157129  0.13125694  0.50620082  1
  O  O321  1  0.50432430  0.62286831  0.01009008  1
  O  O322  1  0.49128493  0.61703468  0.50710887  1
  O  O323  1  0.49382365  0.38259392  0.49303215  1
  O  O324  1  0.50413621  0.36602856  0.98945504  1
  O  O325  1  0.48422270  0.88086499  0.49384855  1
  O  O326  1  0.50816598  0.88625929  0.98834079  1
  O  O327  1  0.99247825  0.38334798  0.51111547  1
  O  O328  1  0.97779028  0.37209380  1.00832757  1
  O  O329  1  0.99359915  0.87906390  0.49319623  1
  O  O330  1  0.99461690  0.88319721  0.99578273  1
  O  O331  1  0.49935614  0.49725339  0.38053644  1
  O  O332  1  0.49508152  0.48818280  0.86884513  1
  O  O333  1  0.49707125  0.99281109  0.37196514  1
  O  O334  1  0.49694582  0.99202608  0.88031359  1
  O  O335  1  0.99334373  0.49946543  0.38979922  1
  O  O336  1  1.01427234  0.47250233  0.79944908  1
  O  O337  1  0.99318506  0.99275760  0.37702625  1
  O  O338  1  1.00438479  1.00163657  0.88744242  1
  O  O339  1  0.00459983  0.00514705  0.11946766  1
  O  O340  1  0.00442776  0.00825854  0.62076489  1
  O  O341  1  0.01513403  0.50284864  0.13049642  1
  O  O342  1  0.00853500  0.50657025  0.61775721  1
  O  O343  1  0.51943012  -0.00768072  0.11525124  1
  O  O344  1  0.50748487  0.01518165  0.63031129  1
  O  O345  1  0.51207433  0.50957494  0.12635570  1
  O  O346  1  0.50219637  0.51127154  0.61614700  1
  O  O347  1  0.23697466  0.38112222  0.25033098  1
  O  O348  1  0.25944256  0.38636892  0.74722540  1
  O  O349  1  0.24465157  0.88055810  0.23923830  1
  O  O350  1  0.23826345  0.87626394  0.74993208  1
  O  O351  1  0.75621414  0.37955056  0.23380959  1
  O  O352  1  0.74836578  0.37982284  0.74368781  1
  O  O353  1  0.75436670  0.88339659  0.26038804  1
  O  O354  1  0.74009955  0.87972755  0.74459003  1
  O  O355  1  0.24041948  0.11934167  0.26058803  1
  O  O356  1  0.25498921  0.12025693  0.75319531  1
  O  O357  1  0.26170920  0.62103053  0.24226181  1
  O  O358  1  0.26326307  0.61937254  0.75599421  1
  O  O359  1  0.75396613  0.11723046  0.25548051  1
  O  O360  1  0.75920811  0.11403962  0.74311275  1
  O  O361  1  0.75422685  0.62082666  0.27214487  1
  O  O362  1  0.75007925  0.61722617  0.75862376  1
  O  O363  1  0.35781002  0.12858653  0.38756599  1
  O  O364  1  0.37688143  0.11422958  0.87165266  1
  O  O365  1  0.37794992  0.62828057  0.36202699  1
  O  O366  1  0.37560819  0.61895316  0.86814015  1
  O  O367  1  0.86781963  0.11832599  0.36914032  1
  O  O368  1  0.87825496  0.12658208  0.86338603  1
  O  O369  1  0.87596646  0.60871789  0.37391748  1
  O  O370  1  0.86271861  0.63159497  0.87294728  1
  O  O371  1  0.12826739  0.37982833  0.13177414  1
  O  O372  1  0.12859870  0.38643580  0.64470892  1
  O  O373  1  0.12366758  0.88710206  0.12506982  1
  O  O374  1  0.11813442  0.88613907  0.63237238  1
  O  O375  1  0.63369085  0.38814836  0.12241882  1
  O  O376  1  0.63872539  0.37014752  0.62932298  1
  O  O377  1  0.62688101  0.87911038  0.11954286  1
  O  O378  1  0.62456454  0.88254097  0.63138608  1
  O  O379  1  0.11729777  0.25605954  0.25541266  1
  O  O380  1  0.11788345  0.24711602  0.76262298  1
  O  O381  1  0.11468379  0.75082308  0.25298190  1
  O  O382  1  0.12154660  0.75613554  0.75093621  1
  O  O383  1  0.62183044  0.24676511  0.26051565  1
  O  O384  1  0.61741062  0.25223998  0.75566099  1
  O  O385  1  0.60289946  0.71031191  0.27241930  1
  O  O386  1  0.62711397  0.75959303  0.76089294  1
  O  O387  1  0.38255622  0.25047670  0.25528747  1
  O  O388  1  0.38906680  0.25144220  0.74662904  1
  O  O389  1  0.37298889  0.74005811  0.24935783  1
  O  O390  1  0.37145350  0.74222501  0.74142838  1
  O  O391  1  0.88100112  0.24607102  0.24467394  1
  O  O392  1  0.88084910  0.23996898  0.74498858  1
  O  O393  1  0.88944420  0.74675730  0.25024107  1
  O  O394  1  0.88330250  0.75297936  0.73955436  1
  O  O395  1  0.38285943  0.49170247  0.49872483  1
  O  O396  1  0.36854127  0.50056076  0.98718315  1
  O  O397  1  0.36696341  0.99090359  0.50124430  1
  O  O398  1  0.38596207  0.99907134  0.98557679  1
  O  O399  1  0.88653664  0.49143407  0.49633235  1
  O  O400  1  0.87580166  0.49587961  1.00040502  1
  O  O401  1  0.87927664  0.99409145  0.49357722  1
  O  O402  1  0.88243846  0.98819964  1.00382416  1
  O  O403  1  0.11772693  0.00530640  0.00654807  1
  O  O404  1  0.11691529  0.00454182  0.50657178  1
  O  O405  1  0.13399390  0.50912029  0.00699173  1
  O  O406  1  0.12280435  0.50404309  0.50437027  1
  O  O407  1  0.62356800  0.00583537  0.00967492  1
  O  O408  1  0.62894299  0.00759088  0.51317460  1
  O  O409  1  0.62485418  0.50770355  -0.00352661  1
  O  O410  1  0.61269713  0.49146683  0.50587140  1
  O  O411  1  0.36907296  0.38251099  0.12160885  1
  O  O412  1  0.37467637  0.37225250  0.61986559  1
  O  O413  1  0.36300185  0.88364972  0.12717252  1
  O  O414  1  0.38120040  0.87054798  0.61472926  1
  O  O415  1  0.86518985  0.37008912  0.12127074  1
  O  O416  1  0.86655408  0.37076199  0.61803271  1
  O  O417  1  0.88090590  0.86915318  0.10706811  1
  O  O418  1  0.87144863  0.86826193  0.62013013  1
  O  O419  1  0.12742071  0.13787542  0.38043074  1
  O  O420  1  0.12731666  0.13337046  0.88240163  1
  O  O421  1  0.12216346  0.62427462  0.38919743  1
  O  O422  1  0.13424096  0.63189223  0.87896362  1
  O  O423  1  0.62782999  0.12958810  0.38020204  1
  O  O424  1  0.61943248  0.13025780  0.88977603  1
  O  O425  1  0.64322532  0.60348011  0.38929755  1
  O  O426  1  0.62736896  0.62956264  0.87904253  1
