# generated using pymatgen
data_V85Zn86O256
_symmetry_space_group_name_H-M   'P 1'
_cell_length_a   16.92379877
_cell_length_b   16.91210308
_cell_length_c   16.92202655
_cell_angle_alpha   89.97086185
_cell_angle_beta   90.01239933
_cell_angle_gamma   89.98567774
_symmetry_Int_Tables_number   1
_chemical_formula_structural   V85Zn86O256
_chemical_formula_sum   'V85 Zn86 O256'
_cell_volume   4843.37127631
_cell_formula_units_Z   1
loop_
 _symmetry_equiv_pos_site_id
 _symmetry_equiv_pos_as_xyz
  1  'x, y, z'
loop_
 _atom_site_type_symbol
 _atom_site_label
 _atom_site_symmetry_multiplicity
 _atom_site_fract_x
 _atom_site_fract_y
 _atom_site_fract_z
 _atom_site_occupancy
  V  V0  1  -0.00493545  0.88222218  0.37502703  1
  V  V1  1  0.74880000  0.50054613  0.25586114  1
  V  V2  1  0.87624796  0.49953307  0.87478464  1
  V  V3  1  0.87556353  0.75078309  0.12616703  1
  V  V4  1  0.00072015  0.36976256  0.37547982  1
  V  V5  1  0.63226368  0.51179501  0.10888750  1
  V  V6  1  0.63533927  0.74565208  0.37877897  1
  V  V7  1  0.50237782  -0.00164534  0.00354001  1
  V  V8  1  0.63694965  0.62625600  0.50031477  1
  V  V9  1  0.12898218  0.12577272  -0.00295376  1
  V  V10  1  0.87371427  0.62396206  0.74933814  1
  V  V11  1  0.00110493  0.37433313  0.87160979  1
  V  V12  1  -0.00143490  0.87677767  0.87351541  1
  V  V13  1  0.12531899  0.74551066  0.87795918  1
  V  V14  1  0.12916062  0.00172244  0.12881425  1
  V  V15  1  0.12447557  0.74848358  0.37690257  1
  V  V16  1  0.49661395  0.49955862  0.49152515  1
  V  V17  1  0.87177892  0.37460036  0.50061403  1
  V  V18  1  0.50016719  0.87314046  0.87866982  1
  V  V19  1  0.62425626  0.87430274  0.75094915  1
  V  V20  1  0.37398397  0.62066854  0.75451622  1
  V  V21  1  0.86907001  0.87678566  0.49578117  1
  V  V22  1  0.87483605  0.24306298  0.62357871  1
  V  V23  1  -0.00726675  0.00817908  0.51108484  1
  V  V24  1  0.48788990  0.50696036  -0.01006078  1
  V  V25  1  0.38694845  0.12443153  0.73659609  1
  V  V26  1  0.87236339  0.74960883  0.61976537  1
  V  V27  1  -0.00055545  0.50099256  0.49990517  1
  V  V28  1  0.26349498  0.62014449  0.37673918  1
  V  V29  1  0.49323579  0.36349526  0.88043099  1
  V  V30  1  -0.00046247  0.74998391  0.25156776  1
  V  V31  1  0.61928353  0.37413340  0.24632840  1
  V  V32  1  -0.00141222  0.00165538  -0.00508744  1
  V  V33  1  0.49936888  0.74861675  0.75198780  1
  V  V34  1  0.12881616  0.37147346  0.74417872  1
  V  V35  1  0.24630045  0.75687895  0.50429665  1
  V  V36  1  0.13111026  0.37488906  0.25238933  1
  V  V37  1  0.62479408  0.74868614  0.87968183  1
  V  V38  1  0.74237336  0.49739574  0.74985985  1
  V  V39  1  0.75195249  -0.00177487  0.75775034  1
  V  V40  1  0.61993173  0.35254417  0.75597361  1
  V  V41  1  0.37650723  0.87066165  0.00659290  1
  V  V42  1  0.62485384  0.13543416  -0.00155944  1
  V  V43  1  0.25940248  0.37815185  0.12526689  1
  V  V44  1  0.37743478  0.26293057  0.62630243  1
  V  V45  1  -0.00006580  0.75006620  0.74944276  1
  V  V46  1  0.62355332  0.87515088  0.25237056  1
  V  V47  1  0.87860243  0.36703800  0.00624730  1
  V  V48  1  0.87498564  0.87968384  -0.00168360  1
  V  V49  1  0.74557068  0.24992109  0.49516649  1
  V  V50  1  0.12945749  0.50084223  0.62528166  1
  V  V51  1  -0.00985966  0.25482543  0.24259866  1
  V  V52  1  0.75063290  0.10963503  0.36951993  1
  V  V53  1  0.74477269  0.74822653  0.00330029  1
  V  V54  1  0.61846039  0.00298533  0.62548705  1
  V  V55  1  0.62814076  0.00367096  0.13281823  1
  V  V56  1  0.74755501  0.13342677  0.87329138  1
  V  V57  1  0.74735621  0.87089852  0.62303492  1
  V  V58  1  0.61708462  0.12794781  0.50037674  1
  V  V59  1  0.13603925  0.00126050  0.62463234  1
  V  V60  1  0.87896004  0.11853589  0.75221984  1
  V  V61  1  0.75113040  0.88176127  0.12953705  1
  V  V62  1  0.25538753  0.87589418  0.13226678  1
  V  V63  1  0.24790443  0.61861957  0.87809754  1
  V  V64  1  0.37484035  0.25104000  0.12348073  1
  V  V65  1  0.36800258  0.11788986  0.25458157  1
  V  V66  1  0.36345794  0.38080359  0.49393109  1
  V  V67  1  0.24695746  0.74455993  0.00612428  1
  V  V68  1  0.50012760  0.62328248  0.62330307  1
  V  V69  1  0.25204201  0.25523009  -0.00170579  1
  V  V70  1  0.00419226  0.62706661  0.11789074  1
  V  V71  1  -0.00808338  0.13388686  0.12095281  1
  V  V72  1  0.37259471  0.00249522  0.87711275  1
  V  V73  1  0.37109575  0.87741717  0.49974788  1
  V  V74  1  0.22616562  0.12640874  0.37070707  1
  V  V75  1  0.25441469  0.49267068  0.74996770  1
  V  V76  1  0.74624760  0.62307649  0.88193257  1
  V  V77  1  0.49495020  0.73066154  0.24856481  1
  V  V78  1  0.36925180  0.75600163  0.62823914  1
  V  V79  1  0.49957652  0.12652704  0.12830301  1
  V  V80  1  0.87114338  0.62557127  0.25722594  1
  V  V81  1  0.12712129  0.50280712  0.12177278  1
  V  V82  1  0.49668957  0.00221560  0.49644084  1
  V  V83  1  0.00325502  0.24394775  0.74258373  1
  V  V84  1  0.12803075  0.87842155  0.25141531  1
  Zn  Zn85  1  0.24111647  0.25174927  0.49771627  1
  Zn  Zn86  1  0.13533975  0.87194955  0.74216981  1
  Zn  Zn87  1  0.12910264  0.24776804  0.87040457  1
  Zn  Zn88  1  0.75541737  0.24799913  0.00450986  1
  Zn  Zn89  1  0.75559585  0.36745755  0.12900960  1
  Zn  Zn90  1  0.25416554  0.12736272  0.86999767  1
  Zn  Zn91  1  0.12459563  0.62532430  0.50085481  1
  Zn  Zn92  1  0.11429185  0.13548040  0.50539520  1
  Zn  Zn93  1  0.62304966  0.49510329  0.62477783  1
  Zn  Zn94  1  0.37997714  0.71590721  0.12971716  1
  Zn  Zn95  1  0.25635664  -0.00503132  0.74390729  1
  Zn  Zn96  1  0.00431679  0.50489259  -0.00386684  1
  Zn  Zn97  1  0.36336385  -0.00002708  0.37185151  1
  Zn  Zn98  1  0.61883844  0.25540518  0.37505506  1
  Zn  Zn99  1  0.49733155  0.24998638  0.25207768  1
  Zn  Zn100  1  0.86536186  0.11733660  0.24880862  1
  Zn  Zn101  1  0.49669850  0.87178420  0.37302135  1
  Zn  Zn102  1  -0.00007988  0.62529304  0.62450473  1
  Zn  Zn103  1  0.87075667  0.50406793  0.37835719  1
  Zn  Zn104  1  0.74385130  0.37219878  0.62534370  1
  Zn  Zn105  1  0.48583606  0.38321011  0.36222145  1
  Zn  Zn106  1  0.30163663  0.54015540  0.22857969  1
  Zn  Zn107  1  0.18371689  0.19065679  0.19063765  1
  Zn  Zn108  1  0.19648583  0.17913319  0.68203824  1
  Zn  Zn109  1  0.18660913  0.68847017  0.19057196  1
  Zn  Zn110  1  0.18650227  0.68563944  0.68875673  1
  Zn  Zn111  1  0.69350895  0.19314814  0.18532126  1
  Zn  Zn112  1  0.68883449  0.18380817  0.68257131  1
  Zn  Zn113  1  0.68751964  0.68814216  0.19081793  1
  Zn  Zn114  1  0.68698688  0.68589385  0.68862564  1
  Zn  Zn115  1  0.31130253  0.31037082  0.31146691  1
  Zn  Zn116  1  0.31819640  0.30818796  0.81061535  1
  Zn  Zn117  1  0.31434314  0.80815564  0.31407151  1
  Zn  Zn118  1  0.31079971  0.81416493  0.81552031  1
  Zn  Zn119  1  0.81159759  0.31290517  0.31322277  1
  Zn  Zn120  1  0.81317367  0.31167496  0.81133423  1
  Zn  Zn121  1  0.81064034  0.81572010  0.31161289  1
  Zn  Zn122  1  0.81446864  0.81211331  0.81279820  1
  Zn  Zn123  1  0.18553665  0.43706969  0.43650967  1
  Zn  Zn124  1  0.18633384  0.43643065  0.93794528  1
  Zn  Zn125  1  0.18349514  0.94525754  0.43720218  1
  Zn  Zn126  1  0.18765583  0.93274992  0.93915296  1
  Zn  Zn127  1  0.68389690  0.43905712  0.43513380  1
  Zn  Zn128  1  0.68857401  0.42887464  0.93319927  1
  Zn  Zn129  1  0.68359037  0.93476250  0.43862112  1
  Zn  Zn130  1  0.68694356  0.94054498  0.94061650  1
  Zn  Zn131  1  0.31241519  0.06308438  0.06319733  1
  Zn  Zn132  1  0.30762244  0.07012033  0.55454814  1
  Zn  Zn133  1  0.31259296  0.55771441  0.05444476  1
  Zn  Zn134  1  0.31079638  0.56540393  0.56275106  1
  Zn  Zn135  1  0.81302159  0.06274604  0.05926556  1
  Zn  Zn136  1  0.80672268  0.06164843  0.56317781  1
  Zn  Zn137  1  0.81599425  0.55855296  0.06534549  1
  Zn  Zn138  1  0.81213483  0.55913707  0.56641399  1
  Zn  Zn139  1  0.44647095  0.50958311  0.18119956  1
  Zn  Zn140  1  0.44230761  0.43548980  0.69155007  1
  Zn  Zn141  1  0.44017517  0.93674497  0.19083284  1
  Zn  Zn142  1  0.43722883  0.93792780  0.68709908  1
  Zn  Zn143  1  0.94029733  0.44396537  0.18808750  1
  Zn  Zn144  1  0.93600325  0.43433190  0.68492833  1
  Zn  Zn145  1  0.93806773  0.94418035  0.18644562  1
  Zn  Zn146  1  0.93840749  0.93573208  0.68681027  1
  Zn  Zn147  1  0.03302535  0.05588419  0.30330775  1
  Zn  Zn148  1  0.06675548  0.06094015  0.80914378  1
  Zn  Zn149  1  0.06332461  0.56047779  0.31055581  1
  Zn  Zn150  1  0.06422998  0.56306395  0.81065319  1
  Zn  Zn151  1  0.56089374  0.06563317  0.31509343  1
  Zn  Zn152  1  0.56155264  0.06423712  0.81527881  1
  Zn  Zn153  1  0.57182906  0.56045170  0.31552521  1
  Zn  Zn154  1  0.56211165  0.56161413  0.81885417  1
  Zn  Zn155  1  0.43468340  0.19614278  0.43486251  1
  Zn  Zn156  1  0.43758071  0.18762587  0.93859821  1
  Zn  Zn157  1  0.44191857  0.69127457  0.43785596  1
  Zn  Zn158  1  0.43341846  0.68463397  0.93970296  1
  Zn  Zn159  1  0.93435695  0.18963398  0.43138598  1
  Zn  Zn160  1  0.93958945  0.18585907  0.92766226  1
  Zn  Zn161  1  0.93688532  0.68984525  0.43952071  1
  Zn  Zn162  1  0.93280268  0.69001372  0.93834225  1
  Zn  Zn163  1  0.06642792  0.31514755  0.06178546  1
  Zn  Zn164  1  0.06362281  0.31285527  0.56345884  1
  Zn  Zn165  1  0.06547158  0.81348283  0.06222715  1
  Zn  Zn166  1  0.05955305  0.81794448  0.56324006  1
  Zn  Zn167  1  0.56096853  0.31991147  0.06526440  1
  Zn  Zn168  1  0.55381007  0.31335475  0.56697641  1
  Zn  Zn169  1  0.56184204  0.80725629  0.06993960  1
  Zn  Zn170  1  0.55855213  0.81178605  0.56045754  1
  O  O171  1  0.12138615  0.11897247  0.11326668  1
  O  O172  1  0.12303994  0.10846162  0.62416741  1
  O  O173  1  0.11670168  0.61750377  0.13208295  1
  O  O174  1  0.11998394  0.61580802  0.62366979  1
  O  O175  1  0.62163719  0.11804731  0.12207418  1
  O  O176  1  0.62919667  0.11280133  0.61514420  1
  O  O177  1  0.63420555  0.61051925  0.12458659  1
  O  O178  1  0.61509276  0.62792527  0.61878717  1
  O  O179  1  0.36974435  0.37443912  0.39046877  1
  O  O180  1  0.39372546  0.37311897  0.86608865  1
  O  O181  1  0.37478769  0.87786656  0.38569495  1
  O  O182  1  0.38264746  0.87814365  0.88664754  1
  O  O183  1  0.88238914  0.37803593  0.38324662  1
  O  O184  1  0.88675733  0.37919026  0.87532469  1
  O  O185  1  0.88084245  0.86937462  0.38458330  1
  O  O186  1  0.89014180  0.86804249  0.88131454  1
  O  O187  1  0.24748622  0.01653826  0.37501442  1
  O  O188  1  0.26627820  -0.00146415  0.88434682  1
  O  O189  1  0.24342073  0.52164674  0.38485922  1
  O  O190  1  0.24191839  0.51043242  0.86689283  1
  O  O191  1  0.74472960  0.01060344  0.37760685  1
  O  O192  1  0.74645482  0.00332066  0.86189468  1
  O  O193  1  0.75073145  0.50072981  0.36143557  1
  O  O194  1  0.75534500  0.50679421  0.86999676  1
  O  O195  1  0.24263298  0.49339862  0.12681241  1
  O  O196  1  0.23819162  0.50637725  0.63476311  1
  O  O197  1  0.24071927  0.98904317  0.11810538  1
  O  O198  1  0.23883122  0.99900867  0.61845976  1
  O  O199  1  0.74539075  0.49445519  0.13241976  1
  O  O200  1  0.74716387  0.49377670  0.63613500  1
  O  O201  1  0.74459525  0.99014608  0.12237287  1
  O  O202  1  0.73921856  0.98978182  0.63329984  1
  O  O203  1  0.00349042  0.37234897  0.25561412  1
  O  O204  1  0.00655392  0.36762227  0.75404043  1
  O  O205  1  0.00487751  0.86803772  0.25857193  1
  O  O206  1  0.00032095  0.86783829  0.75893447  1
  O  O207  1  0.51651733  0.37759405  0.24370049  1
  O  O208  1  0.51452588  0.37768969  0.76120444  1
  O  O209  1  0.51297200  0.86909244  0.25071220  1
  O  O210  1  0.50489584  0.86803106  0.75644193  1
  O  O211  1  0.49261908  0.12742255  0.24316675  1
  O  O212  1  0.48591481  0.12187169  0.75372494  1
  O  O213  1  0.50423543  0.63010218  0.25216695  1
  O  O214  1  0.49280821  0.62830587  0.74663261  1
  O  O215  1  1.01642961  0.14558146  0.23235655  1
  O  O216  1  0.99125334  0.13149941  0.75553062  1
  O  O217  1  0.99423262  0.63190208  0.24209013  1
  O  O218  1  0.99172983  0.63239042  0.74983666  1
  O  O219  1  0.36509741  0.24153618  0.01349950  1
  O  O220  1  0.37157945  0.26691272  0.50665232  1
  O  O221  1  0.36635194  0.75083073  0.00920140  1
  O  O222  1  0.36905161  0.75802933  0.50763960  1
  O  O223  1  0.88163360  0.26424721  -0.00925167  1
  O  O224  1  0.86766789  0.25265901  0.50619655  1
  O  O225  1  0.86562815  0.75914890  0.00737679  1
  O  O226  1  0.87674211  0.75751107  0.51264272  1
  O  O227  1  0.12589907  0.24844990  0.50190996  1
  O  O228  1  0.13187896  0.24185152  0.99706554  1
  O  O229  1  0.13003988  0.75182094  0.49553602  1
  O  O230  1  0.13826228  0.75236655  0.99444847  1
  O  O231  1  0.62855524  0.24381002  0.50280321  1
  O  O232  1  0.62573097  0.23726992  1.00661586  1
  O  O233  1  0.61871173  0.74437805  0.48688775  1
  O  O234  1  0.63775930  0.75503611  0.99794922  1
  O  O235  1  0.49085045  0.24560078  0.12520569  1
  O  O236  1  0.47702175  0.24343673  0.61718591  1
  O  O237  1  0.49934363  0.74583217  0.14224148  1
  O  O238  1  0.49236418  0.74047977  0.63011372  1
  O  O239  1  1.00033747  0.24547538  0.12679647  1
  O  O240  1  0.99068467  0.25327655  0.63574601  1
  O  O241  1  0.99655874  0.74707815  0.13046976  1
  O  O242  1  0.99082417  0.74997722  0.63122099  1
  O  O243  1  -0.00296349  0.26394417  0.36646649  1
  O  O244  1  0.00464766  0.25688378  0.86019554  1
  O  O245  1  0.00632876  0.76066900  0.37461236  1
  O  O246  1  0.00714217  0.75349708  0.87230220  1
  O  O247  1  0.50098094  0.26216009  0.36920167  1
  O  O248  1  0.50188864  0.26260352  0.88289948  1
  O  O249  1  0.50821292  0.75093268  0.36310584  1
  O  O250  1  0.50458185  0.75366401  0.87292176  1
  O  O251  1  0.23982923  0.12645424  0.48309386  1
  O  O252  1  0.24336944  0.13475596  0.99929738  1
  O  O253  1  0.24679623  0.63894944  0.49375256  1
  O  O254  1  0.25312343  0.63069487  0.98875792  1
  O  O255  1  0.73785850  0.12955809  0.49374523  1
  O  O256  1  0.74363401  0.12257620  0.99016790  1
  O  O257  1  0.73642896  0.62252209  0.50820063  1
  O  O258  1  0.76122793  0.63558927  0.99286940  1
  O  O259  1  0.24287813  0.36340459  0.00831914  1
  O  O260  1  0.26000988  0.37813996  0.50193423  1
  O  O261  1  0.25574720  0.86450774  0.01030206  1
  O  O262  1  0.25568192  0.86559429  0.49574609  1
  O  O263  1  0.76961857  0.37171754  -0.00648836  1
  O  O264  1  0.75197327  0.36793384  0.50111932  1
  O  O265  1  0.75554068  0.87051141  0.00698564  1
  O  O266  1  0.75889772  0.88077294  0.50896614  1
  O  O267  1  0.11679622  0.48611535  0.23785557  1
  O  O268  1  0.13156004  0.49297625  0.74394959  1
  O  O269  1  0.11516226  0.99396068  0.23474157  1
  O  O270  1  0.12705464  0.99761311  0.73681241  1
  O  O271  1  0.63207639  0.49423186  0.24091485  1
  O  O272  1  0.63661873  0.50333233  0.74959611  1
  O  O273  1  0.61947467  0.99283706  0.24003362  1
  O  O274  1  0.62861566  0.99449566  0.74334000  1
  O  O275  1  0.37766056  0.01318936  0.24981934  1
  O  O276  1  0.37922639  0.00591515  0.75946419  1
  O  O277  1  0.38040006  0.46862039  0.25612652  1
  O  O278  1  0.36590171  0.50859979  0.74285399  1
  O  O279  1  0.92403432  0.02084712  0.26399648  1
  O  O280  1  0.86504684  0.00704090  0.74174570  1
  O  O281  1  0.86789932  0.50880748  0.25062777  1
  O  O282  1  0.86495756  0.50161340  0.75478218  1
  O  O283  1  0.11787039  0.38257503  0.36057122  1
  O  O284  1  0.11528444  0.37462564  0.86352468  1
  O  O285  1  0.11964372  0.86700162  0.37196594  1
  O  O286  1  0.11455632  0.86297811  0.87725919  1
  O  O287  1  0.62300424  0.37858193  0.35795723  1
  O  O288  1  0.62160550  0.37222463  0.86041828  1
  O  O289  1  0.62292653  0.86474691  0.36924735  1
  O  O290  1  0.62043135  0.86961140  0.87190986  1
  O  O291  1  0.37929787  0.12966008  0.13171219  1
  O  O292  1  0.37821820  0.11553996  0.63515059  1
  O  O293  1  0.36955482  0.60174888  0.14163911  1
  O  O294  1  0.37956573  0.63525107  0.63364420  1
  O  O295  1  0.88917344  0.11910637  0.12542620  1
  O  O296  1  0.86622821  0.13536232  0.63496834  1
  O  O297  1  0.88299463  0.63181535  0.13355047  1
  O  O298  1  0.87482196  0.63358945  0.63066165  1
  O  O299  1  0.25335564  0.25581675  0.11902013  1
  O  O300  1  0.27175156  0.23598193  0.61580838  1
  O  O301  1  0.25365556  0.75334735  0.12032871  1
  O  O302  1  0.25761643  0.74507804  0.61754637  1
  O  O303  1  0.75711069  0.25358796  0.11815177  1
  O  O304  1  0.75581551  0.24992714  0.61291505  1
  O  O305  1  0.75320733  0.76041882  0.12014220  1
  O  O306  1  0.75572356  0.76291347  0.63269344  1
  O  O307  1  0.24995045  0.23235760  0.37462982  1
  O  O308  1  0.24950060  0.24924046  0.88336790  1
  O  O309  1  0.24188549  0.74468861  0.38341305  1
  O  O310  1  0.24317283  0.74205819  0.88333095  1
  O  O311  1  0.74495530  0.24837192  0.38724032  1
  O  O312  1  0.75282814  0.23653132  0.87741074  1
  O  O313  1  0.73440239  0.75184636  0.37110371  1
  O  O314  1  0.74753913  0.74439897  0.88360024  1
  O  O315  1  0.00646093  0.12067806  0.00080798  1
  O  O316  1  -0.00558196  0.11055753  0.49178771  1
  O  O317  1  -0.00521655  0.62838243  0.01339115  1
  O  O318  1  -0.00063950  0.61218928  0.50091777  1
  O  O319  1  0.50756829  0.11823198  0.00704437  1
  O  O320  1  0.50955467  0.11877192  0.49322001  1
  O  O321  1  0.50112337  0.60831908  -0.01199433  1
  O  O322  1  0.50379696  0.62043055  0.50843840  1
  O  O323  1  0.48935720  0.38630559  0.50048712  1
  O  O324  1  0.51001906  0.38481951  0.98588657  1
  O  O325  1  0.48890424  0.88141328  0.49773688  1
  O  O326  1  0.49644503  0.87698622  1.00017971  1
  O  O327  1  0.99486761  0.38339522  0.49392338  1
  O  O328  1  0.99511466  0.37600392  0.98811458  1
  O  O329  1  0.98597813  0.88178813  0.49649139  1
  O  O330  1  0.99673258  0.88207285  0.99510133  1
  O  O331  1  0.50277320  0.50163837  0.38826677  1
  O  O332  1  0.50799336  0.48905029  0.88501472  1
  O  O333  1  0.49967897  0.99555788  0.38766240  1
  O  O334  1  0.49298120  0.99230991  0.88308114  1
  O  O335  1  0.99840210  0.49115621  0.38319922  1
  O  O336  1  0.99587132  0.49305912  0.87322631  1
  O  O337  1  1.01069050  0.98410892  0.39373416  1
  O  O338  1  1.00864322  0.99115342  0.88539888  1
  O  O339  1  0.01087507  0.00642130  0.10916310  1
  O  O340  1  0.00056270  0.00046189  0.61370357  1
  O  O341  1  0.00658339  0.51125536  0.12157027  1
  O  O342  1  0.00723383  0.49941061  0.61787085  1
  O  O343  1  0.50863321  0.00534846  0.12139539  1
  O  O344  1  0.51144390  -0.00804819  0.61434585  1
  O  O345  1  0.52111241  0.49719495  0.10154192  1
  O  O346  1  0.50069046  0.51282190  0.62167264  1
  O  O347  1  0.23706634  0.37043413  0.24346355  1
  O  O348  1  0.24363882  0.38438132  0.75680795  1
  O  O349  1  0.24591826  0.86811939  0.23940694  1
  O  O350  1  0.24821365  0.88192471  0.75589834  1
  O  O351  1  0.74539165  0.38359666  0.24876434  1
  O  O352  1  0.73792016  0.37917694  0.75191245  1
  O  O353  1  0.73720631  0.87140943  0.24154291  1
  O  O354  1  0.74521524  0.88055335  0.74577698  1
  O  O355  1  0.25404211  0.12805277  0.25832184  1
  O  O356  1  0.26448992  0.11430683  0.75359057  1
  O  O357  1  0.24525610  0.62935915  0.26975840  1
  O  O358  1  0.25563293  0.61663992  0.75662181  1
  O  O359  1  0.74712186  0.12508667  0.26415590  1
  O  O360  1  0.75383344  0.11710609  0.75558928  1
  O  O361  1  0.76081474  0.61705772  0.24387901  1
  O  O362  1  0.75546728  0.61783010  0.75691199  1
  O  O363  1  0.37411963  0.12359149  0.36515909  1
  O  O364  1  0.37662096  0.11571793  0.87040390  1
  O  O365  1  0.36271438  0.62904908  0.38175729  1
  O  O366  1  0.36375390  0.63120195  0.86146662  1
  O  O367  1  0.85279601  0.12838157  0.37838410  1
  O  O368  1  0.86606184  0.12420269  0.86076342  1
  O  O369  1  0.88156406  0.62602048  0.36157598  1
  O  O370  1  0.86591874  0.62136968  0.86935853  1
  O  O371  1  0.13205611  0.38262584  0.13260985  1
  O  O372  1  0.12081541  0.38407787  0.63829363  1
  O  O373  1  0.13332696  0.88176183  0.12918017  1
  O  O374  1  0.11531982  0.89339447  0.62651311  1
  O  O375  1  0.63180981  0.38476033  0.13334541  1
  O  O376  1  0.62185304  0.37488778  0.64147604  1
  O  O377  1  0.63247703  0.88138251  0.13203700  1
  O  O378  1  0.63045327  0.87773090  0.62866803  1
  O  O379  1  0.11327404  0.27058870  0.24180962  1
  O  O380  1  0.12161301  0.25401221  0.74546230  1
  O  O381  1  0.11878803  0.75808586  0.25845001  1
  O  O382  1  0.11788269  0.75115351  0.75777064  1
  O  O383  1  0.62502208  0.26465495  0.24879162  1
  O  O384  1  0.62672300  0.25404907  0.74915995  1
  O  O385  1  0.61775645  0.75323535  0.25880633  1
  O  O386  1  0.61935844  0.75518148  0.75751059  1
  O  O387  1  0.37352820  0.24158163  0.23734952  1
  O  O388  1  0.37199703  0.23658693  0.73672627  1
  O  O389  1  0.39166449  0.75011407  0.24968444  1
  O  O390  1  0.37919995  0.74432090  0.74457452  1
  O  O391  1  0.88691504  0.24410101  0.25386799  1
  O  O392  1  0.88147347  0.24281403  0.74295583  1
  O  O393  1  0.87867844  0.74584566  0.24446606  1
  O  O394  1  0.87946042  0.74630044  0.74049747  1
  O  O395  1  0.38057670  0.48893305  0.51060757  1
  O  O396  1  0.38885372  0.49579561  0.99572292  1
  O  O397  1  0.38037484  0.99338851  0.50071443  1
  O  O398  1  0.38381928  0.99439026  0.99666580  1
  O  O399  1  0.88127915  0.49344257  0.50120008  1
  O  O400  1  0.88016757  0.49095208  0.99000880  1
  O  O401  1  0.88283286  0.99226430  0.50727783  1
  O  O402  1  0.88620998  0.99286650  1.00137633  1
  O  O403  1  0.12121781  0.00566537  0.00603270  1
  O  O404  1  0.11064871  0.00181156  0.51118939  1
  O  O405  1  0.12197036  0.49519873  0.01499684  1
  O  O406  1  0.11760617  0.49943625  0.50937121  1
  O  O407  1  0.62092965  0.00456507  0.01347900  1
  O  O408  1  0.61717258  0.00513291  0.50636022  1
  O  O409  1  0.63839712  0.50027561  0.00745992  1
  O  O410  1  0.61652349  0.50812616  0.50376994  1
  O  O411  1  0.36079347  0.36557331  0.12442604  1
  O  O412  1  0.37603299  0.36813007  0.62255575  1
  O  O413  1  0.36784900  0.87817565  0.12090807  1
  O  O414  1  0.37983245  0.86297196  0.61787243  1
  O  O415  1  0.88133775  0.38169167  0.10795060  1
  O  O416  1  0.87085827  0.36150853  0.61962143  1
  O  O417  1  0.86897058  0.87343240  0.12326071  1
  O  O418  1  0.86645989  0.86872280  0.61972335  1
  O  O419  1  0.12565739  0.11950268  0.36692493  1
  O  O420  1  0.12908711  0.12398666  0.88586958  1
  O  O421  1  0.12154517  0.63959045  0.37741457  1
  O  O422  1  0.13198492  0.63685793  0.87111699  1
  O  O423  1  0.63322993  0.12928451  0.38254202  1
  O  O424  1  0.63422553  0.11630536  0.88651528  1
  O  O425  1  0.62450868  0.63676681  0.38445214  1
  O  O426  1  0.63970259  0.63262217  0.87127182  1
