# generated using pymatgen
data_V85Zn86O256
_symmetry_space_group_name_H-M   'P 1'
_cell_length_a   16.92199826
_cell_length_b   16.92016833
_cell_length_c   16.92195636
_cell_angle_alpha   90.03393150
_cell_angle_beta   90.01289930
_cell_angle_gamma   89.94478292
_symmetry_Int_Tables_number   1
_chemical_formula_structural   V85Zn86O256
_chemical_formula_sum   'V85 Zn86 O256'
_cell_volume   4845.14308487
_cell_formula_units_Z   1
loop_
 _symmetry_equiv_pos_site_id
 _symmetry_equiv_pos_as_xyz
  1  'x, y, z'
loop_
 _atom_site_type_symbol
 _atom_site_label
 _atom_site_symmetry_multiplicity
 _atom_site_fract_x
 _atom_site_fract_y
 _atom_site_fract_z
 _atom_site_occupancy
  V  V0  1  0.11895587  0.12148077  -0.00505514  1
  V  V1  1  0.75574725  0.50199464  0.26185680  1
  V  V2  1  -0.00190422  0.74795131  0.75138326  1
  V  V3  1  0.12810776  0.12350257  0.49431093  1
  V  V4  1  0.37487739  0.62380462  0.24988451  1
  V  V5  1  0.62756783  0.00120682  0.12909499  1
  V  V6  1  0.62731296  0.36550837  0.25253110  1
  V  V7  1  0.37572105  0.38017249  0.00094429  1
  V  V8  1  0.87284326  0.87962517  0.49499615  1
  V  V9  1  0.25181317  0.24606514  0.00421720  1
  V  V10  1  0.74979148  0.74711125  0.49237600  1
  V  V11  1  0.74750617  0.87587522  0.62408081  1
  V  V12  1  0.25398908  0.62164216  0.87030035  1
  V  V13  1  0.62330325  0.39124595  0.75150920  1
  V  V14  1  0.25625664  0.86708759  0.62674929  1
  V  V15  1  0.74499042  0.24715729  0.48748857  1
  V  V16  1  0.37710895  0.49825792  0.37778557  1
  V  V17  1  0.62720708  0.12501854  0.48514820  1
  V  V18  1  0.87600587  0.12647932  0.74999762  1
  V  V19  1  0.74945155  0.12700010  0.87377589  1
  V  V20  1  -0.00257063  0.38036587  0.37111313  1
  V  V21  1  0.12457280  0.49490394  0.11996109  1
  V  V22  1  0.25046549  0.87706997  0.11995643  1
  V  V23  1  0.87599709  0.75655791  0.12101165  1
  V  V24  1  0.00173449  0.75050944  0.24966514  1
  V  V25  1  0.37570881  0.00349625  0.87504663  1
  V  V26  1  -0.00443846  0.00091007  0.49831042  1
  V  V27  1  0.49400088  0.24461675  0.25432819  1
  V  V28  1  0.13060960  0.26119839  0.86978391  1
  V  V29  1  0.13068369  0.37152540  0.24691918  1
  V  V30  1  0.24875885  0.37343697  0.63552367  1
  V  V31  1  0.87385462  0.11999800  0.26747195  1
  V  V32  1  0.89195893  0.37804732  0.00040407  1
  V  V33  1  0.86698657  0.61947813  0.75112107  1
  V  V34  1  0.62161252  0.25747554  0.87411659  1
  V  V35  1  0.37068066  0.74799482  0.11943922  1
  V  V36  1  0.12921177  0.87856828  0.25154442  1
  V  V37  1  0.62497029  0.74002976  0.37327077  1
  V  V38  1  0.25158221  0.25242485  0.49936471  1
  V  V39  1  0.74920731  -0.00016241  0.75030153  1
  V  V40  1  0.86971454  0.25145200  0.62481078  1
  V  V41  1  0.11939886  0.49375093  0.63198313  1
  V  V42  1  0.26642013  0.00627770  0.25537951  1
  V  V43  1  0.48638311  0.75205388  0.74405673  1
  V  V44  1  0.50061054  0.74972945  0.24964593  1
  V  V45  1  0.12484928  0.62321842  0.49787244  1
  V  V46  1  -0.00214188  0.87923943  0.37486890  1
  V  V47  1  0.12348263  0.87598733  0.75062581  1
  V  V48  1  0.75045894  0.00294930  0.26686359  1
  V  V49  1  0.75404529  0.37538742  0.12391168  1
  V  V50  1  0.37372327  0.12797974  0.75036935  1
  V  V51  1  0.87280142  0.38163313  0.49449412  1
  V  V52  1  0.24873397  0.00519761  0.75437668  1
  V  V53  1  0.87474374  0.62153518  0.26095046  1
  V  V54  1  -0.00071276  0.12632883  0.62528721  1
  V  V55  1  -0.00186935  0.62036289  0.12093688  1
  V  V56  1  0.50168946  0.25508575  0.75065357  1
  V  V57  1  0.50173370  0.62128333  0.12211990  1
  V  V58  1  0.37679369  0.86918309  -0.00765942  1
  V  V59  1  0.48135540  0.62183724  0.62735922  1
  V  V60  1  0.62378592  0.12685767  0.00035620  1
  V  V61  1  0.87408058  -0.00246513  0.88214590  1
  V  V62  1  0.75373772  0.75358921  -0.00302966  1
  V  V63  1  0.61937986  0.74938770  0.87402449  1
  V  V64  1  0.37463282  0.87066141  0.49470960  1
  V  V65  1  0.48974384  0.12520580  0.12788302  1
  V  V66  1  -0.00434228  0.87600810  0.88326108  1
  V  V67  1  0.12796434  0.74972284  0.88191846  1
  V  V68  1  0.87528972  0.75013087  0.62479098  1
  V  V69  1  0.12496842  0.00044339  0.62606806  1
  V  V70  1  0.50187497  -0.00350143  -0.00618608  1
  V  V71  1  0.00195189  0.26449521  0.75439075  1
  V  V72  1  0.62608967  0.62050281  0.51213572  1
  V  V73  1  0.49214988  0.00402081  0.49678845  1
  V  V74  1  0.50607364  0.37202123  0.37851462  1
  V  V75  1  0.00147438  0.24308595  0.24635962  1
  V  V76  1  0.87764160  0.23736684  0.12262446  1
  V  V77  1  0.12925597  0.62661129  0.00272845  1
  V  V78  1  0.74467596  0.38835456  0.62867545  1
  V  V79  1  0.75132765  0.25331667  -0.00047667  1
  V  V80  1  0.62764596  0.87557706  0.25073114  1
  V  V81  1  0.25333247  0.49382676  0.24470612  1
  V  V82  1  0.88150350  0.49409855  0.87687218  1
  V  V83  1  0.61909939  0.87495854  0.75395040  1
  V  V84  1  0.62932812  0.49949671  0.12519113  1
  Zn  Zn85  1  0.62312111  0.00332771  0.62422450  1
  Zn  Zn86  1  0.37545560  0.25134418  0.62694565  1
  Zn  Zn87  1  0.38779920  0.49221774  0.86393978  1
  Zn  Zn88  1  0.26988420  0.12393084  0.37582781  1
  Zn  Zn89  1  -0.00079400  0.62345515  0.62291585  1
  Zn  Zn90  1  0.74979276  0.62052213  0.87369663  1
  Zn  Zn91  1  -0.00377210  0.50301497  0.49381777  1
  Zn  Zn92  1  0.75527174  0.87815823  0.12238963  1
  Zn  Zn93  1  0.51008921  0.48649150  -0.00847779  1
  Zn  Zn94  1  0.36986461  0.25320407  0.12903318  1
  Zn  Zn95  1  0.50576848  0.49624366  0.50722299  1
  Zn  Zn96  1  0.49609635  0.87733091  0.37313167  1
  Zn  Zn97  1  -0.00831434  0.00285566  0.01032659  1
  Zn  Zn98  1  0.12981450  0.74959878  0.37736120  1
  Zn  Zn99  1  0.25017838  0.50049944  0.75110021  1
  Zn  Zn100  1  0.50572586  0.12528660  0.62704589  1
  Zn  Zn101  1  0.25558718  0.74298583  0.50268036  1
  Zn  Zn102  1  0.12211990  0.00950619  0.12828217  1
  Zn  Zn103  1  0.62730415  0.62276636  -0.00391815  1
  Zn  Zn104  1  0.37648684  0.37541823  0.50310215  1
  Zn  Zn105  1  0.12798396  0.24730199  0.37192457  1
  Zn  Zn106  1  0.25023192  0.62548855  0.37515861  1
  Zn  Zn107  1  0.18774569  0.18325336  0.18306163  1
  Zn  Zn108  1  0.18663468  0.18833340  0.68814248  1
  Zn  Zn109  1  0.18993089  0.68762222  0.18890136  1
  Zn  Zn110  1  0.18312086  0.68503961  0.68745699  1
  Zn  Zn111  1  0.68847888  0.18445863  0.19100636  1
  Zn  Zn112  1  0.68590309  0.18950162  0.68378184  1
  Zn  Zn113  1  0.69307512  0.68526255  0.18653555  1
  Zn  Zn114  1  0.68577995  0.69096247  0.68640937  1
  Zn  Zn115  1  0.31454156  0.31082680  0.31735076  1
  Zn  Zn116  1  0.31161387  0.31501736  0.81790227  1
  Zn  Zn117  1  0.31107363  0.81082629  0.31392407  1
  Zn  Zn118  1  0.30768917  0.81339687  0.81700761  1
  Zn  Zn119  1  0.81432499  0.31148694  0.31018560  1
  Zn  Zn120  1  0.81138279  0.31866032  0.81202260  1
  Zn  Zn121  1  0.81356730  0.81173032  0.31022006  1
  Zn  Zn122  1  0.81069670  0.81199550  0.81391820  1
  Zn  Zn123  1  0.18630863  0.43758833  0.43617286  1
  Zn  Zn124  1  0.19123148  0.43416713  0.94146379  1
  Zn  Zn125  1  0.19067095  0.93809879  0.43615741  1
  Zn  Zn126  1  0.19010096  0.93687483  0.93633833  1
  Zn  Zn127  1  0.68785801  0.43747385  0.43877514  1
  Zn  Zn128  1  0.69682210  0.44043867  0.93502221  1
  Zn  Zn129  1  0.67843917  0.93652833  0.43698102  1
  Zn  Zn130  1  0.68788959  0.93353272  0.93737390  1
  Zn  Zn131  1  0.30652928  0.06411596  0.05921884  1
  Zn  Zn132  1  0.31364426  0.06069581  0.56609551  1
  Zn  Zn133  1  0.30819753  0.56165446  0.06062938  1
  Zn  Zn134  1  0.30843948  0.55659097  0.56231518  1
  Zn  Zn135  1  0.80925004  0.06358391  0.06350834  1
  Zn  Zn136  1  0.80883185  0.06332034  0.55805585  1
  Zn  Zn137  1  0.81391943  0.56448321  0.05996719  1
  Zn  Zn138  1  0.81340086  0.56545248  0.55996896  1
  Zn  Zn139  1  0.43830238  0.43189352  0.18305229  1
  Zn  Zn140  1  0.43438613  0.43980627  0.68919570  1
  Zn  Zn141  1  0.44211237  0.93219609  0.17918177  1
  Zn  Zn142  1  0.43740755  0.93772575  0.68275219  1
  Zn  Zn143  1  0.93892875  0.43596532  0.18632586  1
  Zn  Zn144  1  0.93344561  0.44033922  0.68572629  1
  Zn  Zn145  1  0.93878166  0.94240369  0.18882477  1
  Zn  Zn146  1  0.93614425  0.93706060  0.68933088  1
  Zn  Zn147  1  0.06223968  0.05948123  0.31087052  1
  Zn  Zn148  1  0.06208806  0.06941268  0.81791782  1
  Zn  Zn149  1  0.06356559  0.56117829  0.30956629  1
  Zn  Zn150  1  0.05926719  0.56171710  0.81394936  1
  Zn  Zn151  1  0.44634365  0.06021797  0.31361171  1
  Zn  Zn152  1  0.56159187  0.06495705  0.81241792  1
  Zn  Zn153  1  0.56410519  0.55836370  0.31142520  1
  Zn  Zn154  1  0.55811563  0.56965489  0.81037084  1
  Zn  Zn155  1  0.44197838  0.19232946  0.44191698  1
  Zn  Zn156  1  0.43704198  0.18814407  0.93556490  1
  Zn  Zn157  1  0.43892893  0.68808589  0.43970967  1
  Zn  Zn158  1  0.44357353  0.67996648  0.93308470  1
  Zn  Zn159  1  0.94009182  0.19510032  0.43794852  1
  Zn  Zn160  1  0.94152778  0.19021495  0.93427919  1
  Zn  Zn161  1  0.94245838  0.69170544  0.43750171  1
  Zn  Zn162  1  0.93863936  0.68310703  0.93869581  1
  Zn  Zn163  1  0.06730514  0.30612792  0.06549434  1
  Zn  Zn164  1  0.06115027  0.31214429  0.56087169  1
  Zn  Zn165  1  0.06261802  0.81522514  0.06506042  1
  Zn  Zn166  1  0.06471158  0.81139133  0.56286313  1
  Zn  Zn167  1  0.55912199  0.31292364  0.06503486  1
  Zn  Zn168  1  0.56555436  0.31003758  0.56523930  1
  Zn  Zn169  1  0.56242042  0.81181129  0.06194405  1
  Zn  Zn170  1  0.55938932  0.81112728  0.56480615  1
  O  O171  1  0.13048629  0.12540568  0.10316584  1
  O  O172  1  0.12002461  0.11981754  0.61545867  1
  O  O173  1  0.12077713  0.61979656  0.12107008  1
  O  O174  1  0.12266092  0.61221188  0.61792940  1
  O  O175  1  0.61980270  0.11776226  0.11913580  1
  O  O176  1  0.62416455  0.12078574  0.62023999  1
  O  O177  1  0.61906993  0.61562099  0.12765352  1
  O  O178  1  0.61813594  0.63209013  0.61574705  1
  O  O179  1  0.38469719  0.38288163  0.37774958  1
  O  O180  1  0.37186691  0.37620186  0.89194638  1
  O  O181  1  0.37496065  0.87470028  0.38975740  1
  O  O182  1  0.37021321  0.88445398  0.88595618  1
  O  O183  1  0.88351519  0.36805666  0.38274697  1
  O  O184  1  0.87413579  0.38451847  0.88347054  1
  O  O185  1  0.88479917  0.86965190  0.38262829  1
  O  O186  1  0.88305597  0.88543519  0.86791691  1
  O  O187  1  0.25141892  0.00087887  0.35876089  1
  O  O188  1  0.25885556  -0.00475952  0.86203044  1
  O  O189  1  0.25995706  0.49911262  0.36406791  1
  O  O190  1  0.24242769  0.51456153  0.87518532  1
  O  O191  1  0.74735963  -0.00491945  0.36586090  1
  O  O192  1  0.75531643  0.00443880  0.87035538  1
  O  O193  1  0.75021327  0.49487266  0.36103270  1
  O  O194  1  0.76936095  0.50574919  0.87821804  1
  O  O195  1  0.24249885  0.50300680  0.13787547  1
  O  O196  1  0.23714317  0.49041607  0.62544251  1
  O  O197  1  0.25022191  0.99295965  0.13514097  1
  O  O198  1  0.24416634  0.99193426  0.63620632  1
  O  O199  1  0.74548052  0.49406563  0.13024895  1
  O  O200  1  0.75269513  0.48651756  0.62205493  1
  O  O201  1  0.73808775  0.99925195  0.12741661  1
  O  O202  1  0.75087821  0.98801878  0.62963623  1
  O  O203  1  0.00524122  0.36552301  0.25444072  1
  O  O204  1  -0.00388461  0.36287814  0.74323732  1
  O  O205  1  0.00895646  0.87263227  0.25769766  1
  O  O206  1  0.00473601  0.86851422  0.75830554  1
  O  O207  1  0.50982151  0.36832801  0.25456893  1
  O  O208  1  0.51522373  0.37006631  0.74502484  1
  O  O209  1  0.50908436  0.86854287  0.24960587  1
  O  O210  1  0.50770984  0.86463351  0.74286034  1
  O  O211  1  0.50473315  0.13257943  0.24088760  1
  O  O212  1  0.49295402  0.13494918  0.75051867  1
  O  O213  1  0.49567815  0.62777318  0.23997110  1
  O  O214  1  0.50096346  0.63890147  0.73523537  1
  O  O215  1  0.98754328  0.12932849  0.25455187  1
  O  O216  1  0.99305744  0.13104745  0.74259948  1
  O  O217  1  0.99739277  0.63063330  0.24041301  1
  O  O218  1  0.99125378  0.63555632  0.74867660  1
  O  O219  1  0.36454252  0.25202524  -0.00189767  1
  O  O220  1  0.36267606  0.25128287  0.50525176  1
  O  O221  1  0.38501910  0.75865596  0.00651006  1
  O  O222  1  0.37523512  0.76524190  0.50089302  1
  O  O223  1  0.87221263  0.25388974  0.00590830  1
  O  O224  1  0.86801394  0.25812813  0.50776597  1
  O  O225  1  0.86841899  0.74552534  0.00825097  1
  O  O226  1  0.86716420  0.75611942  0.50406849  1
  O  O227  1  0.13372489  0.24107794  0.49951170  1
  O  O228  1  0.13285940  0.24425207  0.99312381  1
  O  O229  1  0.12505886  0.73508249  0.50193790  1
  O  O230  1  0.11920407  0.74201441  0.99205688  1
  O  O231  1  0.63307138  0.23733159  0.50526062  1
  O  O232  1  0.62922692  0.24971293  0.99231941  1
  O  O233  1  0.63079634  0.74616800  0.49230859  1
  O  O234  1  0.62854440  0.75092675  0.98945089  1
  O  O235  1  0.50009735  0.23997217  0.13389080  1
  O  O236  1  0.49794632  0.24964596  0.63919227  1
  O  O237  1  0.49227509  0.74385837  0.13142900  1
  O  O238  1  0.49908757  0.74326889  0.63681296  1
  O  O239  1  0.99242188  0.25156004  0.13817199  1
  O  O240  1  0.98911142  0.24604228  0.62883751  1
  O  O241  1  0.99479734  0.74481031  0.13098758  1
  O  O242  1  0.99370698  0.75180983  0.63546235  1
  O  O243  1  0.00397628  0.25759083  0.36251190  1
  O  O244  1  0.01062204  0.24865842  0.86410527  1
  O  O245  1  0.00560562  0.76215973  0.36798296  1
  O  O246  1  0.00450298  0.75609610  0.86906583  1
  O  O247  1  0.50105346  0.26379340  0.36862081  1
  O  O248  1  0.51385344  0.24685254  0.86718548  1
  O  O249  1  0.50722579  0.75270270  0.36735462  1
  O  O250  1  0.51032603  0.74319694  0.86080751  1
  O  O251  1  0.24307068  0.12889743  0.50056036  1
  O  O252  1  0.24457707  0.13807786  0.99431921  1
  O  O253  1  0.24070207  0.62396640  0.49792883  1
  O  O254  1  0.23575759  0.62512585  0.99381764  1
  O  O255  1  0.73866064  0.13259922  0.50105000  1
  O  O256  1  0.74323780  0.13321688  0.99425208  1
  O  O257  1  0.74193491  0.63761276  0.50571703  1
  O  O258  1  0.74607273  0.63877077  1.00083400  1
  O  O259  1  0.25859873  0.35864524  -0.00139553  1
  O  O260  1  0.24836763  0.36569834  0.50540645  1
  O  O261  1  0.25999363  0.88058243  0.01114890  1
  O  O262  1  0.25977544  0.87683826  0.50798534  1
  O  O263  1  0.75840968  0.36822751  0.00673876  1
  O  O264  1  0.75187540  0.36870625  0.51007177  1
  O  O265  1  0.74613215  0.86084274  0.00420281  1
  O  O266  1  0.75123362  0.86974813  0.50571558  1
  O  O267  1  0.13376832  0.49151434  0.24319697  1
  O  O268  1  0.12442536  0.50429713  0.73503254  1
  O  O269  1  0.13400034  0.98933372  0.24898201  1
  O  O270  1  0.13151367  0.99848819  0.74918391  1
  O  O271  1  0.63321120  0.49236358  0.24061038  1
  O  O272  1  0.62319217  0.48980870  0.75417362  1
  O  O273  1  0.63410259  0.99095057  0.24190617  1
  O  O274  1  0.63044988  0.99234456  0.75090422  1
  O  O275  1  0.37065527  -0.00459562  0.24674015  1
  O  O276  1  0.37080745  0.00496297  0.75626062  1
  O  O277  1  0.37052539  0.50127991  0.25380769  1
  O  O278  1  0.36367940  0.49442805  0.75451073  1
  O  O279  1  0.86699163  0.01289395  0.24805032  1
  O  O280  1  0.86818738  0.00612668  0.75773255  1
  O  O281  1  0.86750798  0.50824100  0.24319045  1
  O  O282  1  0.87854596  0.50801871  0.75994869  1
  O  O283  1  0.11853761  0.37181556  0.36272254  1
  O  O284  1  0.12440546  0.36048790  0.88105203  1
  O  O285  1  0.12070500  0.87397868  0.36764479  1
  O  O286  1  0.11986357  0.86801327  0.87015973  1
  O  O287  1  0.61878790  0.38139394  0.36391370  1
  O  O288  1  0.63377113  0.37031643  0.86151058  1
  O  O289  1  0.62246811  0.86392443  0.36359200  1
  O  O290  1  0.62825305  0.86795638  0.86140139  1
  O  O291  1  0.38713149  0.12557762  0.11912579  1
  O  O292  1  0.37823976  0.12693607  0.63946234  1
  O  O293  1  0.38050014  0.63019944  0.12693846  1
  O  O294  1  0.38269486  0.62734133  0.61872496  1
  O  O295  1  0.87243187  0.13505141  0.12898189  1
  O  O296  1  0.87717860  0.13354353  0.62850502  1
  O  O297  1  0.88423923  0.63221726  0.12966716  1
  O  O298  1  0.87764474  0.63132180  0.63158914  1
  O  O299  1  0.25172325  0.24576660  0.10991659  1
  O  O300  1  0.24821179  0.25693084  0.61809633  1
  O  O301  1  0.26445070  0.75752551  0.12961280  1
  O  O302  1  0.24083118  0.76365844  0.62521754  1
  O  O303  1  0.75803141  0.25465229  0.12071097  1
  O  O304  1  0.76057596  0.25662394  0.62013507  1
  O  O305  1  0.75951999  0.75131076  0.11820778  1
  O  O306  1  0.75400298  0.76130213  0.61680995  1
  O  O307  1  0.24708987  0.24456539  0.38370288  1
  O  O308  1  0.23654378  0.25066091  0.88163219  1
  O  O309  1  0.24779629  0.74502042  0.38057672  1
  O  O310  1  0.23467901  0.74214265  0.87232067  1
  O  O311  1  0.75091198  0.25687254  0.38849726  1
  O  O312  1  0.74150108  0.24734634  0.87814256  1
  O  O313  1  0.74243486  0.75464799  0.38482032  1
  O  O314  1  0.74185145  0.74962885  0.88139154  1
  O  O315  1  0.01314972  0.12321587  -0.00432118  1
  O  O316  1  0.00555271  0.12201475  0.50509278  1
  O  O317  1  0.01015248  0.62781332  0.01388202  1
  O  O318  1  0.00633573  0.62214093  0.50219839  1
  O  O319  1  0.50575622  0.11759143  0.00562416  1
  O  O320  1  0.50974876  0.12034260  0.50418664  1
  O  O321  1  0.50635728  0.62991783  0.01661204  1
  O  O322  1  0.50673547  0.62833230  0.51390879  1
  O  O323  1  0.50277036  0.37646031  0.49363320  1
  O  O324  1  0.48480317  0.37216559  1.00141775  1
  O  O325  1  0.48868052  0.88029622  0.50156757  1
  O  O326  1  0.49092658  0.88740681  1.00760645  1
  O  O327  1  0.98991936  0.37199661  0.48973806  1
  O  O328  1  0.99049701  0.36871268  1.00650551  1
  O  O329  1  0.99547197  0.87913100  0.49392881  1
  O  O330  1  1.00370770  0.87606286  0.98566899  1
  O  O331  1  0.49361821  0.48922022  0.37374855  1
  O  O332  1  0.49203626  0.52915234  0.88914858  1
  O  O333  1  0.50296801  0.99432242  0.39089241  1
  O  O334  1  0.49415906  1.00213660  0.88543670  1
  O  O335  1  1.00293903  0.48475236  0.37249746  1
  O  O336  1  0.98298186  0.50646649  0.87734656  1
  O  O337  1  1.00390162  0.98742126  0.38175662  1
  O  O338  1  0.99086902  0.99309563  0.87513837  1
  O  O339  1  0.01087497  -0.01181504  0.11991457  1
  O  O340  1  0.00517255  0.00534478  0.62080956  1
  O  O341  1  0.01172058  0.50912247  0.13280142  1
  O  O342  1  0.00901027  0.49874484  0.61961961  1
  O  O343  1  0.51074211  0.00651542  0.11862361  1
  O  O344  1  0.50272834  0.00158256  0.61257334  1
  O  O345  1  0.51023277  0.50553142  0.12309913  1
  O  O346  1  0.49642608  0.51685075  0.62473123  1
  O  O347  1  0.24220423  0.37962180  0.25402833  1
  O  O348  1  0.24536124  0.36961364  0.73824072  1
  O  O349  1  0.24809534  0.88392785  0.24309898  1
  O  O350  1  0.24352295  0.88124924  0.74447388  1
  O  O351  1  0.74564289  0.37856722  0.24317695  1
  O  O352  1  0.74000794  0.37246388  0.73689154  1
  O  O353  1  0.74438316  0.88239141  0.24698807  1
  O  O354  1  0.74355238  0.87852611  0.74176171  1
  O  O355  1  0.24844931  0.10862081  0.24930956  1
  O  O356  1  0.25840208  0.11609583  0.74596599  1
  O  O357  1  0.25851786  0.61559628  0.25141201  1
  O  O358  1  0.24180303  0.62592522  0.76643069  1
  O  O359  1  0.76295941  0.11807346  0.24930417  1
  O  O360  1  0.75534418  0.12089021  0.75476849  1
  O  O361  1  0.76185228  0.61501299  0.24681015  1
  O  O362  1  0.76416102  0.63456312  0.74884786  1
  O  O363  1  0.38210208  0.12808738  0.37379182  1
  O  O364  1  0.37906249  0.11237964  0.86574571  1
  O  O365  1  0.37938271  0.61496084  0.36787674  1
  O  O366  1  0.35358331  0.62926372  0.88431973  1
  O  O367  1  0.87539920  0.12885170  0.36590653  1
  O  O368  1  0.86950112  0.12016477  0.86920557  1
  O  O369  1  0.88391073  0.62916782  0.36029093  1
  O  O370  1  0.87406218  0.61855069  0.86773891  1
  O  O371  1  0.12026488  0.38102846  0.13700171  1
  O  O372  1  0.12900034  0.38750091  0.61758458  1
  O  O373  1  0.13857892  0.87293864  0.13159825  1
  O  O374  1  0.12894217  0.88283160  0.63178641  1
  O  O375  1  0.63150051  0.38065081  0.13188610  1
  O  O376  1  0.63670841  0.37335690  0.63542180  1
  O  O377  1  0.62490208  0.88098707  0.13561035  1
  O  O378  1  0.63251979  0.87569263  0.63366775  1
  O  O379  1  0.11925922  0.25290178  0.24753917  1
  O  O380  1  0.11768348  0.24535055  0.76169312  1
  O  O381  1  0.12148266  0.76237065  0.24906508  1
  O  O382  1  0.11343727  0.75378099  0.75716107  1
  O  O383  1  0.61913779  0.26075670  0.24477956  1
  O  O384  1  0.61973410  0.25692767  0.75725435  1
  O  O385  1  0.62374231  0.75410666  0.25449526  1
  O  O386  1  0.61937586  0.75820774  0.75580366  1
  O  O387  1  0.38979873  0.25682663  0.24725540  1
  O  O388  1  0.38301707  0.24412032  0.75534620  1
  O  O389  1  0.38111724  0.74488109  0.24223896  1
  O  O390  1  0.38837622  0.75881584  0.75632501  1
  O  O391  1  0.87973011  0.23822749  0.24398294  1
  O  O392  1  0.87986378  0.24716925  0.74430635  1
  O  O393  1  0.88088304  0.74180678  0.24252001  1
  O  O394  1  0.88266223  0.74657250  0.74652535  1
  O  O395  1  0.37837223  0.49833973  0.48787630  1
  O  O396  1  0.37096082  0.48646552  1.00098406  1
  O  O397  1  0.38162352  0.98944833  0.50490593  1
  O  O398  1  0.38094400  0.99634942  0.99245873  1
  O  O399  1  0.87490973  0.48600217  0.50223181  1
  O  O400  1  0.87539863  0.48999993  0.99338498  1
  O  O401  1  0.88373848  0.99277002  0.50540913  1
  O  O402  1  0.87286808  1.00555050  0.98672352  1
  O  O403  1  0.12852147  0.01433613  -0.00630747  1
  O  O404  1  0.11917209  0.00536728  0.50510256  1
  O  O405  1  0.13076846  0.50450822  0.01460205  1
  O  O406  1  0.12210830  0.50811181  0.50608739  1
  O  O407  1  0.61843163  0.00268490  0.00463495  1
  O  O408  1  0.61904109  0.01011442  0.50179727  1
  O  O409  1  0.62848675  0.49860384  0.01253413  1
  O  O410  1  0.62422221  0.51670250  0.49309370  1
  O  O411  1  0.37525044  0.36970344  0.11050038  1
  O  O412  1  0.36362057  0.37270910  0.62167054  1
  O  O413  1  0.36999661  0.86751349  0.11513245  1
  O  O414  1  0.36390682  0.87826281  0.61601929  1
  O  O415  1  0.87150966  0.36573570  0.11946283  1
  O  O416  1  0.86406626  0.36951686  0.61993482  1
  O  O417  1  0.87556090  0.86022639  0.13278785  1
  O  O418  1  0.86767130  0.86953924  0.61891151  1
  O  O419  1  0.12453223  0.12333231  0.38732610  1
  O  O420  1  0.12438928  0.13761058  0.88672411  1
  O  O421  1  0.12524961  0.62439460  0.38315408  1
  O  O422  1  0.12590333  0.63124933  0.88416012  1
  O  O423  1  0.62265232  0.12557833  0.38988492  1
  O  O424  1  0.63104345  0.13381814  0.88048240  1
  O  O425  1  0.61811005  0.63630809  0.38043800  1
  O  O426  1  0.63153488  0.63652932  0.87385629  1
