# generated using pymatgen
data_V85Zn86O256
_symmetry_space_group_name_H-M   'P 1'
_cell_length_a   16.92570915
_cell_length_b   16.93896539
_cell_length_c   16.93673765
_cell_angle_alpha   89.99043785
_cell_angle_beta   90.02317726
_cell_angle_gamma   90.03597700
_symmetry_Int_Tables_number   1
_chemical_formula_structural   V85Zn86O256
_chemical_formula_sum   'V85 Zn86 O256'
_cell_volume   4855.82903575
_cell_formula_units_Z   1
loop_
 _symmetry_equiv_pos_site_id
 _symmetry_equiv_pos_as_xyz
  1  'x, y, z'
loop_
 _atom_site_type_symbol
 _atom_site_label
 _atom_site_symmetry_multiplicity
 _atom_site_fract_x
 _atom_site_fract_y
 _atom_site_fract_z
 _atom_site_occupancy
  V  V0  1  0.62589723  0.50203823  0.12726936  1
  V  V1  1  0.49935986  0.50005462  -0.00090034  1
  V  V2  1  0.87116989  0.75062147  0.62236450  1
  V  V3  1  0.37410104  0.37618841  -0.00976157  1
  V  V4  1  0.12672303  0.11500009  -0.00352754  1
  V  V5  1  0.00581662  0.50251640  0.49686203  1
  V  V6  1  0.24784566  -0.00084089  0.74770629  1
  V  V7  1  0.60405055  0.87053664  0.24989216  1
  V  V8  1  0.37599061  0.12355028  0.74779792  1
  V  V9  1  0.75355839  0.37604219  0.63415534  1
  V  V10  1  0.37527353  0.37582672  0.49991879  1
  V  V11  1  0.37393021  0.87159200  -0.00427368  1
  V  V12  1  0.74014280  0.74820576  0.50012395  1
  V  V13  1  0.25434773  0.11978392  0.37734824  1
  V  V14  1  0.12156994  0.49943944  0.12140048  1
  V  V15  1  0.12014579  0.74192733  0.87654372  1
  V  V16  1  0.50525029  0.25059480  0.75099989  1
  V  V17  1  0.75089173  0.87565547  0.13090771  1
  V  V18  1  0.87729627  0.13729342  0.25434106  1
  V  V19  1  0.87559077  0.62762952  0.24909305  1
  V  V20  1  0.49813142  0.37489831  0.37381008  1
  V  V21  1  0.10589104  0.37096176  0.75229892  1
  V  V22  1  0.62187607  0.00638177  0.12489932  1
  V  V23  1  0.51628328  -0.00560592  0.50423506  1
  V  V24  1  0.00457720  0.62804552  0.12047762  1
  V  V25  1  0.49840657  0.63337701  0.12762337  1
  V  V26  1  0.12980109  0.50421547  0.62884322  1
  V  V27  1  0.61156702  0.75113091  0.37206755  1
  V  V28  1  0.24619724  0.50221973  0.24475072  1
  V  V29  1  0.00063982  0.87672595  0.37378684  1
  V  V30  1  0.37232436  0.87071217  0.50127543  1
  V  V31  1  0.37452489  0.50030571  0.37348547  1
  V  V32  1  0.87542452  0.13193919  0.76269721  1
  V  V33  1  0.24120535  0.75047229  0.00062689  1
  V  V34  1  0.50031200  0.62655921  0.62483686  1
  V  V35  1  0.36655361  0.75149834  0.12549776  1
  V  V36  1  0.37785901  0.24916892  0.62596587  1
  V  V37  1  0.50296628  0.00128349  -0.00427599  1
  V  V38  1  0.74890120  0.24055542  0.00507675  1
  V  V39  1  0.00047464  0.00096808  0.50411309  1
  V  V40  1  0.74327883  0.62658476  0.37787458  1
  V  V41  1  0.75091404  0.37315088  0.12818219  1
  V  V42  1  0.25216825  0.37881607  0.63719105  1
  V  V43  1  0.86790215  0.61883136  0.74469315  1
  V  V44  1  0.87390870  0.36928579  0.50240462  1
  V  V45  1  0.24520286  0.37389231  0.12107932  1
  V  V46  1  0.00055924  0.50446334  -0.00473447  1
  V  V47  1  0.36864013  0.61171684  0.76111338  1
  V  V48  1  0.00280370  0.62619831  0.62000766  1
  V  V49  1  0.24844596  0.25199938  0.49806048  1
  V  V50  1  0.12352952  0.74750221  0.38159646  1
  V  V51  1  0.50471186  0.37770265  0.87439888  1
  V  V52  1  0.01404893  0.12394645  0.13793768  1
  V  V53  1  0.87584020  0.50092712  0.37572478  1
  V  V54  1  0.74654004  0.62094709  0.86907747  1
  V  V55  1  0.74501366  0.88537119  0.62307723  1
  V  V56  1  0.87363466  0.00197262  0.37403301  1
  V  V57  1  0.37888108  0.25568757  0.12383621  1
  V  V58  1  0.75134370  0.75055245  0.00139159  1
  V  V59  1  0.74114341  0.24853175  0.50480320  1
  V  V60  1  0.13919620  0.88792732  0.24170252  1
  V  V61  1  0.37990147  -0.00212394  0.38524596  1
  V  V62  1  0.12199991  0.87419672  0.75065356  1
  V  V63  1  0.61996278  0.75712358  0.87437570  1
  V  V64  1  0.50784545  0.50389532  0.50036196  1
  V  V65  1  0.73779854  0.12458572  0.37921517  1
  V  V66  1  0.37603004  0.63126265  0.24822641  1
  V  V67  1  0.62208745  0.88240606  0.74698154  1
  V  V68  1  -0.00760244  0.14523452  0.62863613  1
  V  V69  1  0.12427484  0.12902875  0.49678370  1
  V  V70  1  0.62938298  0.23936821  0.87962431  1
  V  V71  1  0.87304811  0.49605060  0.87180446  1
  V  V72  1  0.38168682  -0.01053063  0.86880414  1
  V  V73  1  0.74895350  0.50097812  0.25149392  1
  V  V74  1  0.62946080  0.50288648  0.63350559  1
  V  V75  1  0.62444517  0.62618365  -0.00012732  1
  V  V76  1  -0.01006538  0.88358624  0.87567709  1
  V  V77  1  0.87683979  0.37304666  -0.00277208  1
  V  V78  1  0.00569881  0.36191608  0.37135686  1
  V  V79  1  0.49406171  0.75374950  0.75331625  1
  V  V80  1  0.00203012  0.75455398  0.24833412  1
  V  V81  1  0.49111179  0.24692612  0.25216453  1
  V  V82  1  0.24444599  0.62259945  0.38345609  1
  V  V83  1  0.36158058  0.09009515  0.22616246  1
  V  V84  1  0.51858417  0.12222644  0.62160094  1
  Zn  Zn85  1  0.12008554  0.24889287  0.86728181  1
  Zn  Zn86  1  0.24488256  0.74618538  0.50485991  1
  Zn  Zn87  1  0.63460253  0.37866552  0.75611214  1
  Zn  Zn88  1  0.10773020  0.35469080  0.23872066  1
  Zn  Zn89  1  0.87342253  0.87582856  0.49941600  1
  Zn  Zn90  1  0.36808091  0.74710321  0.62778791  1
  Zn  Zn91  1  0.74531320  0.00066299  0.25308870  1
  Zn  Zn92  1  0.23857907  0.61102674  -0.12585999  1
  Zn  Zn93  1  0.88481334  0.25128573  0.12991206  1
  Zn  Zn94  1  -0.00397074  0.75045035  0.74981550  1
  Zn  Zn95  1  0.76068360  0.10917568  0.89191472  1
  Zn  Zn96  1  0.75802201  0.00078032  0.75484414  1
  Zn  Zn97  1  0.24945919  0.12553188  0.87240597  1
  Zn  Zn98  1  0.87787010  0.75464098  0.12173008  1
  Zn  Zn99  1  0.61844562  0.24515249  0.37782224  1
  Zn  Zn100  1  0.86481305  0.88801319  -0.00699201  1
  Zn  Zn101  1  -0.00649618  0.00077997  0.00605571  1
  Zn  Zn102  1  0.24601432  0.87030950  0.62410010  1
  Zn  Zn103  1  0.50491446  0.12993658  0.11806100  1
  Zn  Zn104  1  0.25362014  0.24268194  -0.00446620  1
  Zn  Zn105  1  0.62308834  0.37182596  0.25197434  1
  Zn  Zn106  1  0.12342053  0.00202916  0.62490086  1
  Zn  Zn107  1  0.18685470  0.18781923  0.18491620  1
  Zn  Zn108  1  0.18500982  0.18936601  0.68367666  1
  Zn  Zn109  1  0.18550251  0.69085288  0.18821542  1
  Zn  Zn110  1  0.18784639  0.68676889  0.69237454  1
  Zn  Zn111  1  0.68703686  0.18849433  0.19513593  1
  Zn  Zn112  1  0.69639446  0.19245293  0.69361451  1
  Zn  Zn113  1  0.68564109  0.69076496  0.18969592  1
  Zn  Zn114  1  0.68264263  0.68992308  0.68691850  1
  Zn  Zn115  1  0.28014537  0.29491135  0.29450966  1
  Zn  Zn116  1  0.31039977  0.30800893  0.81530757  1
  Zn  Zn117  1  0.31294356  0.81314939  0.31780574  1
  Zn  Zn118  1  0.30780930  0.80913737  0.81250626  1
  Zn  Zn119  1  0.81067397  0.31326702  0.31941503  1
  Zn  Zn120  1  0.81908710  0.30386170  0.81368753  1
  Zn  Zn121  1  0.81166538  0.81314674  0.31248158  1
  Zn  Zn122  1  0.80807428  0.80989450  0.80835228  1
  Zn  Zn123  1  0.18567406  0.43692083  0.43824129  1
  Zn  Zn124  1  0.18502371  0.43644318  0.93307236  1
  Zn  Zn125  1  0.18759030  0.93680293  0.43467350  1
  Zn  Zn126  1  0.18746800  0.93628823  0.93500980  1
  Zn  Zn127  1  0.68497824  0.43603361  0.44032994  1
  Zn  Zn128  1  0.68912286  0.43534340  0.93948363  1
  Zn  Zn129  1  0.68667516  0.93159242  0.43271532  1
  Zn  Zn130  1  0.68729524  0.93870041  0.93874164  1
  Zn  Zn131  1  0.31580172  0.05871311  0.05707134  1
  Zn  Zn132  1  0.31427266  0.06031371  0.56532946  1
  Zn  Zn133  1  0.29535472  0.54886711  0.02951439  1
  Zn  Zn134  1  0.31758129  0.56174237  0.56625470  1
  Zn  Zn135  1  0.81949217  0.05921995  0.07164158  1
  Zn  Zn136  1  0.81391625  0.06565331  0.56209243  1
  Zn  Zn137  1  0.81502395  0.56450200  0.06240457  1
  Zn  Zn138  1  0.81084367  0.56023504  0.55805565  1
  Zn  Zn139  1  0.43520572  0.44012741  0.18623382  1
  Zn  Zn140  1  0.43979323  0.43782375  0.68898092  1
  Zn  Zn141  1  0.42606900  0.93858633  0.17912289  1
  Zn  Zn142  1  0.43924906  0.93580218  0.68098981  1
  Zn  Zn143  1  0.93629289  0.43830407  0.18783095  1
  Zn  Zn144  1  0.93581252  0.43971632  0.68453127  1
  Zn  Zn145  1  0.93670939  0.94143959  0.18801438  1
  Zn  Zn146  1  0.93439148  0.94120515  0.68890939  1
  Zn  Zn147  1  0.06478760  0.06428037  0.31551668  1
  Zn  Zn148  1  0.05915810  0.06405945  0.80944923  1
  Zn  Zn149  1  0.06413912  0.56075246  0.30850489  1
  Zn  Zn150  1  0.05608247  0.56034531  0.80577990  1
  Zn  Zn151  1  0.55157359  0.05919786  0.30868370  1
  Zn  Zn152  1  0.56398561  0.06180027  0.81294175  1
  Zn  Zn153  1  0.56140641  0.56481425  0.31089857  1
  Zn  Zn154  1  0.55852608  0.56456995  0.81160689  1
  Zn  Zn155  1  0.43753269  0.18396896  0.44185860  1
  Zn  Zn156  1  0.43906235  0.18520126  0.93503958  1
  Zn  Zn157  1  0.43245251  0.68545981  0.44025164  1
  Zn  Zn158  1  0.43623768  0.68849294  0.93767762  1
  Zn  Zn159  1  0.93264810  0.18743508  0.44183450  1
  Zn  Zn160  1  0.94596776  0.18863774  0.94106614  1
  Zn  Zn161  1  0.93443189  0.68808509  0.43792742  1
  Zn  Zn162  1  0.93515130  0.68966102  0.93454912  1
  Zn  Zn163  1  0.05033200  0.29344736  0.03127009  1
  Zn  Zn164  1  0.06762294  0.31786445  0.55848423  1
  Zn  Zn165  1  0.06325998  0.82090242  0.06225529  1
  Zn  Zn166  1  0.06072509  0.81437494  0.56280803  1
  Zn  Zn167  1  0.56649772  0.31315266  0.06286041  1
  Zn  Zn168  1  0.56594602  0.31555365  0.56474720  1
  Zn  Zn169  1  0.55911181  0.81824866  0.06092531  1
  Zn  Zn170  1  0.56049290  0.81106588  0.56377660  1
  O  O171  1  0.11937312  0.11595076  0.12896371  1
  O  O172  1  0.11393210  0.12428477  0.61492626  1
  O  O173  1  0.11100704  0.61986072  0.12977021  1
  O  O174  1  0.11473618  0.61739833  0.63113638  1
  O  O175  1  0.62394310  0.10998851  0.13534904  1
  O  O176  1  0.61631268  0.12884314  0.63246298  1
  O  O177  1  0.61800081  0.62325353  0.12027525  1
  O  O178  1  0.61096178  0.61825583  0.63002740  1
  O  O179  1  0.38533479  0.38331384  0.37954799  1
  O  O180  1  0.38422407  0.36979745  0.88521883  1
  O  O181  1  0.37278843  0.88074280  0.39051417  1
  O  O182  1  0.37389661  0.88244991  0.87668213  1
  O  O183  1  0.88284416  0.38278608  0.38203884  1
  O  O184  1  0.86464140  0.38667477  0.88292851  1
  O  O185  1  0.88067394  0.88370341  0.37573499  1
  O  O186  1  0.88658597  0.86682331  0.87157633  1
  O  O187  1  0.26223946  0.01169666  0.38402432  1
  O  O188  1  0.25982023  0.00085559  0.86106219  1
  O  O189  1  0.25176119  0.50339273  0.36458328  1
  O  O190  1  0.26297271  0.51255927  0.92236062  1
  O  O191  1  0.75651087  0.00600854  0.37620708  1
  O  O192  1  0.74155597  0.00146972  0.86789694  1
  O  O193  1  0.75256181  0.50765074  0.37281787  1
  O  O194  1  0.75579931  0.51341511  0.88152807  1
  O  O195  1  0.24131034  0.49774121  0.12385947  1
  O  O196  1  0.24017691  0.49157506  0.61634252  1
  O  O197  1  0.32855723  1.01166588  0.15856170  1
  O  O198  1  0.24755435  0.99745222  0.63690604  1
  O  O199  1  0.74646166  0.49510520  0.13032547  1
  O  O200  1  0.73842132  0.49267374  0.61646931  1
  O  O201  1  0.73993044  0.99160993  0.13016316  1
  O  O202  1  0.75348002  0.98779071  0.62353138  1
  O  O203  1  -0.00353183  0.37668835  0.26456187  1
  O  O204  1  0.00677408  0.37466468  0.74656295  1
  O  O205  1  0.00190375  0.86868309  0.25584840  1
  O  O206  1  0.00249821  0.87360068  0.75774314  1
  O  O207  1  0.49837013  0.37077360  0.25831538  1
  O  O208  1  0.50096395  0.36830566  0.75962129  1
  O  O209  1  0.50648794  0.87109823  0.24197826  1
  O  O210  1  0.50558581  0.86162164  0.74192139  1
  O  O211  1  0.48004539  0.13103606  0.24470461  1
  O  O212  1  0.49600789  0.12881738  0.74009579  1
  O  O213  1  0.48936334  0.62149646  0.23970897  1
  O  O214  1  0.49197161  0.63407700  0.74553729  1
  O  O215  1  0.99649014  0.12657591  0.24624643  1
  O  O216  1  0.99522641  0.12647925  0.73562564  1
  O  O217  1  0.99504465  0.63327400  0.24368285  1
  O  O218  1  0.98740602  0.62701029  0.73564234  1
  O  O219  1  0.37708530  0.25846350  0.00489199  1
  O  O220  1  0.37294025  0.25618588  0.50984641  1
  O  O221  1  0.36835824  0.75532562  0.00360312  1
  O  O222  1  0.37091237  0.75736871  0.50303379  1
  O  O223  1  0.86649635  0.25919213  0.00542306  1
  O  O224  1  0.86366157  0.26423967  0.49445521  1
  O  O225  1  0.85960467  0.75256782  -0.00097432  1
  O  O226  1  0.86419795  0.75026082  0.50945409  1
  O  O227  1  0.13729396  0.24414417  0.50278104  1
  O  O228  1  0.14019681  0.22172299  1.01773701  1
  O  O229  1  0.12218786  0.75285130  0.48588019  1
  O  O230  1  0.12942633  0.76128926  0.98886163  1
  O  O231  1  0.63588846  0.25507468  0.49605079  1
  O  O232  1  0.63670105  0.25544617  0.99352543  1
  O  O233  1  0.63357194  0.75573955  0.49034141  1
  O  O234  1  0.63125835  0.74756992  0.99326041  1
  O  O235  1  0.49590515  0.25187108  0.13162720  1
  O  O236  1  0.49855239  0.24083291  0.62871825  1
  O  O237  1  0.49323606  0.73720273  0.11538949  1
  O  O238  1  0.49699441  0.74039977  0.63256036  1
  O  O239  1  1.00123173  0.23112479  0.12228919  1
  O  O240  1  1.00171994  0.24288861  0.61684047  1
  O  O241  1  0.99976613  0.74554035  0.13076471  1
  O  O242  1  0.98928957  0.74324112  0.62282704  1
  O  O243  1  -0.00212886  0.26361301  0.38156525  1
  O  O244  1  0.02077462  0.26817697  0.91973398  1
  O  O245  1  0.00386284  0.75337313  0.36866107  1
  O  O246  1  0.00473505  0.75801601  0.87223703  1
  O  O247  1  0.49578876  0.25656327  0.37009244  1
  O  O248  1  0.50911340  0.25834528  0.87357381  1
  O  O249  1  0.51286335  0.73931834  0.37935508  1
  O  O250  1  0.50894629  0.74536268  0.86730546  1
  O  O251  1  0.24418354  0.13060703  0.49981385  1
  O  O252  1  0.24366179  0.11639028  0.99534275  1
  O  O253  1  0.25544280  0.62069813  0.48627165  1
  O  O254  1  0.24752109  0.64825060  0.99879910  1
  O  O255  1  0.75485670  0.13627640  0.49256947  1
  O  O256  1  0.75534160  0.13755828  1.00819593  1
  O  O257  1  0.75202873  0.63383374  0.48910029  1
  O  O258  1  0.74340070  0.63204023  0.99500481  1
  O  O259  1  0.25853038  0.37166255  0.00786899  1
  O  O260  1  0.25501467  0.36841880  0.50469975  1
  O  O261  1  0.26338042  0.86885475  -0.00612141  1
  O  O262  1  0.25674164  0.87303179  0.50268709  1
  O  O263  1  0.75867102  0.37132624  0.01050487  1
  O  O264  1  0.75643515  0.36976757  0.50482395  1
  O  O265  1  0.74553761  0.86615356  0.01217641  1
  O  O266  1  0.75157603  0.86621885  0.50548251  1
  O  O267  1  0.13281329  0.49424169  0.24023784  1
  O  O268  1  0.11879210  0.49011041  0.73634623  1
  O  O269  1  0.12636469  0.98659326  0.25971927  1
  O  O270  1  0.13211492  0.99444334  0.74936219  1
  O  O271  1  0.63179852  0.49911349  0.24422805  1
  O  O272  1  0.61961500  0.49786755  0.73829134  1
  O  O273  1  0.62012399  0.98638783  0.24495845  1
  O  O274  1  0.62014850  0.98424623  0.74991583  1
  O  O275  1  0.40373458  -0.00180928  0.27984486  1
  O  O276  1  0.37179688  0.00345497  0.75177040  1
  O  O277  1  0.36983263  0.51299982  0.25324891  1
  O  O278  1  0.38075992  0.51313405  0.75170481  1
  O  O279  1  0.87412822  0.00863122  0.26404424  1
  O  O280  1  0.87590301  0.02337718  0.73959045  1
  O  O281  1  0.86845605  0.50710560  0.25639244  1
  O  O282  1  0.87584639  0.51049070  0.75609797  1
  O  O283  1  0.10701150  0.38083188  0.37510019  1
  O  O284  1  0.12927994  0.38062061  0.85271327  1
  O  O285  1  0.11830289  0.86654018  0.36804057  1
  O  O286  1  0.11441833  0.86927092  0.86512355  1
  O  O287  1  0.60946439  0.37548439  0.37429673  1
  O  O288  1  0.62028292  0.36801133  0.87484395  1
  O  O289  1  0.62494026  0.86702741  0.35851357  1
  O  O290  1  0.62917277  0.86095730  0.86664910  1
  O  O291  1  0.37781857  0.14541883  0.12390694  1
  O  O292  1  0.38207204  0.12889895  0.63487018  1
  O  O293  1  0.38077291  0.63360567  0.12986487  1
  O  O294  1  0.38479502  0.62374895  0.63735986  1
  O  O295  1  0.88123264  0.12914854  0.14177220  1
  O  O296  1  0.89108214  0.12995905  0.61935198  1
  O  O297  1  0.88407024  0.62902343  0.13264136  1
  O  O298  1  0.87629152  0.62850880  0.62863607  1
  O  O299  1  0.26298496  0.26062531  0.12234256  1
  O  O300  1  0.25739493  0.25783789  0.61678215  1
  O  O301  1  0.25597056  0.74808012  0.11759904  1
  O  O302  1  0.24931796  0.75025125  0.62188749  1
  O  O303  1  0.74837492  0.25890067  0.12299130  1
  O  O304  1  0.74552117  0.26243184  0.61628918  1
  O  O305  1  0.74975932  0.75554494  0.11729578  1
  O  O306  1  0.75281778  0.75326266  0.61625926  1
  O  O307  1  0.26741558  0.23550936  0.39358203  1
  O  O308  1  0.24176096  0.24396269  0.87776102  1
  O  O309  1  0.24058238  0.73897257  0.37648428  1
  O  O310  1  0.23556623  0.74961341  0.88111441  1
  O  O311  1  0.74356977  0.24233656  0.38263275  1
  O  O312  1  0.74497845  0.24716300  0.88763698  1
  O  O313  1  0.74369651  0.74464273  0.38141644  1
  O  O314  1  0.74247712  0.74042942  0.88102955  1
  O  O315  1  0.01394667  0.11950317  0.01257748  1
  O  O316  1  0.00637372  0.12185326  0.50491434  1
  O  O317  1  -0.01037256  0.61790531  0.00928799  1
  O  O318  1  -0.00758071  0.61740074  0.51083538  1
  O  O319  1  0.49388938  0.10822012  0.00095353  1
  O  O320  1  0.50166620  0.11755849  0.51560662  1
  O  O321  1  0.50502022  0.61735979  0.00427421  1
  O  O322  1  0.49166668  0.61463439  0.51099520  1
  O  O323  1  0.49502372  0.38163808  0.49497398  1
  O  O324  1  0.49694715  0.38041260  0.99390136  1
  O  O325  1  0.49308258  0.88883076  0.50997265  1
  O  O326  1  0.48569229  0.88459428  1.00101581  1
  O  O327  1  0.99324743  0.38218366  0.49217365  1
  O  O328  1  0.97981278  0.38943490  1.01578283  1
  O  O329  1  0.99722904  0.88404458  0.49314502  1
  O  O330  1  0.99608763  0.87700415  0.98601792  1
  O  O331  1  0.49663750  0.49662816  0.38191288  1
  O  O332  1  0.50841820  0.48717907  0.88377597  1
  O  O333  1  0.49754217  1.00945305  0.39958923  1
  O  O334  1  0.49215622  1.00045947  0.87952075  1
  O  O335  1  0.99491640  0.50056385  0.38218232  1
  O  O336  1  0.98473824  0.50774779  0.88235923  1
  O  O337  1  0.99329986  0.99901351  0.38519408  1
  O  O338  1  1.00283743  0.98489105  0.87319493  1
  O  O339  1  -0.00572467  0.01920312  0.12757644  1
  O  O340  1  -0.00087177  0.00365302  0.61129391  1
  O  O341  1  0.00182792  0.50927802  0.12030887  1
  O  O342  1  0.00559017  0.50743799  0.61648593  1
  O  O343  1  0.50570210  0.00146068  0.11595930  1
  O  O344  1  0.50006064  0.01345994  0.61737398  1
  O  O345  1  0.50770683  0.50888512  0.12015647  1
  O  O346  1  0.50667280  0.50468020  0.61873700  1
  O  O347  1  0.26684908  0.39519187  0.23229229  1
  O  O348  1  0.25424838  0.37479713  0.73830435  1
  O  O349  1  0.23792496  0.87097601  0.25417694  1
  O  O350  1  0.23958599  0.88163433  0.74946351  1
  O  O351  1  0.74788745  0.38078269  0.24583066  1
  O  O352  1  0.75576905  0.37082633  0.73777961  1
  O  O353  1  0.74418517  0.87487124  0.23988951  1
  O  O354  1  0.74129004  0.87462402  0.73997052  1
  O  O355  1  0.26806424  0.12699793  0.26109285  1
  O  O356  1  0.25800164  0.11847335  0.74678548  1
  O  O357  1  0.25442695  0.61566339  0.25339030  1
  O  O358  1  0.26323735  0.62420228  0.75605688  1
  O  O359  1  0.75868805  0.12303756  0.26099818  1
  O  O360  1  0.76508419  0.12444960  0.75353083  1
  O  O361  1  0.75621889  0.62240866  0.25543703  1
  O  O362  1  0.75411656  0.62911442  0.75765014  1
  O  O363  1  0.36963367  0.11380909  0.38039716  1
  O  O364  1  0.37753840  0.11639738  0.85972581  1
  O  O365  1  0.36668942  0.62037571  0.36596296  1
  O  O366  1  0.37839258  0.62493722  0.86259079  1
  O  O367  1  0.86818708  0.11948302  0.37189062  1
  O  O368  1  0.87970234  0.13062234  0.86750689  1
  O  O369  1  0.86491737  0.62172980  0.36884580  1
  O  O370  1  0.86569875  0.62053828  0.86483833  1
  O  O371  1  0.13384808  0.37870982  0.12315549  1
  O  O372  1  0.13242172  0.38238936  0.63316735  1
  O  O373  1  0.12164509  0.87568444  0.14244782  1
  O  O374  1  0.12065586  0.87750382  0.63886967  1
  O  O375  1  0.63628681  0.38216314  0.12763745  1
  O  O376  1  0.63384402  0.38461194  0.62949495  1
  O  O377  1  0.62822074  0.87849919  0.13616306  1
  O  O378  1  0.63453107  0.86507139  0.63462656  1
  O  O379  1  0.17188103  0.26655343  0.26114505  1
  O  O380  1  0.12554206  0.26637872  0.74609510  1
  O  O381  1  0.11384019  0.75504235  0.25842474  1
  O  O382  1  0.11996820  0.75818536  0.75766293  1
  O  O383  1  0.60606760  0.24999664  0.25385954  1
  O  O384  1  0.62166598  0.25503040  0.76046215  1
  O  O385  1  0.62393059  0.76192230  0.25598757  1
  O  O386  1  0.61566571  0.75456943  0.75765703  1
  O  O387  1  0.38256018  0.25901677  0.24125880  1
  O  O388  1  0.38330076  0.24181979  0.74623776  1
  O  O389  1  0.36650606  0.73912011  0.24323161  1
  O  O390  1  0.38132596  0.74356337  0.75018528  1
  O  O391  1  0.87224933  0.24051918  0.25421789  1
  O  O392  1  0.87744814  0.23307937  0.74589295  1
  O  O393  1  0.88704387  0.74644624  0.25015285  1
  O  O394  1  0.87137204  0.73883434  0.73656817  1
  O  O395  1  0.38391724  0.49427094  0.49383376  1
  O  O396  1  0.39444123  0.48940786  1.01173493  1
  O  O397  1  0.38286798  0.99334654  0.49870772  1
  O  O398  1  0.37980994  0.99071352  0.98671391  1
  O  O399  1  0.88416935  0.49262879  0.49390769  1
  O  O400  1  0.87827677  0.49648002  0.99108026  1
  O  O401  1  0.88133241  1.00052646  0.48959158  1
  O  O402  1  0.87769072  0.99999967  0.99897864  1
  O  O403  1  0.12429101  0.00857543  0.00024358  1
  O  O404  1  0.11722592  0.00801550  0.50071240  1
  O  O405  1  0.10552001  0.49243996  0.00326383  1
  O  O406  1  0.11217135  0.49459602  0.50985058  1
  O  O407  1  0.61401568  -0.01103401  0.01237131  1
  O  O408  1  0.61515671  -0.00902554  0.50214412  1
  O  O409  1  0.61774712  0.50450436  0.00672880  1
  O  O410  1  0.61251094  0.49721720  0.50860286  1
  O  O411  1  0.37253171  0.37054882  0.11325628  1
  O  O412  1  0.37029819  0.37176883  0.62051375  1
  O  O413  1  0.37901822  0.85654373  0.11449415  1
  O  O414  1  0.37094622  0.87231973  0.61429626  1
  O  O415  1  0.86354547  0.37369817  0.12270452  1
  O  O416  1  0.86600272  0.38502632  0.61326147  1
  O  O417  1  0.86429923  0.87364122  0.12494336  1
  O  O418  1  0.86632242  0.86531173  0.62481375  1
  O  O419  1  0.13599035  0.12215535  0.38853200  1
  O  O420  1  0.12349230  0.12461187  0.88515956  1
  O  O421  1  0.13347366  0.63252469  0.36751037  1
  O  O422  1  0.11964826  0.63733759  0.86580654  1
  O  O423  1  0.63511855  0.12134426  0.36754061  1
  O  O424  1  0.62646587  0.13720554  0.87366397  1
  O  O425  1  0.63698145  0.63345890  0.36584101  1
  O  O426  1  0.63013209  0.63127288  0.87933208  1
