# generated using pymatgen
data_V85Zn86O256
_symmetry_space_group_name_H-M   'P 1'
_cell_length_a   16.91645425
_cell_length_b   16.91258370
_cell_length_c   16.91274325
_cell_angle_alpha   90.04047856
_cell_angle_beta   89.94484668
_cell_angle_gamma   89.99573067
_symmetry_Int_Tables_number   1
_chemical_formula_structural   V85Zn86O256
_chemical_formula_sum   'V85 Zn86 O256'
_cell_volume   4838.74841993
_cell_formula_units_Z   1
loop_
 _symmetry_equiv_pos_site_id
 _symmetry_equiv_pos_as_xyz
  1  'x, y, z'
loop_
 _atom_site_type_symbol
 _atom_site_label
 _atom_site_symmetry_multiplicity
 _atom_site_fract_x
 _atom_site_fract_y
 _atom_site_fract_z
 _atom_site_occupancy
  V  V0  1  0.37216957  -0.00254300  0.87305019  1
  V  V1  1  0.62548406  0.50369361  0.62507895  1
  V  V2  1  -0.00642174  0.49575118  -0.01358580  1
  V  V3  1  0.75864476  0.49623157  0.24464840  1
  V  V4  1  0.50821388  0.25323391  0.24911838  1
  V  V5  1  0.11848438  -0.01306340  0.62304736  1
  V  V6  1  0.62443454  0.37201359  0.74323700  1
  V  V7  1  0.12665960  0.25335460  0.86922022  1
  V  V8  1  0.62836838  0.12919007  0.49831018  1
  V  V9  1  0.73976615  0.26020520  0.00068188  1
  V  V10  1  -0.00153602  0.50941888  0.50482046  1
  V  V11  1  0.00501767  0.87198931  0.87129428  1
  V  V12  1  0.37028127  0.25441566  0.12621619  1
  V  V13  1  -0.00143411  0.62187346  0.12936205  1
  V  V14  1  -0.00079360  0.87797196  0.38026071  1
  V  V15  1  0.00429045  0.74846214  0.74692979  1
  V  V16  1  0.25304945  0.61884768  0.86421444  1
  V  V17  1  0.12525435  0.24723709  0.38021635  1
  V  V18  1  0.25301228  0.50163347  0.24386524  1
  V  V19  1  0.74382081  -0.00232092  0.25203827  1
  V  V20  1  0.12474026  0.12675278  -0.00127171  1
  V  V21  1  0.49927150  0.49823056  0.50353852  1
  V  V22  1  0.36663221  0.12536823  0.74742491  1
  V  V23  1  0.50360402  0.73904565  0.74042800  1
  V  V24  1  0.87155182  0.86883023  0.00058425  1
  V  V25  1  0.37486490  0.37859359  0.00291949  1
  V  V26  1  0.12934463  0.50436356  0.62978989  1
  V  V27  1  0.37013403  0.74508946  0.62304799  1
  V  V28  1  0.13972990  0.37725623  0.75209787  1
  V  V29  1  0.50035752  0.24776065  0.75398542  1
  V  V30  1  0.87764237  0.62279554  0.74803768  1
  V  V31  1  0.50258811  0.74876706  0.25136633  1
  V  V32  1  0.24921523  0.00356374  0.25451409  1
  V  V33  1  0.11732697  0.12064064  0.49964058  1
  V  V34  1  0.75392642  0.25529773  0.51734841  1
  V  V35  1  0.62344903  -0.00265594  0.12587927  1
  V  V36  1  0.50615429  0.37496618  0.37936047  1
  V  V37  1  0.75214339  -0.00178035  0.75154533  1
  V  V38  1  0.50547878  0.37246819  0.87640536  1
  V  V39  1  0.50391682  0.50998416  -0.00056354  1
  V  V40  1  0.50071809  0.87154387  0.87323115  1
  V  V41  1  -0.00087034  -0.00341843  0.00101416  1
  V  V42  1  -0.00184312  0.37592177  0.37781600  1
  V  V43  1  0.74644137  0.87031216  0.12625484  1
  V  V44  1  0.13640007  0.62269230  0.49312345  1
  V  V45  1  0.87297372  0.12613259  0.24800959  1
  V  V46  1  0.62494597  -0.00112027  0.62582242  1
  V  V47  1  0.86958012  0.74368210  0.12532357  1
  V  V48  1  0.88090711  0.12469947  0.74889102  1
  V  V49  1  0.75404165  0.49955859  0.74690365  1
  V  V50  1  0.87534312  0.37329044  0.51514454  1
  V  V51  1  0.87554399  0.00225306  0.38280587  1
  V  V52  1  0.87085156  0.26227371  0.12220177  1
  V  V53  1  0.74299427  0.12603435  0.87757695  1
  V  V54  1  0.12449901  0.00187813  0.12601636  1
  V  V55  1  0.75837679  0.62424652  0.37044286  1
  V  V56  1  0.36881610  0.87586397  0.50378780  1
  V  V57  1  0.62881366  0.74344430  0.88880341  1
  V  V58  1  0.24942962  0.25544888  0.00084132  1
  V  V59  1  0.49836513  0.00011604  -0.00030068  1
  V  V60  1  -0.04684244  0.30744729  0.80935478  1
  V  V61  1  -0.00014562  0.25141958  0.24995393  1
  V  V62  1  -0.00237427  0.12589269  0.12525829  1
  V  V63  1  -0.00499430  0.74750938  0.25074495  1
  V  V64  1  0.12418477  0.62586106  -0.00133848  1
  V  V65  1  0.74701022  0.13859690  0.37266936  1
  V  V66  1  0.75251057  0.62204343  0.88493568  1
  V  V67  1  0.62859089  0.75370895  0.37008521  1
  V  V68  1  0.62619518  0.87040341  0.74871605  1
  V  V69  1  0.62887835  0.50013301  0.12290206  1
  V  V70  1  0.37456778  0.74896697  0.12718575  1
  V  V71  1  0.62382894  0.62603805  0.50017161  1
  V  V72  1  0.00009247  0.13618179  0.62759406  1
  V  V73  1  0.25599219  0.37161441  0.60545631  1
  V  V74  1  0.50390391  0.87746887  0.37235276  1
  V  V75  1  0.37353547  0.00201613  0.37711472  1
  V  V76  1  0.29097263  0.18433824  0.43614746  1
  V  V77  1  0.36955627  0.50285906  0.38022019  1
  V  V78  1  0.87566723  0.74805825  0.62296638  1
  V  V79  1  0.12503587  0.87381200  0.25020621  1
  V  V80  1  0.25084561  0.74935105  -0.00062550  1
  V  V81  1  0.49920219  0.12470182  0.62655517  1
  V  V82  1  0.24283296  -0.01998069  0.74597617  1
  V  V83  1  0.12818429  0.48998035  0.12340801  1
  V  V84  1  0.37029017  0.12944250  0.25102036  1
  Zn  Zn85  1  0.62167914  0.12803331  -0.00318812  1
  Zn  Zn86  1  0.75212868  0.87417564  0.62156057  1
  Zn  Zn87  1  0.87713592  0.50300856  0.37436427  1
  Zn  Zn88  1  0.87546729  0.37752999  -0.01262786  1
  Zn  Zn89  1  0.25037860  0.87531685  0.12466917  1
  Zn  Zn90  1  0.24707779  0.12264665  0.87298163  1
  Zn  Zn91  1  0.63109958  0.37332886  0.24898793  1
  Zn  Zn92  1  0.49945785  0.12555972  0.12465045  1
  Zn  Zn93  1  0.25042735  0.75106005  0.49486142  1
  Zn  Zn94  1  0.37238381  0.87550639  0.00045213  1
  Zn  Zn95  1  0.13160770  0.74111700  0.36853141  1
  Zn  Zn96  1  0.13092461  0.37239473  0.24841091  1
  Zn  Zn97  1  0.50165666  -0.00085576  0.50057141  1
  Zn  Zn98  1  0.37036806  0.25026538  0.61353568  1
  Zn  Zn99  1  0.37764978  0.61349399  0.73820502  1
  Zn  Zn100  1  0.37296536  0.49584726  0.86806307  1
  Zn  Zn101  1  0.12933247  0.75235333  0.86487578  1
  Zn  Zn102  1  0.50530384  0.62787074  0.12308894  1
  Zn  Zn103  1  0.87528822  -0.00301424  0.87607523  1
  Zn  Zn104  1  0.36908907  0.62877905  0.25581967  1
  Zn  Zn105  1  0.75212457  0.75220789  0.49880436  1
  Zn  Zn106  1  0.87550172  0.87717521  0.50250361  1
  Zn  Zn107  1  0.18820236  0.19010969  0.18879013  1
  Zn  Zn108  1  0.18594180  0.18932678  0.68284380  1
  Zn  Zn109  1  0.18737283  0.68299226  0.18770488  1
  Zn  Zn110  1  0.18848537  0.68919640  0.68024520  1
  Zn  Zn111  1  0.68757465  0.18485940  0.17992766  1
  Zn  Zn112  1  0.68680634  0.18578099  0.69040596  1
  Zn  Zn113  1  0.68680250  0.68096972  0.18878376  1
  Zn  Zn114  1  0.69106171  0.68445428  0.68706159  1
  Zn  Zn115  1  0.31759627  0.32638295  0.31022135  1
  Zn  Zn116  1  0.31521480  0.31224584  0.81340458  1
  Zn  Zn117  1  0.31132504  0.81322399  0.31592309  1
  Zn  Zn118  1  0.31673938  0.80551622  0.81183506  1
  Zn  Zn119  1  0.81577193  0.31661859  0.31488268  1
  Zn  Zn120  1  0.79140456  0.30974121  0.81293078  1
  Zn  Zn121  1  0.81262095  0.81403059  0.31037361  1
  Zn  Zn122  1  0.81329787  0.80864672  0.81290950  1
  Zn  Zn123  1  0.18540656  0.43907579  0.43444847  1
  Zn  Zn124  1  0.18496450  0.43729034  0.93737209  1
  Zn  Zn125  1  0.18656265  0.93783833  0.43728309  1
  Zn  Zn126  1  0.18641407  0.93617658  0.93599468  1
  Zn  Zn127  1  0.68916466  0.43610125  0.43506917  1
  Zn  Zn128  1  0.68411721  0.44032500  0.93335315  1
  Zn  Zn129  1  0.69018781  0.93834127  0.43904376  1
  Zn  Zn130  1  0.68668622  0.93396626  0.93898290  1
  Zn  Zn131  1  0.31161246  0.06578281  0.06432881  1
  Zn  Zn132  1  0.31001732  0.05312241  0.57003548  1
  Zn  Zn133  1  0.31416825  0.56473708  0.06229145  1
  Zn  Zn134  1  0.31262947  0.55748342  0.56472951  1
  Zn  Zn135  1  0.81121640  0.06253470  0.06156558  1
  Zn  Zn136  1  0.81405591  0.06638150  0.56574268  1
  Zn  Zn137  1  0.81460970  0.55954848  0.06348772  1
  Zn  Zn138  1  0.81068159  0.56378877  0.56375381  1
  Zn  Zn139  1  0.43979709  0.43984431  0.18798640  1
  Zn  Zn140  1  0.43263537  0.43543253  0.68477864  1
  Zn  Zn141  1  0.43662993  0.93420345  0.18938462  1
  Zn  Zn142  1  0.43728451  0.93323443  0.68723396  1
  Zn  Zn143  1  0.94061106  0.43842608  0.18772860  1
  Zn  Zn144  1  0.94095299  0.44403796  0.68591272  1
  Zn  Zn145  1  0.93373831  0.93636906  0.19075973  1
  Zn  Zn146  1  0.94028500  0.93630567  0.68624047  1
  Zn  Zn147  1  0.06126911  0.06410336  0.31495238  1
  Zn  Zn148  1  0.06285644  0.06036694  0.81195452  1
  Zn  Zn149  1  0.06341546  0.55898351  0.31103084  1
  Zn  Zn150  1  0.06606213  0.56560322  0.80913420  1
  Zn  Zn151  1  0.56282945  0.06521938  0.31237790  1
  Zn  Zn152  1  0.56135273  0.06130392  0.81245821  1
  Zn  Zn153  1  0.56679241  0.56305984  0.31158852  1
  Zn  Zn154  1  0.56300708  0.56072226  0.81499048  1
  Zn  Zn155  1  0.45598281  0.18862885  0.43422748  1
  Zn  Zn156  1  0.43540919  0.18574004  0.93483365  1
  Zn  Zn157  1  0.43972945  0.68485046  0.43959601  1
  Zn  Zn158  1  0.43607565  0.68896517  0.93423600  1
  Zn  Zn159  1  0.93677213  0.18742846  0.44166955  1
  Zn  Zn160  1  0.92880098  0.18088971  0.94235464  1
  Zn  Zn161  1  0.94125890  0.68885400  0.43824488  1
  Zn  Zn162  1  0.93575423  0.68638784  0.93664912  1
  Zn  Zn163  1  0.05807185  0.31384763  0.05782040  1
  Zn  Zn164  1  0.06680473  0.31511836  0.56320609  1
  Zn  Zn165  1  0.06123013  0.81070143  0.06320526  1
  Zn  Zn166  1  0.05797778  0.80537973  0.56149284  1
  Zn  Zn167  1  0.56145902  0.31880115  0.06793770  1
  Zn  Zn168  1  0.56299934  0.31124433  0.56475571  1
  Zn  Zn169  1  0.56100548  0.81626221  0.06422370  1
  Zn  Zn170  1  0.55989898  0.81229200  0.55939750  1
  O  O171  1  0.11835184  0.12287651  0.11952461  1
  O  O172  1  0.11964831  0.11770013  0.61888751  1
  O  O173  1  0.11651084  0.61800854  0.11611369  1
  O  O174  1  0.13242988  0.61083681  0.61481332  1
  O  O175  1  0.62025308  0.11074084  0.12084393  1
  O  O176  1  0.62067955  0.11775906  0.62118337  1
  O  O177  1  0.62219672  0.60979688  0.12672292  1
  O  O178  1  0.62769652  0.61344876  0.61692501  1
  O  O179  1  0.39152982  0.39122368  0.37170765  1
  O  O180  1  0.38501288  0.37287559  0.88616519  1
  O  O181  1  0.38335814  0.88308486  0.38085801  1
  O  O182  1  0.38196653  0.87879379  0.87585650  1
  O  O183  1  0.88799004  0.37532618  0.38470091  1
  O  O184  1  0.88760020  0.36455777  0.86349776  1
  O  O185  1  0.88148135  0.88465776  0.37289283  1
  O  O186  1  0.88035432  0.87317605  0.88551043  1
  O  O187  1  0.25540220  -0.00233987  0.36188441  1
  O  O188  1  0.25136000  0.00008150  0.86271662  1
  O  O189  1  0.26532667  0.49478162  0.37093188  1
  O  O190  1  0.25031881  0.51589876  0.88212002  1
  O  O191  1  0.75503750  0.00872583  0.36716692  1
  O  O192  1  0.75016772  0.00296177  0.86535886  1
  O  O193  1  0.75262092  0.50708153  0.36651903  1
  O  O194  1  0.74149843  0.51413888  0.86329402  1
  O  O195  1  0.24025050  0.50463770  0.12822418  1
  O  O196  1  0.24208585  0.48486616  0.62021832  1
  O  O197  1  0.24436958  0.99960483  0.13549131  1
  O  O198  1  0.23696811  0.99650513  0.63834476  1
  O  O199  1  0.74606706  0.50301704  0.13613562  1
  O  O200  1  0.74058127  0.50270770  0.63694595  1
  O  O201  1  0.74289721  0.99513210  0.13173658  1
  O  O202  1  0.74443143  1.00246803  0.63771018  1
  O  O203  1  0.00253091  0.36888088  0.25911768  1
  O  O204  1  0.00899629  0.36889964  0.74833524  1
  O  O205  1  0.00551868  0.86796733  0.25524640  1
  O  O206  1  -0.00827532  0.86374732  0.76164161  1
  O  O207  1  0.50155078  0.36860362  0.25778344  1
  O  O208  1  0.50278192  0.36556315  0.75525273  1
  O  O209  1  0.49581705  0.86518235  0.26310017  1
  O  O210  1  0.50649030  0.86579610  0.75611072  1
  O  O211  1  0.48730734  0.13466055  0.25377606  1
  O  O212  1  0.49075476  0.12914710  0.74743567  1
  O  O213  1  0.49901256  0.63917129  0.25108722  1
  O  O214  1  0.49971207  0.63656754  0.75480314  1
  O  O215  1  0.99391270  0.13198121  0.24496323  1
  O  O216  1  0.98833732  0.12239044  0.74782271  1
  O  O217  1  1.00541987  0.63137887  0.23841534  1
  O  O218  1  0.98570418  0.63121513  0.75847279  1
  O  O219  1  0.36855391  0.25378111  0.00612326  1
  O  O220  1  0.36510751  0.23335532  0.49307053  1
  O  O221  1  0.36726779  0.75124256  0.00646237  1
  O  O222  1  0.37850343  0.75596246  0.50816893  1
  O  O223  1  0.86588318  0.25427697  0.00628746  1
  O  O224  1  0.86246844  0.25618237  0.49860576  1
  O  O225  1  0.87944927  0.76046556  0.01035671  1
  O  O226  1  0.87529366  0.74946464  0.50958105  1
  O  O227  1  0.12399106  0.24083603  0.48817333  1
  O  O228  1  0.13101010  0.24939473  0.99166165  1
  O  O229  1  0.12386056  0.73105682  0.50365581  1
  O  O230  1  0.13032961  0.73786485  1.00226305  1
  O  O231  1  0.63794705  0.23992444  0.50691783  1
  O  O232  1  0.63594030  0.24911576  1.00870408  1
  O  O233  1  0.62528865  0.74207193  0.49000949  1
  O  O234  1  0.62088653  0.75189841  0.98722938  1
  O  O235  1  0.48807605  0.24883237  0.13042865  1
  O  O236  1  0.49424678  0.24333995  0.63349042  1
  O  O237  1  0.49526995  0.75167608  0.13343449  1
  O  O238  1  0.49174025  0.75217249  0.63180183  1
  O  O239  1  0.99308217  0.24518913  0.12799078  1
  O  O240  1  1.00962605  0.23618541  0.62508941  1
  O  O241  1  0.99289610  0.74211937  0.13059220  1
  O  O242  1  0.98720151  0.75121915  0.63373258  1
  O  O243  1  0.00611392  0.25461937  0.37160173  1
  O  O244  1  0.00546370  0.24867480  0.87783131  1
  O  O245  1  0.00470726  0.75590720  0.36519942  1
  O  O246  1  0.00125179  0.75494071  0.86788573  1
  O  O247  1  0.49838056  0.26545620  0.36479659  1
  O  O248  1  0.49638915  0.25466713  0.86308466  1
  O  O249  1  0.50673677  0.75668040  0.37031784  1
  O  O250  1  0.51104256  0.75196911  0.86843530  1
  O  O251  1  0.23940571  0.12063401  0.50235268  1
  O  O252  1  0.24349908  0.13685681  0.99907589  1
  O  O253  1  0.23863228  0.62150325  0.49865981  1
  O  O254  1  0.24342171  0.63372801  0.99456680  1
  O  O255  1  0.74820171  0.13607693  0.49475669  1
  O  O256  1  0.74803681  0.13202294  0.99298183  1
  O  O257  1  0.73920183  0.62510663  0.49130214  1
  O  O258  1  0.75444505  0.61874111  0.98415948  1
  O  O259  1  0.25805006  0.36396346  -0.00530102  1
  O  O260  1  0.24577659  0.37224817  0.50665104  1
  O  O261  1  0.24743118  0.86152602  0.00160204  1
  O  O262  1  0.26497227  0.87743765  0.49658664  1
  O  O263  1  0.75396792  0.36346541  -0.01198678  1
  O  O264  1  0.75666867  0.36187795  0.49589943  1
  O  O265  1  0.75785805  0.87942222  0.01453282  1
  O  O266  1  0.75555456  0.87136297  0.50222330  1
  O  O267  1  0.13094328  0.49796826  0.23976547  1
  O  O268  1  0.12085759  0.49182578  0.74035770  1
  O  O269  1  0.13130664  0.99702094  0.24604551  1
  O  O270  1  0.13619725  1.00129315  0.74161598  1
  O  O271  1  0.63618115  0.49918317  0.24267254  1
  O  O272  1  0.62742353  0.49580745  0.74150715  1
  O  O273  1  0.63566564  1.00475623  0.24372188  1
  O  O274  1  0.63130164  0.99333861  0.74556790  1
  O  O275  1  0.36941238  0.00952631  0.25450836  1
  O  O276  1  0.36185956  0.00269901  0.75059069  1
  O  O277  1  0.37039060  0.50320951  0.25709531  1
  O  O278  1  0.38068219  0.50270194  0.75494834  1
  O  O279  1  0.86246117  0.00742655  0.25399817  1
  O  O280  1  0.86740333  0.00692499  0.75170718  1
  O  O281  1  0.86371471  0.49813189  0.25089415  1
  O  O282  1  0.86640626  0.50745829  0.74567892  1
  O  O283  1  0.11374798  0.36685672  0.37666468  1
  O  O284  1  0.12690482  0.36777697  0.86651672  1
  O  O285  1  0.11668555  0.87955045  0.36253546  1
  O  O286  1  0.10997144  0.86946052  0.88179827  1
  O  O287  1  0.61103025  0.38043000  0.36910886  1
  O  O288  1  0.61191522  0.37797979  0.86256261  1
  O  O289  1  0.61721469  0.86713539  0.38031116  1
  O  O290  1  0.62314429  0.86206617  0.86971344  1
  O  O291  1  0.37786192  0.13359998  0.13439450  1
  O  O292  1  0.37993037  0.12449096  0.63202674  1
  O  O293  1  0.37987307  0.63821921  0.12708828  1
  O  O294  1  0.37425341  0.63868628  0.62082711  1
  O  O295  1  0.87913079  0.13256313  0.12926157  1
  O  O296  1  0.88523853  0.12226091  0.63573495  1
  O  O297  1  0.88280947  0.63551887  0.11953449  1
  O  O298  1  0.87049928  0.63260049  0.63615210  1
  O  O299  1  0.26133278  0.24913597  0.11863354  1
  O  O300  1  0.24947442  0.26590255  0.62568499  1
  O  O301  1  0.25646410  0.74947580  0.11823261  1
  O  O302  1  0.26495097  0.75169466  0.61867583  1
  O  O303  1  0.75729725  0.24660060  0.11109670  1
  O  O304  1  0.75270336  0.24726621  0.61594494  1
  O  O305  1  0.75750866  0.75647765  0.13388403  1
  O  O306  1  0.76179202  0.75138397  0.62504254  1
  O  O307  1  0.24387197  0.25328022  0.37011187  1
  O  O308  1  0.24327048  0.24672606  0.88257047  1
  O  O309  1  0.24309831  0.75481724  0.38044380  1
  O  O310  1  0.24812660  0.74185460  0.88223598  1
  O  O311  1  0.75295651  0.24058540  0.37838802  1
  O  O312  1  0.74882069  0.23974689  0.89025582  1
  O  O313  1  0.74424500  0.74393055  0.37209419  1
  O  O314  1  0.73682868  0.73976333  0.87140215  1
  O  O315  1  0.00378488  0.11728631  0.00538530  1
  O  O316  1  0.00958083  0.12458151  0.50811064  1
  O  O317  1  0.00588274  0.61873797  0.00673114  1
  O  O318  1  0.00684413  0.61258862  0.49787665  1
  O  O319  1  0.49984185  0.11274730  -0.00100392  1
  O  O320  1  0.51262326  0.12284821  0.50634899  1
  O  O321  1  0.49629192  0.61309472  -0.00257255  1
  O  O322  1  0.51583910  0.61389431  0.49292267  1
  O  O323  1  0.50614493  0.37877333  0.48756263  1
  O  O324  1  0.49439123  0.37896398  0.99213208  1
  O  O325  1  0.49219371  0.87761473  0.48792148  1
  O  O326  1  0.49782821  0.88570136  0.99321501  1
  O  O327  1  0.99481356  0.38101261  0.49571872  1
  O  O328  1  0.99872226  0.39095259  0.99735771  1
  O  O329  1  0.99901910  0.87056010  0.48361138  1
  O  O330  1  0.99254312  0.87848954  0.99662640  1
  O  O331  1  0.49815872  0.49277579  0.38211044  1
  O  O332  1  0.50033498  0.49094352  0.88369724  1
  O  O333  1  0.49386342  0.99441097  0.37471742  1
  O  O334  1  0.49407082  0.99349745  0.88046158  1
  O  O335  1  0.99843692  0.49195748  0.38238189  1
  O  O336  1  1.00397836  0.50771054  0.88881644  1
  O  O337  1  0.98695347  0.99157919  0.36461094  1
  O  O338  1  0.99796709  0.99074014  0.88113887  1
  O  O339  1  0.00413992  0.00513741  0.12273522  1
  O  O340  1  0.01482516  0.00951184  0.63411532  1
  O  O341  1  0.00634607  0.50758490  0.11904432  1
  O  O342  1  0.01493560  0.49423643  0.61453326  1
  O  O343  1  0.50520288  -0.00188209  0.11899656  1
  O  O344  1  0.50723018  0.00653235  0.62596244  1
  O  O345  1  0.50671706  0.50338574  0.11696046  1
  O  O346  1  0.50551637  0.49248747  0.60962546  1
  O  O347  1  0.24667245  0.39229517  0.25103996  1
  O  O348  1  0.24194298  0.37373972  0.74754318  1
  O  O349  1  0.24100715  0.88366246  0.24716802  1
  O  O350  1  0.24907881  0.88169974  0.75367745  1
  O  O351  1  0.74923170  0.39056791  0.25757595  1
  O  O352  1  0.73661486  0.38564661  0.75415500  1
  O  O353  1  0.75455194  0.88536249  0.23768773  1
  O  O354  1  0.74529903  0.88284915  0.74957982  1
  O  O355  1  0.26136050  0.12019123  0.24737562  1
  O  O356  1  0.25871434  0.12118265  0.74811896  1
  O  O357  1  0.25004127  0.61049764  0.24983227  1
  O  O358  1  0.24982118  0.63108862  0.76216822  1
  O  O359  1  0.75202009  0.12116345  0.25630870  1
  O  O360  1  0.75881814  0.12089834  0.75662277  1
  O  O361  1  0.74851665  0.61122483  0.25925593  1
  O  O362  1  0.75809603  0.61804055  0.75678824  1
  O  O363  1  0.36746051  0.12559017  0.37367892  1
  O  O364  1  0.37174768  0.11533485  0.86468341  1
  O  O365  1  0.38400029  0.60783874  0.37327762  1
  O  O366  1  0.36025956  0.62605996  0.87385391  1
  O  O367  1  0.86850394  0.12063568  0.36862596  1
  O  O368  1  0.86369558  0.11953891  0.86859224  1
  O  O369  1  0.86246398  0.62514576  0.38094752  1
  O  O370  1  0.85898199  0.63358342  0.86709100  1
  O  O371  1  0.12009700  0.38650395  0.12398888  1
  O  O372  1  0.13477922  0.38127905  0.63117611  1
  O  O373  1  0.12314300  0.88150526  0.13579403  1
  O  O374  1  0.11548870  0.88761698  0.61953410  1
  O  O375  1  0.62154839  0.39195290  0.13155307  1
  O  O376  1  0.61917309  0.38583729  0.63541742  1
  O  O377  1  0.63241067  0.88616804  0.12267863  1
  O  O378  1  0.62571074  0.88315904  0.62886197  1
  O  O379  1  0.11943066  0.24991726  0.26078565  1
  O  O380  1  0.12872740  0.25568405  0.76251923  1
  O  O381  1  0.11533359  0.75788461  0.24631804  1
  O  O382  1  0.10960425  0.74205550  0.74567496  1
  O  O383  1  0.61176863  0.24916224  0.23985334  1
  O  O384  1  0.61515346  0.25833355  0.74403919  1
  O  O385  1  0.61910924  0.74782134  0.26183809  1
  O  O386  1  0.61949290  0.75387434  0.75075851  1
  O  O387  1  0.37843838  0.24780929  0.24359782  1
  O  O388  1  0.38084089  0.23993711  0.74812050  1
  O  O389  1  0.38182523  0.75002958  0.24433701  1
  O  O390  1  0.38312085  0.74690531  0.73665825  1
  O  O391  1  0.87823092  0.24632246  0.24217803  1
  O  O392  1  0.88315895  0.24763136  0.75985899  1
  O  O393  1  0.88753124  0.75426232  0.24139134  1
  O  O394  1  0.88088846  0.74228023  0.74429495  1
  O  O395  1  0.38416743  0.50314408  0.48975900  1
  O  O396  1  0.38208359  0.49225336  0.99805619  1
  O  O397  1  0.37783328  0.99486448  0.49592899  1
  O  O398  1  0.37888553  0.99895248  0.99407199  1
  O  O399  1  0.88216109  0.49337935  0.50121105  1
  O  O400  1  0.88851095  0.49740681  1.00006633  1
  O  O401  1  0.87030587  1.00273607  0.48630865  1
  O  O402  1  0.88066865  0.98784669  1.00195407  1
  O  O403  1  0.12091725  0.00527713  0.00676348  1
  O  O404  1  0.12919601  0.00569524  0.51359025  1
  O  O405  1  0.11808816  0.50862293  0.00496701  1
  O  O406  1  0.11981186  0.50749397  0.50400236  1
  O  O407  1  0.61575241  0.00006687  0.00619388  1
  O  O408  1  0.62815939  0.01192552  0.50840965  1
  O  O409  1  0.61681297  0.49418049  0.00916267  1
  O  O410  1  0.62229912  0.50383223  0.50613422  1
  O  O411  1  0.38074795  0.36877117  0.11194326  1
  O  O412  1  0.36090094  0.37091309  0.62001804  1
  O  O413  1  0.37239753  0.86314332  0.12297179  1
  O  O414  1  0.38162386  0.86350298  0.61469812  1
  O  O415  1  0.87964694  0.36419800  0.12169976  1
  O  O416  1  0.87993727  0.37541990  0.61466445  1
  O  O417  1  0.86895099  0.86572062  0.12045951  1
  O  O418  1  0.87463038  0.86703247  0.62284284  1
  O  O419  1  0.12295074  0.13095902  0.38522854  1
  O  O420  1  0.12500272  0.13284629  0.88121838  1
  O  O421  1  0.12091831  0.62190781  0.38916528  1
  O  O422  1  0.13552381  0.62820852  0.88180874  1
  O  O423  1  0.63395891  0.12156557  0.38626939  1
  O  O424  1  0.63784662  0.11951223  0.87512901  1
  O  O425  1  0.63472579  0.63255098  0.38030639  1
  O  O426  1  0.63515316  0.63628296  0.87112139  1
