# generated using pymatgen
data_V85Zn86O256
_symmetry_space_group_name_H-M   'P 1'
_cell_length_a   16.94255177
_cell_length_b   16.93617849
_cell_length_c   16.95063900
_cell_angle_alpha   90.00151494
_cell_angle_beta   90.08359433
_cell_angle_gamma   90.02846951
_symmetry_Int_Tables_number   1
_chemical_formula_structural   V85Zn86O256
_chemical_formula_sum   'V85 Zn86 O256'
_cell_volume   4863.84584827
_cell_formula_units_Z   1
loop_
 _symmetry_equiv_pos_site_id
 _symmetry_equiv_pos_as_xyz
  1  'x, y, z'
loop_
 _atom_site_type_symbol
 _atom_site_label
 _atom_site_symmetry_multiplicity
 _atom_site_fract_x
 _atom_site_fract_y
 _atom_site_fract_z
 _atom_site_occupancy
  V  V0  1  -0.00531669  -0.00473496  0.00052796  1
  V  V1  1  0.62351753  0.00117397  0.12645377  1
  V  V2  1  0.49685198  0.88135890  0.87448889  1
  V  V3  1  0.74082101  0.38587381  0.63180838  1
  V  V4  1  0.12445417  0.87001397  0.25404574  1
  V  V5  1  0.87721996  0.62455498  0.75097828  1
  V  V6  1  0.24354217  0.75083572  0.49650849  1
  V  V7  1  0.50189953  0.75026445  0.74999641  1
  V  V8  1  0.87507736  0.26198004  0.12359026  1
  V  V9  1  0.62500593  -0.00074397  0.62448149  1
  V  V10  1  -0.00091651  0.49025626  -0.00324983  1
  V  V11  1  0.24118673  0.37937054  0.62521752  1
  V  V12  1  0.11242150  0.37914133  0.75337256  1
  V  V13  1  0.37371020  0.62603414  0.75028022  1
  V  V14  1  0.24759727  0.61791703  0.37132432  1
  V  V15  1  0.87599829  -0.00074735  0.87536967  1
  V  V16  1  0.25870097  0.12358393  0.37722374  1
  V  V17  1  0.49889810  0.87069110  0.36517891  1
  V  V18  1  0.87437568  0.24285270  0.63143170  1
  V  V19  1  0.50705575  0.50361585  0.00528773  1
  V  V20  1  0.00046325  0.12624995  0.12465476  1
  V  V21  1  0.38001256  0.49605572  0.87600079  1
  V  V22  1  0.50472999  0.62095939  0.62685718  1
  V  V23  1  0.25059351  0.86895661  0.12721183  1
  V  V24  1  0.74680999  0.25314454  0.50156088  1
  V  V25  1  0.37263167  0.87631801  -0.00376458  1
  V  V26  1  0.37322956  0.62632221  0.24723041  1
  V  V27  1  0.25413161  0.25570242  0.00114773  1
  V  V28  1  0.24342256  0.50242782  0.74449521  1
  V  V29  1  0.87848963  0.62936710  0.25217296  1
  V  V30  1  -0.00027304  0.87397841  0.87464096  1
  V  V31  1  0.00171646  0.62935878  0.12880027  1
  V  V32  1  0.49815091  0.00388044  0.00032381  1
  V  V33  1  0.12091775  0.25467501  0.87812346  1
  V  V34  1  0.26132668  0.11883828  0.87799440  1
  V  V35  1  0.75290042  0.87481839  0.12152425  1
  V  V36  1  -0.00716987  0.24240891  0.75593067  1
  V  V37  1  0.12383616  0.62735444  -0.00081869  1
  V  V38  1  0.75191198  0.62404933  0.86969581  1
  V  V39  1  0.76042359  0.75524627  -0.00171617  1
  V  V40  1  0.00367340  -0.00274826  0.50700253  1
  V  V41  1  0.62566229  0.38420098  0.24125463  1
  V  V42  1  0.87526003  0.12674943  0.24978997  1
  V  V43  1  0.74991457  0.87340344  0.62325204  1
  V  V44  1  0.31903790  0.06852673  0.70735661  1
  V  V45  1  0.62509956  0.12663516  0.00391059  1
  V  V46  1  0.62747887  0.87417550  0.74972092  1
  V  V47  1  0.36790074  0.75278668  0.62406644  1
  V  V48  1  0.75384775  0.25954740  0.00304828  1
  V  V49  1  0.49684112  0.49880297  0.50178606  1
  V  V50  1  0.13523550  0.88980637  0.73739827  1
  V  V51  1  0.75567635  0.00514815  0.74878877  1
  V  V52  1  0.37191053  0.25532976  0.63484876  1
  V  V53  1  0.62741317  0.75164487  0.87598611  1
  V  V54  1  0.74893902  0.74783398  0.50331057  1
  V  V55  1  0.62724453  0.61949255  0.50415847  1
  V  V56  1  0.00443152  0.75210105  0.74410228  1
  V  V57  1  0.62073831  0.25733479  0.87136212  1
  V  V58  1  0.62133648  0.74705512  0.36438313  1
  V  V59  1  0.87092833  0.49595346  0.36747656  1
  V  V60  1  0.49492356  0.23215492  0.22470372  1
  V  V61  1  0.62229096  0.12512855  0.50001170  1
  V  V62  1  0.00289256  0.25072640  0.25030539  1
  V  V63  1  0.13220155  0.38113130  0.24975220  1
  V  V64  1  0.87685900  0.37860251  0.50334146  1
  V  V65  1  0.25065358  0.62676066  0.87628086  1
  V  V66  1  0.87433786  0.48760010  0.87639407  1
  V  V67  1  0.25773616  0.38311459  0.12851321  1
  V  V68  1  0.37366621  0.87391865  0.49724150  1
  V  V69  1  0.51142310  0.63154132  0.13265551  1
  V  V70  1  0.50092878  0.12496307  0.63515225  1
  V  V71  1  0.87826726  0.75567949  0.12529275  1
  V  V72  1  0.12581887  0.24542554  0.37461073  1
  V  V73  1  0.38391371  0.37341113  0.00190960  1
  V  V74  1  0.74898604  0.61977140  0.37022568  1
  V  V75  1  0.00348827  0.38056069  0.38024101  1
  V  V76  1  0.12253929  -0.00160939  0.12487929  1
  V  V77  1  0.87786214  -0.00047891  0.37398181  1
  V  V78  1  0.87432715  0.87293764  0.49811839  1
  V  V79  1  0.12030588  0.12329596  0.50695494  1
  V  V80  1  0.74873203  0.12599940  0.37347779  1
  V  V81  1  0.24765802  0.25185403  0.50182730  1
  V  V82  1  0.49931164  0.37012559  0.37240739  1
  V  V83  1  0.75587201  0.12660639  0.87533629  1
  V  V84  1  0.26834496  0.03096451  0.22522512  1
  Zn  Zn85  1  0.25319391  0.74827210  -0.00070809  1
  Zn  Zn86  1  0.37463066  0.37585879  0.50000182  1
  Zn  Zn87  1  0.50029415  -0.00128390  0.49664904  1
  Zn  Zn88  1  0.75238504  0.39292036  0.12648167  1
  Zn  Zn89  1  0.12810708  0.75454038  0.87209793  1
  Zn  Zn90  1  0.11367327  0.60517125  0.50407763  1
  Zn  Zn91  1  0.01167361  0.60085937  0.62745450  1
  Zn  Zn92  1  -0.00283956  0.12140901  0.63207666  1
  Zn  Zn93  1  0.37375962  0.49634579  0.36705869  1
  Zn  Zn94  1  0.12802573  0.50304681  0.12852350  1
  Zn  Zn95  1  0.49211757  0.25564046  0.75820889  1
  Zn  Zn96  1  0.62289825  0.86865836  0.24438958  1
  Zn  Zn97  1  0.63313906  0.62289084  0.00720841  1
  Zn  Zn98  1  0.37895665  0.00039609  0.36780034  1
  Zn  Zn99  1  0.11635420  0.74283463  0.37194959  1
  Zn  Zn100  1  0.87734362  0.74436173  0.62192053  1
  Zn  Zn101  1  0.62217733  0.24970310  0.36749102  1
  Zn  Zn102  1  0.12580165  0.12607873  -0.00130772  1
  Zn  Zn103  1  -0.00491830  0.86609508  0.36900918  1
  Zn  Zn104  1  0.74888261  -0.00320323  0.24964583  1
  Zn  Zn105  1  0.38343772  0.75269645  0.12876673  1
  Zn  Zn106  1  0.61462920  0.39547163  0.75367400  1
  Zn  Zn107  1  0.20169899  0.18690191  0.17876061  1
  Zn  Zn108  1  0.17904754  0.19336629  0.68939666  1
  Zn  Zn109  1  0.18978599  0.68746946  0.18835838  1
  Zn  Zn110  1  0.18135520  0.69011113  0.68362520  1
  Zn  Zn111  1  0.68366936  0.19275116  0.18762395  1
  Zn  Zn112  1  0.68885346  0.18805659  0.68835796  1
  Zn  Zn113  1  0.69099419  0.56161840  0.18991302  1
  Zn  Zn114  1  0.69159971  0.56419521  0.68758868  1
  Zn  Zn115  1  0.31877908  0.30835326  0.30946935  1
  Zn  Zn116  1  0.30817453  0.31588650  0.81561247  1
  Zn  Zn117  1  0.31001850  0.80868765  0.31017420  1
  Zn  Zn118  1  0.31183135  0.81613034  0.81118246  1
  Zn  Zn119  1  0.80955979  0.31237700  0.31008865  1
  Zn  Zn120  1  0.80631603  0.31192714  0.81123518  1
  Zn  Zn121  1  0.80815594  0.80899049  0.31008651  1
  Zn  Zn122  1  0.81710947  0.81388116  0.80984332  1
  Zn  Zn123  1  0.19269440  0.43434709  0.43272523  1
  Zn  Zn124  1  0.18896054  0.43987833  0.93704092  1
  Zn  Zn125  1  0.19249051  0.94167215  0.43509585  1
  Zn  Zn126  1  0.18475990  0.93787889  0.93599210  1
  Zn  Zn127  1  0.68376594  0.43684506  0.43520628  1
  Zn  Zn128  1  0.69055338  0.43925159  0.93812201  1
  Zn  Zn129  1  0.68558384  0.93713849  0.43465633  1
  Zn  Zn130  1  0.68873687  0.93761547  0.93982989  1
  Zn  Zn131  1  0.31188939  0.06097095  0.05566815  1
  Zn  Zn132  1  0.31466889  0.06122943  0.54593112  1
  Zn  Zn133  1  0.31704185  0.56176079  0.06472900  1
  Zn  Zn134  1  0.31029036  0.56665833  0.56081492  1
  Zn  Zn135  1  0.81275044  0.06553404  0.06179760  1
  Zn  Zn136  1  0.81258431  0.06175820  0.55901773  1
  Zn  Zn137  1  0.81882650  0.56786964  0.05609386  1
  Zn  Zn138  1  0.82880294  0.56117513  0.55821029  1
  Zn  Zn139  1  0.43997322  0.44233190  0.18729795  1
  Zn  Zn140  1  0.43675690  0.43619854  0.68973724  1
  Zn  Zn141  1  0.43986984  0.93682774  0.18412567  1
  Zn  Zn142  1  0.43923920  0.93365760  0.68392275  1
  Zn  Zn143  1  0.94262763  0.44220409  0.18941942  1
  Zn  Zn144  1  0.92453517  0.42749704  0.69839883  1
  Zn  Zn145  1  0.93737523  0.93754060  0.18970670  1
  Zn  Zn146  1  0.93738896  0.93510455  0.68869928  1
  Zn  Zn147  1  0.06729386  0.05926875  0.31210120  1
  Zn  Zn148  1  0.06859095  0.06594452  0.81612420  1
  Zn  Zn149  1  0.06187418  0.56169083  0.31660897  1
  Zn  Zn150  1  0.05997325  0.56368309  0.81496010  1
  Zn  Zn151  1  0.56175231  0.05992481  0.31091458  1
  Zn  Zn152  1  0.56622803  0.06460356  0.81458976  1
  Zn  Zn153  1  0.55603434  0.56138372  0.31549834  1
  Zn  Zn154  1  0.56128026  0.56585961  0.81934281  1
  Zn  Zn155  1  0.43717042  0.19085250  0.44467099  1
  Zn  Zn156  1  0.43786704  0.18798782  0.94132938  1
  Zn  Zn157  1  0.43569417  0.68763202  0.43553940  1
  Zn  Zn158  1  0.43946515  0.68914900  0.94193791  1
  Zn  Zn159  1  0.93796949  0.19086688  0.44113014  1
  Zn  Zn160  1  0.93756807  0.18760014  0.94023370  1
  Zn  Zn161  1  0.94549866  0.68699584  0.43940066  1
  Zn  Zn162  1  0.93987774  0.68795601  0.93681756  1
  Zn  Zn163  1  0.06770190  0.31341455  0.06574050  1
  Zn  Zn164  1  0.05630516  0.43721291  0.56376062  1
  Zn  Zn165  1  0.06278540  0.81162256  0.06074935  1
  Zn  Zn166  1  0.06254535  0.81419658  0.56366507  1
  Zn  Zn167  1  0.56224392  0.31241821  0.06182549  1
  Zn  Zn168  1  0.56026949  0.31190859  0.56626854  1
  Zn  Zn169  1  0.56656555  0.81190973  0.05978827  1
  Zn  Zn170  1  0.56008969  0.80825220  0.55773881  1
  O  O171  1  0.11898330  0.11667979  0.12234074  1
  O  O172  1  0.12064643  0.13358642  0.61062022  1
  O  O173  1  0.11946577  0.62417304  0.11952996  1
  O  O174  1  0.12565556  0.62090563  0.61902873  1
  O  O175  1  0.63403842  0.11743125  0.11133452  1
  O  O176  1  0.61898617  0.12154634  0.62057595  1
  O  O177  1  0.61486423  0.62636420  0.12659828  1
  O  O178  1  0.61807785  0.62403886  0.61649448  1
  O  O179  1  0.38268145  0.37682137  0.37896646  1
  O  O180  1  0.36882439  0.38695789  0.88517450  1
  O  O181  1  0.38336334  0.87092785  0.37827989  1
  O  O182  1  0.38634864  0.87161028  0.88191420  1
  O  O183  1  0.87947235  0.37876421  0.37803800  1
  O  O184  1  0.86697079  0.38882074  0.87404367  1
  O  O185  1  0.87193557  0.88389720  0.37726225  1
  O  O186  1  0.88889131  0.88453561  0.87128246  1
  O  O187  1  0.25569666  0.01163217  0.36563772  1
  O  O188  1  0.24701210  0.01992071  0.88488942  1
  O  O189  1  0.25595793  0.51410805  0.37816068  1
  O  O190  1  0.25809640  0.51056430  0.86867971  1
  O  O191  1  0.75950811  0.00840337  0.37446211  1
  O  O192  1  0.75663138  0.00451585  0.87011783  1
  O  O193  1  0.75804121  0.50739742  0.38047201  1
  O  O194  1  0.76608890  0.51133046  0.88857525  1
  O  O195  1  0.24605868  0.48791255  0.11914322  1
  O  O196  1  0.25749136  0.49491484  0.63753071  1
  O  O197  1  0.23887033  0.98367807  0.12049361  1
  O  O198  1  0.26542949  1.01705725  0.64134807  1
  O  O199  1  0.75055909  0.50510798  0.11574410  1
  O  O200  1  0.75520155  0.48968607  0.62009525  1
  O  O201  1  0.74368371  0.99314946  0.12287682  1
  O  O202  1  0.74688213  0.99676597  0.63232823  1
  O  O203  1  0.00839189  0.36797695  0.25652800  1
  O  O204  1  0.00903943  0.36458804  0.75154738  1
  O  O205  1  0.02032779  0.88751254  0.25049908  1
  O  O206  1  0.00573684  0.86979884  0.75694447  1
  O  O207  1  0.50944826  0.37461816  0.25631840  1
  O  O208  1  0.50600600  0.36710509  0.74099272  1
  O  O209  1  0.50219222  0.87455960  0.26033871  1
  O  O210  1  0.50570065  0.87054424  0.75755603  1
  O  O211  1  0.50390848  0.13391031  0.24656242  1
  O  O212  1  0.50685901  0.13057522  0.73919710  1
  O  O213  1  0.49563368  0.62425004  0.23805854  1
  O  O214  1  0.49426539  0.63179404  0.74477904  1
  O  O215  1  0.99757498  0.13040374  0.24540527  1
  O  O216  1  1.00425632  0.13767954  0.75057484  1
  O  O217  1  0.99262915  0.61881405  0.24003765  1
  O  O218  1  0.99494769  0.63397039  0.74953116  1
  O  O219  1  0.36896620  0.26287159  -0.00547457  1
  O  O220  1  0.36442117  0.24928258  0.51618577  1
  O  O221  1  0.37490623  0.76413473  0.00292064  1
  O  O222  1  0.36702935  0.75367329  0.50541212  1
  O  O223  1  0.86686283  0.24522733  0.01151769  1
  O  O224  1  0.86374418  0.25812034  0.50531876  1
  O  O225  1  0.86840983  0.74758308  0.00720661  1
  O  O226  1  0.86588197  0.75768190  0.49848141  1
  O  O227  1  0.13147580  0.24247903  0.48425168  1
  O  O228  1  0.13200214  0.25099866  0.99340512  1
  O  O229  1  0.13959091  0.75929011  0.49837475  1
  O  O230  1  0.12725342  0.73866592  0.99556541  1
  O  O231  1  0.63540105  0.24371026  0.50147569  1
  O  O232  1  0.63130022  0.24384396  0.99257641  1
  O  O233  1  0.63124993  0.73690985  0.49449588  1
  O  O234  1  0.63884822  0.75180885  0.99036055  1
  O  O235  1  0.49955604  0.23977581  0.12403042  1
  O  O236  1  0.48782692  0.24106224  0.62416311  1
  O  O237  1  0.50247573  0.73618775  0.11928512  1
  O  O238  1  0.49432832  0.73826305  0.62794747  1
  O  O239  1  0.99428297  0.24646519  0.12890079  1
  O  O240  1  0.98443329  0.24695379  0.63903998  1
  O  O241  1  0.99292001  0.73963515  0.11840732  1
  O  O242  1  0.99533153  0.75676332  0.63842658  1
  O  O243  1  0.00678029  0.25724855  0.37078690  1
  O  O244  1  0.00793842  0.24717660  0.87192044  1
  O  O245  1  0.00349355  0.75359872  0.37158948  1
  O  O246  1  0.00069950  0.75924560  0.86659722  1
  O  O247  1  0.50287020  0.26355746  0.38421127  1
  O  O248  1  0.51724086  0.24360479  0.87681301  1
  O  O249  1  0.51100955  0.75583597  0.38144826  1
  O  O250  1  0.50896748  0.75930244  0.87427651  1
  O  O251  1  0.23999798  0.12976091  0.49335264  1
  O  O252  1  0.25031367  0.13684278  0.99120345  1
  O  O253  1  0.25093681  0.63379650  0.48713547  1
  O  O254  1  0.24362897  0.62323357  0.99311370  1
  O  O255  1  0.74546282  0.13179370  0.49056052  1
  O  O256  1  0.74352313  0.13266202  0.99334904  1
  O  O257  1  0.74638580  0.62865872  0.49376542  1
  O  O258  1  0.75176372  0.63822206  0.98760185  1
  O  O259  1  0.25928661  0.37320532  0.00471338  1
  O  O260  1  0.25152666  0.36932599  0.50919646  1
  O  O261  1  0.25771595  0.87471353  0.00325420  1
  O  O262  1  0.26461000  0.86792293  0.49090735  1
  O  O263  1  0.74540691  0.36253728  0.00624159  1
  O  O264  1  0.75307963  0.36866020  0.50579405  1
  O  O265  1  0.75105681  0.87053545  0.01056840  1
  O  O266  1  0.75343520  0.86797583  0.50176499  1
  O  O267  1  0.12152998  0.48468826  0.25155720  1
  O  O268  1  0.13362352  0.49208566  0.76179670  1
  O  O269  1  0.13739795  0.99737151  0.23588791  1
  O  O270  1  0.11856062  0.98897540  0.75056802  1
  O  O271  1  0.62345242  0.48936778  0.25353934  1
  O  O272  1  0.63345403  0.50590186  0.76220356  1
  O  O273  1  0.62876927  0.99761549  0.23838398  1
  O  O274  1  0.63364311  0.99401581  0.74505688  1
  O  O275  1  0.36392459  -0.00401805  0.24832232  1
  O  O276  1  0.37870790  0.00370956  0.75403956  1
  O  O277  1  0.38042563  0.51763316  0.25127846  1
  O  O278  1  0.36678538  0.50557184  0.75834658  1
  O  O279  1  0.87198807  0.00743586  0.25734257  1
  O  O280  1  0.86798292  -0.00203234  0.76195446  1
  O  O281  1  0.87659113  0.50874015  0.26003779  1
  O  O282  1  0.87852567  0.50723290  0.76982075  1
  O  O283  1  0.12018321  0.36492849  0.36858277  1
  O  O284  1  0.13225134  0.36441686  0.86744721  1
  O  O285  1  0.12896032  0.88016763  0.35911150  1
  O  O286  1  0.11230869  0.87585514  0.87126367  1
  O  O287  1  0.61765359  0.37211815  0.36520375  1
  O  O288  1  0.63389716  0.35970324  0.87378983  1
  O  O289  1  0.61802699  0.86500569  0.37458638  1
  O  O290  1  0.62097737  0.86952062  0.87182030  1
  O  O291  1  0.30134356  0.11008687  0.15664926  1
  O  O292  1  0.37789239  0.12738753  0.63427204  1
  O  O293  1  0.38285839  0.62967742  0.13078799  1
  O  O294  1  0.38125848  0.63281847  0.63187801  1
  O  O295  1  0.88119585  0.13151907  0.13254102  1
  O  O296  1  0.87049694  0.13935616  0.61991334  1
  O  O297  1  0.88280472  0.63439900  0.13210945  1
  O  O298  1  0.87104941  0.62487975  0.64258885  1
  O  O299  1  0.24475959  0.26600247  0.10789850  1
  O  O300  1  0.25179135  0.25879462  0.62342958  1
  O  O301  1  0.24966899  0.75997422  0.12011606  1
  O  O302  1  0.26280829  0.74491844  0.61674621  1
  O  O303  1  0.75929270  0.24916130  0.11840888  1
  O  O304  1  0.75281181  0.25697609  0.61856321  1
  O  O305  1  0.76176075  0.75862880  0.11264314  1
  O  O306  1  0.75149387  0.75523979  0.60881479  1
  O  O307  1  0.24461184  0.24499288  0.37984041  1
  O  O308  1  0.24325448  0.24702426  0.88473005  1
  O  O309  1  0.24486588  0.73991956  0.38108656  1
  O  O310  1  0.25140275  0.73723169  0.87580649  1
  O  O311  1  0.74776448  0.24340631  0.38363556  1
  O  O312  1  0.74516525  0.24288488  0.88280087  1
  O  O313  1  0.74350440  0.74170303  0.38489485  1
  O  O314  1  0.74715815  0.74893811  0.87852631  1
  O  O315  1  0.00167887  0.11303217  0.00614545  1
  O  O316  1  0.00460322  0.11745748  0.50127658  1
  O  O317  1  0.00821964  0.61998652  0.00582353  1
  O  O318  1  -0.00081669  0.62913883  0.51550764  1
  O  O319  1  0.50799355  0.11188149  -0.00658100  1
  O  O320  1  0.50635902  0.12336905  0.51154104  1
  O  O321  1  0.50328796  0.62076546  0.01118754  1
  O  O322  1  0.50730576  0.62086275  0.50676574  1
  O  O323  1  0.50011809  0.38393522  0.49668270  1
  O  O324  1  0.49163141  0.38532415  1.00591776  1
  O  O325  1  0.49044617  0.87310615  0.48968742  1
  O  O326  1  0.49565288  0.88293962  0.99317415  1
  O  O327  1  0.98763932  0.36554471  0.49019965  1
  O  O328  1  1.00588123  0.39198881  1.00672876  1
  O  O329  1  0.99310460  0.88203702  0.49617921  1
  O  O330  1  1.00349786  0.88748277  0.99341419  1
  O  O331  1  0.49735140  0.48924948  0.38404352  1
  O  O332  1  0.48483510  0.51136496  0.88535592  1
  O  O333  1  0.49948272  0.98838070  0.37625586  1
  O  O334  1  0.50976227  0.98840074  0.88259319  1
  O  O335  1  0.99064087  0.48545323  0.36961586  1
  O  O336  1  0.99026978  0.50236214  0.88726540  1
  O  O337  1  0.98800928  0.99976635  0.38097132  1
  O  O338  1  0.99387417  0.99812875  0.88136431  1
  O  O339  1  0.00334561  0.00324439  0.11848517  1
  O  O340  1  -0.01133670  0.00391660  0.61081130  1
  O  O341  1  0.00093696  0.51130738  0.11385681  1
  O  O342  1  -0.01616554  0.48973470  0.62906806  1
  O  O343  1  0.51370244  -0.00604319  0.11460866  1
  O  O344  1  0.50722818  0.00742945  0.62312163  1
  O  O345  1  0.49669538  0.51592710  0.11514607  1
  O  O346  1  0.49311347  0.51395623  0.61937546  1
  O  O347  1  0.24488127  0.36724850  0.24097495  1
  O  O348  1  0.24058965  0.38377279  0.74496732  1
  O  O349  1  0.24200136  0.87954053  0.24012500  1
  O  O350  1  0.23428027  0.87666900  0.75725514  1
  O  O351  1  0.73036942  0.36717959  0.24721525  1
  O  O352  1  0.74503852  0.37315286  0.73368944  1
  O  O353  1  0.74747825  0.87503925  0.23542333  1
  O  O354  1  0.74698606  0.88406818  0.74455214  1
  O  O355  1  0.22656888  0.12575963  0.27387009  1
  O  O356  1  0.24933235  0.12841919  0.76111178  1
  O  O357  1  0.25424090  0.62695989  0.26264271  1
  O  O358  1  0.25328798  0.61968416  0.75652489  1
  O  O359  1  0.75259063  0.12799154  0.26200151  1
  O  O360  1  0.74487665  0.11254060  0.75842547  1
  O  O361  1  0.75745541  0.62343735  0.26438648  1
  O  O362  1  0.75879766  0.62751761  0.76319886  1
  O  O363  1  0.36306433  0.12607283  0.38286013  1
  O  O364  1  0.36102368  0.13184264  0.87464986  1
  O  O365  1  0.36549478  0.62520963  0.36765086  1
  O  O366  1  0.36860521  0.62211170  0.87052018  1
  O  O367  1  0.86839245  0.12039593  0.37204323  1
  O  O368  1  0.86208481  0.11937938  0.87886140  1
  O  O369  1  0.86979183  0.61708973  0.36952594  1
  O  O370  1  0.87075270  0.62258440  0.86716467  1
  O  O371  1  0.13366222  0.37834810  0.13471764  1
  O  O372  1  0.13546717  0.37665106  0.63654883  1
  O  O373  1  0.12914905  0.87940203  0.13096386  1
  O  O374  1  0.12458166  0.87666015  0.63803176  1
  O  O375  1  0.62316451  0.37575375  0.13814674  1
  O  O376  1  0.63882034  0.37509791  0.62231491  1
  O  O377  1  0.63401021  0.88228907  0.12354874  1
  O  O378  1  0.62971137  0.87830453  0.62794509  1
  O  O379  1  0.12253503  0.25609738  0.25891109  1
  O  O380  1  0.11578834  0.25903550  0.75883570  1
  O  O381  1  0.12985289  0.76699238  0.24923148  1
  O  O382  1  0.11794429  0.75959164  0.75287755  1
  O  O383  1  0.60833125  0.25803407  0.24814879  1
  O  O384  1  0.62873370  0.24589032  0.76782610  1
  O  O385  1  0.62953161  0.74864394  0.26611000  1
  O  O386  1  0.61814150  0.75905616  0.76289605  1
  O  O387  1  0.39913563  0.25436355  0.25011237  1
  O  O388  1  0.37122042  0.25420517  0.73992579  1
  O  O389  1  0.37183883  0.73530312  0.24627762  1
  O  O390  1  0.38085114  0.74802006  0.74204350  1
  O  O391  1  0.88153182  0.24478478  0.24489696  1
  O  O392  1  0.87978185  0.25433078  0.74500254  1
  O  O393  1  0.87005239  0.73676930  0.24213767  1
  O  O394  1  0.88445737  0.74219258  0.74958996  1
  O  O395  1  0.38757578  0.50196853  0.49867935  1
  O  O396  1  0.38312355  0.49489205  0.99345072  1
  O  O397  1  0.37956400  0.98818201  0.49265583  1
  O  O398  1  0.38580241  0.99048622  1.00553286  1
  O  O399  1  0.87270007  0.48461048  0.48616235  1
  O  O400  1  0.89099527  0.50626470  0.98954532  1
  O  O401  1  0.87887146  0.99327582  0.49118193  1
  O  O402  1  0.88093259  1.00372785  0.98744102  1
  O  O403  1  0.11686131  0.00070098  0.01103257  1
  O  O404  1  0.11448891  0.00787983  0.49331273  1
  O  O405  1  0.11542512  0.51047420  -0.00198120  1
  O  O406  1  0.11796651  0.49107974  0.48962316  1
  O  O407  1  0.62044231  0.00750036  0.00507965  1
  O  O408  1  0.62633751  0.00811962  0.50686008  1
  O  O409  1  0.61048081  0.50388127  -0.01135062  1
  O  O410  1  0.61380304  0.51189958  0.49428694  1
  O  O411  1  0.36943483  0.38184836  0.11579567  1
  O  O412  1  0.36169041  0.36962755  0.62385951  1
  O  O413  1  0.36709545  0.87314136  0.11784097  1
  O  O414  1  0.38414185  0.86260259  0.61316540  1
  O  O415  1  0.87367099  0.36477623  0.13512401  1
  O  O416  1  0.86079565  0.36469582  0.61811449  1
  O  O417  1  0.87227137  0.86338355  0.13107506  1
  O  O418  1  0.86562986  0.87367077  0.61699733  1
  O  O419  1  0.12558692  0.13043562  0.38610339  1
  O  O420  1  0.13523206  0.13892635  0.87773104  1
  O  O421  1  0.13568150  0.62454114  0.37744477  1
  O  O422  1  0.13323348  0.62708970  0.88223403  1
  O  O423  1  0.63228241  0.12627252  0.38075749  1
  O  O424  1  0.63663392  0.12978435  0.88552642  1
  O  O425  1  0.63120624  0.62839580  0.38063533  1
  O  O426  1  0.63406853  0.63878962  0.87885223  1
