# generated using pymatgen
data_V85Zn86O256
_symmetry_space_group_name_H-M   'P 1'
_cell_length_a   16.95333781
_cell_length_b   16.95301188
_cell_length_c   16.95021431
_cell_angle_alpha   90.04601306
_cell_angle_beta   89.97546895
_cell_angle_gamma   90.06679762
_symmetry_Int_Tables_number   1
_chemical_formula_structural   V85Zn86O256
_chemical_formula_sum   'V85 Zn86 O256'
_cell_volume   4871.65809261
_cell_formula_units_Z   1
loop_
 _symmetry_equiv_pos_site_id
 _symmetry_equiv_pos_as_xyz
  1  'x, y, z'
loop_
 _atom_site_type_symbol
 _atom_site_label
 _atom_site_symmetry_multiplicity
 _atom_site_fract_x
 _atom_site_fract_y
 _atom_site_fract_z
 _atom_site_occupancy
  V  V0  1  0.12928898  0.62444107  -0.00200805  1
  V  V1  1  0.86502497  0.37657279  0.48083346  1
  V  V2  1  0.74811571  0.37376162  0.12213012  1
  V  V3  1  0.25051056  0.25139410  0.49856876  1
  V  V4  1  0.87839063  0.87504469  0.50218466  1
  V  V5  1  0.37898774  0.49658724  0.87259613  1
  V  V6  1  0.12414925  0.12857571  -0.00606044  1
  V  V7  1  0.24837132  0.37437571  0.12327604  1
  V  V8  1  0.36681671  0.75194366  0.11182748  1
  V  V9  1  0.74995304  -0.00052054  0.24968799  1
  V  V10  1  0.50156874  0.00402997  0.49684012  1
  V  V11  1  0.75878884  0.87528829  0.11788244  1
  V  V12  1  0.00285894  0.63059738  0.62064697  1
  V  V13  1  0.88870724  0.13137129  0.74577671  1
  V  V14  1  0.62674538  0.00741307  0.62050759  1
  V  V15  1  0.25065557  0.12543793  0.37015112  1
  V  V16  1  0.49894463  0.24863927  0.24993488  1
  V  V17  1  0.62014025  0.24362880  0.38411901  1
  V  V18  1  0.63172040  0.37387606  0.75518298  1
  V  V19  1  0.87434607  0.60429577  0.75114553  1
  V  V20  1  0.75389995  0.61009993  0.86990935  1
  V  V21  1  0.75018858  0.00617704  0.75199863  1
  V  V22  1  0.62840666  0.62508349  -0.00252932  1
  V  V23  1  0.26082380  0.12090597  0.86755976  1
  V  V24  1  -0.00358199  0.25825275  0.25901109  1
  V  V25  1  0.62608446  0.62684364  0.50033035  1
  V  V26  1  0.75199403  0.87755582  0.62609227  1
  V  V27  1  0.50217658  0.50023194  0.50483195  1
  V  V28  1  0.75109573  0.49971089  0.25612591  1
  V  V29  1  0.75973206  0.75051391  -0.00411659  1
  V  V30  1  0.11928709  0.86477992  0.73975641  1
  V  V31  1  0.37583087  0.37531521  0.50637034  1
  V  V32  1  0.63096672  0.50027882  0.63314762  1
  V  V33  1  0.37546701  0.24602979  0.63346487  1
  V  V34  1  0.24414219  0.49582950  0.75173144  1
  V  V35  1  0.62516266  0.00590535  0.11332583  1
  V  V36  1  -0.00160525  0.62677413  0.12372860  1
  V  V37  1  0.37787803  0.62895348  0.75182015  1
  V  V38  1  0.36918114  -0.00279079  0.36925757  1
  V  V39  1  0.13414950  0.00443806  0.12991605  1
  V  V40  1  0.50023659  0.87523333  0.37437074  1
  V  V41  1  0.49783276  0.12347654  0.62841995  1
  V  V42  1  0.62168652  0.24841391  0.88798909  1
  V  V43  1  0.61879418  0.87409349  0.75018929  1
  V  V44  1  0.50163549  0.75037694  0.24694739  1
  V  V45  1  0.11377322  0.49499685  0.62548874  1
  V  V46  1  0.12862330  0.74733969  0.38460517  1
  V  V47  1  0.50198589  0.25183890  0.75381581  1
  V  V48  1  0.48717487  -0.00582681  -0.01140673  1
  V  V49  1  0.00113635  0.00408836  0.50898129  1
  V  V50  1  0.36397477  0.86680551  0.50336436  1
  V  V51  1  0.62791411  0.87464064  0.24781297  1
  V  V52  1  -0.01148607  0.49643866  -0.01065939  1
  V  V53  1  0.74485648  0.12950271  0.88744678  1
  V  V54  1  0.12400336  0.37641306  0.25115738  1
  V  V55  1  0.49762061  0.37637908  0.37582490  1
  V  V56  1  0.49923280  0.63748542  0.62830153  1
  V  V57  1  -0.00017740  0.12834709  0.12582299  1
  V  V58  1  0.87706732  -0.00102555  0.88136999  1
  V  V59  1  0.87808424  0.75019815  0.63773081  1
  V  V60  1  0.74351980  0.12321078  0.38212477  1
  V  V61  1  -0.00420729  0.86783449  0.87962811  1
  V  V62  1  0.12696504  0.26396143  0.37619496  1
  V  V63  1  0.37594634  0.24955890  0.12305111  1
  V  V64  1  0.75343296  0.75077174  0.49988634  1
  V  V65  1  0.13381572  0.88226452  0.24823772  1
  V  V66  1  0.00170528  0.87852730  0.37707934  1
  V  V67  1  0.12363179  0.12588580  0.50050270  1
  V  V68  1  0.37430495  0.62718275  0.25228637  1
  V  V69  1  0.25212486  0.50315925  0.25230535  1
  V  V70  1  -0.00796491  0.49127566  0.48817963  1
  V  V71  1  0.87036026  0.25099330  0.11940963  1
  V  V72  1  0.87623765  0.62256779  0.25654424  1
  V  V73  1  0.37107463  0.11936736  0.24457508  1
  V  V74  1  0.62486179  0.75148768  0.86969270  1
  V  V75  1  0.50237726  0.62612865  0.12450778  1
  V  V76  1  0.87608030  0.00168724  0.37590381  1
  V  V77  1  0.12093353  0.74493843  0.87193420  1
  V  V78  1  0.37756106  0.37329056  -0.00493806  1
  V  V79  1  0.00100760  0.75303606  0.24676321  1
  V  V80  1  0.87439050  0.12762337  0.25673987  1
  V  V81  1  0.50223208  0.49619953  -0.00185846  1
  V  V82  1  0.12298603  0.50069040  0.12489645  1
  V  V83  1  0.23977092  0.37174951  0.63115969  1
  V  V84  1  0.13568799  -0.00263048  0.62399845  1
  Zn  Zn85  1  0.25593762  0.64354233  0.39546581  1
  Zn  Zn86  1  0.25089558  0.62466358  0.87894183  1
  Zn  Zn87  1  0.35914759  0.75304065  0.63127775  1
  Zn  Zn88  1  0.37506575  -0.02446137  0.86759261  1
  Zn  Zn89  1  0.86871684  0.37486176  -0.00826644  1
  Zn  Zn90  1  -0.00317843  -0.00302886  0.00431763  1
  Zn  Zn91  1  0.88268799  0.75718974  0.11749171  1
  Zn  Zn92  1  0.87545115  0.25519993  0.62809202  1
  Zn  Zn93  1  0.74810423  0.24718759  0.50278850  1
  Zn  Zn94  1  -0.01161851  0.36351234  0.84380837  1
  Zn  Zn95  1  0.50529841  0.12576792  0.11844950  1
  Zn  Zn96  1  0.45443764  0.81162456  0.81273081  1
  Zn  Zn97  1  0.62885163  0.75052537  0.37415477  1
  Zn  Zn98  1  0.62336086  0.37761503  0.25065572  1
  Zn  Zn99  1  0.37333976  0.50736587  0.38344669  1
  Zn  Zn100  1  0.26242484  0.88353064  0.11209310  1
  Zn  Zn101  1  0.62598266  0.50042446  0.12694526  1
  Zn  Zn102  1  0.24931549  0.24921400  -0.00639566  1
  Zn  Zn103  1  0.25609569  -0.00620526  0.74588069  1
  Zn  Zn104  1  0.12384707  0.25584688  0.84529472  1
  Zn  Zn105  1  0.75876009  0.62235801  0.37965501  1
  Zn  Zn106  1  0.74889557  0.37218613  0.62342389  1
  Zn  Zn107  1  0.18693482  0.19167993  0.18536409  1
  Zn  Zn108  1  0.19197886  0.17702474  0.68331616  1
  Zn  Zn109  1  0.18626952  0.68903248  0.19042219  1
  Zn  Zn110  1  0.18527311  0.68145212  0.69104001  1
  Zn  Zn111  1  0.68707346  0.18888887  0.19268140  1
  Zn  Zn112  1  0.69005620  0.18878677  0.68794903  1
  Zn  Zn113  1  0.69214563  0.68778498  0.18415216  1
  Zn  Zn114  1  0.69242465  0.68673990  0.68789573  1
  Zn  Zn115  1  0.31462296  0.31499275  0.31199773  1
  Zn  Zn116  1  0.30916250  0.30814588  0.81349239  1
  Zn  Zn117  1  0.31107950  0.81389165  0.30608265  1
  Zn  Zn118  1  0.29359432  0.81261253  0.81641325  1
  Zn  Zn119  1  0.80709664  0.31264421  0.31396315  1
  Zn  Zn120  1  0.81067406  0.31126302  0.81567492  1
  Zn  Zn121  1  0.81533892  0.81110812  0.31201638  1
  Zn  Zn122  1  0.80912870  0.81464674  0.81433255  1
  Zn  Zn123  1  0.19987580  0.46792983  0.45364233  1
  Zn  Zn124  1  0.18641764  0.43970601  0.93605368  1
  Zn  Zn125  1  0.18800286  0.93984123  0.43205982  1
  Zn  Zn126  1  0.18584849  0.94017549  0.93772916  1
  Zn  Zn127  1  0.68389775  0.43887366  0.43468603  1
  Zn  Zn128  1  0.68613320  0.43189466  0.93825856  1
  Zn  Zn129  1  0.68709318  0.93684364  0.43791677  1
  Zn  Zn130  1  0.68767464  0.93478358  0.93562017  1
  Zn  Zn131  1  0.31315601  0.06349532  0.05512281  1
  Zn  Zn132  1  0.31468717  0.06154164  0.55841884  1
  Zn  Zn133  1  0.31401355  0.56348606  0.06377805  1
  Zn  Zn134  1  0.30891889  0.56802365  0.56905783  1
  Zn  Zn135  1  0.81365167  0.06353701  0.06395630  1
  Zn  Zn136  1  0.81527904  0.06593572  0.56375327  1
  Zn  Zn137  1  0.81197960  0.56486616  0.06887110  1
  Zn  Zn138  1  0.81499382  0.56086029  0.56318481  1
  Zn  Zn139  1  0.43742872  0.43912448  0.18523518  1
  Zn  Zn140  1  0.44234159  0.43680719  0.68975429  1
  Zn  Zn141  1  0.44039902  0.93575083  0.18255627  1
  Zn  Zn142  1  0.43314408  0.94008176  0.68338394  1
  Zn  Zn143  1  0.93488562  0.43794016  0.18726417  1
  Zn  Zn144  1  0.92860388  0.43317129  0.67635413  1
  Zn  Zn145  1  0.94138747  0.93977260  0.18832701  1
  Zn  Zn146  1  0.94028420  0.94003983  0.69231311  1
  Zn  Zn147  1  0.06272107  0.06701861  0.31487903  1
  Zn  Zn148  1  0.06593815  0.05721660  0.81323937  1
  Zn  Zn149  1  0.06524147  0.56681117  0.31213328  1
  Zn  Zn150  1  0.05639480  0.55642205  0.80798251  1
  Zn  Zn151  1  0.56003112  0.06137753  0.30733498  1
  Zn  Zn152  1  0.56054649  0.06407031  0.81219841  1
  Zn  Zn153  1  0.56469139  0.56228619  0.31505332  1
  Zn  Zn154  1  0.56167568  0.56316152  0.81314754  1
  Zn  Zn155  1  0.43596609  0.18501643  0.43967968  1
  Zn  Zn156  1  0.44252033  0.17988257  0.94122092  1
  Zn  Zn157  1  0.44342211  0.68941269  0.43551467  1
  Zn  Zn158  1  0.43973820  0.68326589  0.93723220  1
  Zn  Zn159  1  0.98152913  0.23825175  0.48617950  1
  Zn  Zn160  1  0.93527123  0.18672884  0.93344690  1
  Zn  Zn161  1  0.94379378  0.68962842  0.44107821  1
  Zn  Zn162  1  0.93934009  0.68334564  0.93317303  1
  Zn  Zn163  1  0.06153324  0.31399984  -0.01400407  1
  Zn  Zn164  1  0.05000963  0.29824192  0.67132186  1
  Zn  Zn165  1  0.09831974  0.82731123  0.04594822  1
  Zn  Zn166  1  0.18686856  0.80928309  0.56384819  1
  Zn  Zn167  1  0.56238113  0.31538453  0.06557267  1
  Zn  Zn168  1  0.56457392  0.31267592  0.56603473  1
  Zn  Zn169  1  0.56672073  0.81336867  0.05966306  1
  Zn  Zn170  1  0.56220645  0.81765632  0.56250086  1
  O  O171  1  0.11621664  0.11977010  0.12793275  1
  O  O172  1  0.12978973  0.11270184  0.60939358  1
  O  O173  1  0.11839403  0.62217377  0.11882525  1
  O  O174  1  0.10737040  0.61403908  0.63164559  1
  O  O175  1  0.62677879  0.10892275  0.13402267  1
  O  O176  1  0.61870121  0.11319759  0.62653112  1
  O  O177  1  0.61959769  0.62597315  0.11597323  1
  O  O178  1  0.61884413  0.62281966  0.61942154  1
  O  O179  1  0.38589451  0.37342171  0.38537866  1
  O  O180  1  0.37013792  0.37973386  0.88780558  1
  O  O181  1  0.37806067  0.88120530  0.37717676  1
  O  O182  1  0.37541199  0.86061018  0.87342630  1
  O  O183  1  0.86389140  0.38597629  0.38093860  1
  O  O184  1  0.87914591  0.36726962  0.88042159  1
  O  O185  1  0.88206235  0.88106769  0.37990908  1
  O  O186  1  0.88717103  0.88229733  0.86729666  1
  O  O187  1  0.26276359  0.00590236  0.37409072  1
  O  O188  1  0.25043756  0.00941744  0.87569157  1
  O  O189  1  0.25944453  0.48099962  0.35386845  1
  O  O190  1  0.25972757  0.50037492  0.86886089  1
  O  O191  1  0.75374911  0.00431900  0.36944683  1
  O  O192  1  0.75402408  0.00712336  0.86944745  1
  O  O193  1  0.74252094  0.50590831  0.36124671  1
  O  O194  1  0.74464223  0.51167243  0.87937696  1
  O  O195  1  0.24756157  0.49499164  0.13398749  1
  O  O196  1  0.24048575  0.49100430  0.63391110  1
  O  O197  1  0.23773148  1.00277189  0.12334697  1
  O  O198  1  0.23933982  0.99941859  0.62058527  1
  O  O199  1  0.74837700  0.49396077  0.13610975  1
  O  O200  1  0.73304542  0.50425966  0.62280388  1
  O  O201  1  0.74337794  0.99478834  0.12894284  1
  O  O202  1  0.74345623  0.99922748  0.63042287  1
  O  O203  1  0.00473154  0.36462511  0.24703280  1
  O  O204  1  0.00677756  0.38251785  0.73548648  1
  O  O205  1  0.00174173  0.87036355  0.26130025  1
  O  O206  1  0.01192469  0.88127033  0.76046512  1
  O  O207  1  0.49599367  0.36822299  0.25873409  1
  O  O208  1  0.50922573  0.35838940  0.74478337  1
  O  O209  1  0.50934432  0.87036812  0.25301304  1
  O  O210  1  0.51503139  0.87302988  0.73634055  1
  O  O211  1  0.48840362  0.13232203  0.24729340  1
  O  O212  1  0.50463371  0.13357981  0.73574691  1
  O  O213  1  0.49482104  0.63045316  0.24633420  1
  O  O214  1  0.48771501  0.62022393  0.74241165  1
  O  O215  1  0.99080131  0.13384067  0.25047787  1
  O  O216  1  0.98649275  0.12069726  0.75812944  1
  O  O217  1  0.99694078  0.63344462  0.24377199  1
  O  O218  1  0.98330522  0.61569624  0.73728499  1
  O  O219  1  0.37684963  0.25789175  0.00423221  1
  O  O220  1  0.37253627  0.25929602  0.50792883  1
  O  O221  1  0.37750327  0.74099859  0.01367856  1
  O  O222  1  0.37810173  0.76578637  0.49320904  1
  O  O223  1  0.87662364  0.24696054  0.01782380  1
  O  O224  1  0.86761907  0.26923380  0.48321504  1
  O  O225  1  0.86385934  0.74371669  -0.00145965  1
  O  O226  1  0.87058211  0.75616168  0.50803849  1
  O  O227  1  0.13431842  0.24107385  0.49014235  1
  O  O228  1  0.13218775  0.23159425  1.02041344  1
  O  O229  1  0.11842397  0.75949862  0.48238516  1
  O  O230  1  0.10632207  0.73044047  0.98665189  1
  O  O231  1  0.62249003  0.25042520  0.48750409  1
  O  O232  1  0.61480165  0.24995328  0.98690132  1
  O  O233  1  0.63507428  0.74526548  0.50289225  1
  O  O234  1  0.63547056  0.74402410  0.99228086  1
  O  O235  1  0.49537589  0.24770822  0.13355182  1
  O  O236  1  0.49498342  0.24158681  0.62885634  1
  O  O237  1  0.49541352  0.74523576  0.12858478  1
  O  O238  1  0.49745825  0.73895138  0.61967102  1
  O  O239  1  0.98815147  0.23739344  0.14270281  1
  O  O240  1  0.98564188  0.24579872  0.59832317  1
  O  O241  1  1.00265083  0.74114042  0.13160465  1
  O  O242  1  0.99081497  0.73221192  0.62089022  1
  O  O243  1  0.01541499  0.24880575  0.37181122  1
  O  O244  1  0.01278933  0.25567433  0.89345713  1
  O  O245  1  0.00839109  0.75940466  0.36896526  1
  O  O246  1  0.00068407  0.76116380  0.87260961  1
  O  O247  1  0.50135464  0.25370827  0.37007738  1
  O  O248  1  0.51210426  0.23731797  0.86638605  1
  O  O249  1  0.50576800  0.75780728  0.36541630  1
  O  O250  1  0.51927444  0.74003759  0.87589237  1
  O  O251  1  0.24511729  0.12971992  0.49065547  1
  O  O252  1  0.24172696  0.12552500  0.98951208  1
  O  O253  1  0.24512727  0.57353171  0.48038430  1
  O  O254  1  0.23414342  0.61497680  0.99864965  1
  O  O255  1  0.75382074  0.12349403  0.48524569  1
  O  O256  1  0.75193271  0.12242508  0.98581215  1
  O  O257  1  0.74471547  0.63346079  0.50068916  1
  O  O258  1  0.74652462  0.63045962  0.99352725  1
  O  O259  1  0.25885672  0.37632257  0.01075928  1
  O  O260  1  0.25954310  0.37368893  0.51021887  1
  O  O261  1  0.20479617  0.86657049  0.01769516  1
  O  O262  1  0.25982934  0.87660242  0.49730842  1
  O  O263  1  0.75133324  0.38050303  0.01728202  1
  O  O264  1  0.75385774  0.37574272  0.49717745  1
  O  O265  1  0.74696809  0.86514133  0.00686554  1
  O  O266  1  0.75708959  0.87053097  0.50649375  1
  O  O267  1  0.13319710  0.49756266  0.24590966  1
  O  O268  1  0.13539117  0.50290489  0.74195048  1
  O  O269  1  0.12149225  0.99436771  0.24578377  1
  O  O270  1  0.12468034  0.99170312  0.73684329  1
  O  O271  1  0.63290582  0.50057966  0.24722328  1
  O  O272  1  0.61522696  0.48780003  0.74497089  1
  O  O273  1  0.62912502  0.98911851  0.24286881  1
  O  O274  1  0.63074585  0.99447595  0.74308467  1
  O  O275  1  0.38213280  0.00748937  0.25598719  1
  O  O276  1  0.36966066  -0.00709132  0.75396852  1
  O  O277  1  0.37173653  0.51429646  0.24760397  1
  O  O278  1  0.37125742  0.50242794  0.75780718  1
  O  O279  1  0.86973477  0.00749094  0.25518299  1
  O  O280  1  0.86765599  0.00693748  0.76007264  1
  O  O281  1  0.86648610  0.51160439  0.24606695  1
  O  O282  1  0.86633697  0.50714971  0.74419068  1
  O  O283  1  0.13764259  0.36637782  0.36908434  1
  O  O284  1  0.11725514  0.36405347  0.89540428  1
  O  O285  1  0.11839154  0.87258070  0.36591903  1
  O  O286  1  0.11185503  0.86581848  0.86578568  1
  O  O287  1  0.61075387  0.36685572  0.37329342  1
  O  O288  1  0.62753436  0.35783473  0.87101626  1
  O  O289  1  0.62048756  0.87486840  0.36496731  1
  O  O290  1  0.63080542  0.86635269  0.86236388  1
  O  O291  1  0.37579230  0.13009675  0.13009855  1
  O  O292  1  0.38356945  0.13480525  0.61814564  1
  O  O293  1  0.38192232  0.63310557  0.13172992  1
  O  O294  1  0.38345716  0.62512236  0.63286850  1
  O  O295  1  0.87656926  0.12983056  0.13792802  1
  O  O296  1  0.87368360  0.11963401  0.64395875  1
  O  O297  1  0.88329546  0.63219079  0.13575838  1
  O  O298  1  0.87708669  0.63070590  0.63538684  1
  O  O299  1  0.25931639  0.25968023  0.12409025  1
  O  O300  1  0.26028652  0.25428317  0.61854747  1
  O  O301  1  0.26556748  0.74543986  0.12823869  1
  O  O302  1  0.24830265  0.73288821  0.61491460  1
  O  O303  1  0.75819281  0.25946396  0.13735957  1
  O  O304  1  0.75476225  0.24916849  0.61857093  1
  O  O305  1  0.75342176  0.75920044  0.11474598  1
  O  O306  1  0.75842774  0.75537160  0.61565810  1
  O  O307  1  0.24877189  0.24620611  0.37983604  1
  O  O308  1  0.24517638  0.23603173  0.87500714  1
  O  O309  1  0.23516058  0.75513954  0.37053986  1
  O  O310  1  0.22573226  0.73988697  0.87279567  1
  O  O311  1  0.73565807  0.23977249  0.37201840  1
  O  O312  1  0.73663698  0.23661243  0.87379988  1
  O  O313  1  0.75034309  0.75061498  0.38846066  1
  O  O314  1  0.74358877  0.74358512  0.88052427  1
  O  O315  1  0.00431035  0.12470759  0.01160047  1
  O  O316  1  0.01752782  0.11598492  0.48554487  1
  O  O317  1  0.00164181  0.61361511  0.00702642  1
  O  O318  1  -0.01091638  0.61468812  0.51570903  1
  O  O319  1  0.49934232  0.10362404  0.00512558  1
  O  O320  1  0.49482757  0.11123691  0.50759229  1
  O  O321  1  0.50653185  0.61398924  0.00403408  1
  O  O322  1  0.50681052  0.62169864  0.50762068  1
  O  O323  1  0.49491334  0.37763240  0.49610369  1
  O  O324  1  0.49221697  0.38819100  1.00615897  1
  O  O325  1  0.49274952  0.88462303  0.49264994  1
  O  O326  1  0.51338259  0.89682500  1.00472703  1
  O  O327  1  0.98003519  0.38753354  0.49111525  1
  O  O328  1  0.99095043  0.39585567  1.02090284  1
  O  O329  1  0.99472593  0.88731035  0.48590039  1
  O  O330  1  1.00601224  0.87744167  0.98323299  1
  O  O331  1  0.49752459  0.49194240  0.38369333  1
  O  O332  1  0.48721996  0.50266481  0.88258071  1
  O  O333  1  0.49200117  0.99659687  0.37977324  1
  O  O334  1  0.49782503  1.00127630  0.88437482  1
  O  O335  1  1.00766582  0.50990851  0.39151515  1
  O  O336  1  1.00019758  0.49447656  0.88863224  1
  O  O337  1  0.99495405  0.99508938  0.37949547  1
  O  O338  1  0.99227607  0.99058620  0.87734264  1
  O  O339  1  0.00075868  0.01655761  0.12752187  1
  O  O340  1  0.00727658  -0.00406394  0.61157308  1
  O  O341  1  0.00460556  0.51451694  0.12874721  1
  O  O342  1  0.00176178  0.50690153  0.61641749  1
  O  O343  1  0.51526690  0.00009108  0.12226100  1
  O  O344  1  0.50587245  0.00595137  0.61686737  1
  O  O345  1  0.50076089  0.50864489  0.11688914  1
  O  O346  1  0.50917267  0.50867092  0.62092530  1
  O  O347  1  0.25044501  0.37897781  0.23740550  1
  O  O348  1  0.25940123  0.38493010  0.74197279  1
  O  O349  1  0.23570787  0.87194753  0.23810234  1
  O  O350  1  0.22392389  0.87666739  0.75203707  1
  O  O351  1  0.74700338  0.38434094  0.24382030  1
  O  O352  1  0.73483676  0.36844312  0.74758914  1
  O  O353  1  0.74493872  0.87900200  0.24438666  1
  O  O354  1  0.74528557  0.88841054  0.74438100  1
  O  O355  1  0.26426019  0.13340250  0.25359207  1
  O  O356  1  0.24650461  0.11610659  0.76393621  1
  O  O357  1  0.25756980  0.61802764  0.25318394  1
  O  O358  1  0.26160016  0.61132953  0.75173877  1
  O  O359  1  0.75558736  0.11825727  0.25812246  1
  O  O360  1  0.75096854  0.11408527  0.75826750  1
  O  O361  1  0.75954229  0.62144460  0.25114689  1
  O  O362  1  0.76350093  0.62820608  0.75669965  1
  O  O363  1  0.37071551  0.11727238  0.36783752  1
  O  O364  1  0.36078197  0.12408690  0.88010531  1
  O  O365  1  0.37326185  0.62584110  0.36772994  1
  O  O366  1  0.37316560  0.61648089  0.86863307  1
  O  O367  1  0.86452382  0.11856944  0.36409877  1
  O  O368  1  0.86294990  0.12024492  0.86759668  1
  O  O369  1  0.87791502  0.63548777  0.36087502  1
  O  O370  1  0.87088925  0.62573753  0.85830676  1
  O  O371  1  0.13651348  0.38396479  0.13378214  1
  O  O372  1  0.13725496  0.37933894  0.62272905  1
  O  O373  1  0.10281981  0.89402045  0.14044396  1
  O  O374  1  0.12002961  0.87851261  0.63247516  1
  O  O375  1  0.63254853  0.37652085  0.13087131  1
  O  O376  1  0.62618929  0.38363605  0.63312743  1
  O  O377  1  0.63703788  0.88354263  0.13088481  1
  O  O378  1  0.63318958  0.88509143  0.62904330  1
  O  O379  1  0.11760609  0.25614012  0.25658890  1
  O  O380  1  0.12926792  0.25078634  0.73462494  1
  O  O381  1  0.11449681  0.76012057  0.25371074  1
  O  O382  1  0.11804156  0.75741126  0.75264614  1
  O  O383  1  0.60983767  0.25018584  0.25896981  1
  O  O384  1  0.61833150  0.25441194  0.75688954  1
  O  O385  1  0.62403283  0.76133689  0.24765208  1
  O  O386  1  0.63576879  0.76088960  0.75630022  1
  O  O387  1  0.38454455  0.24477306  0.24595302  1
  O  O388  1  0.38293304  0.25348157  0.73983639  1
  O  O389  1  0.38023532  0.74015922  0.24501882  1
  O  O390  1  0.37257786  0.74094809  0.75044180  1
  O  O391  1  0.88049083  0.24405698  0.25217956  1
  O  O392  1  0.87104788  0.23422557  0.75003932  1
  O  O393  1  0.88926942  0.74871388  0.24714089  1
  O  O394  1  0.87028993  0.75067858  0.73862954  1
  O  O395  1  0.38452832  0.48640922  0.50501023  1
  O  O396  1  0.38062135  0.49470267  0.99362270  1
  O  O397  1  0.38068046  0.98906667  0.49032191  1
  O  O398  1  0.38363171  0.99197554  0.99732443  1
  O  O399  1  0.88227033  0.49535781  0.49867196  1
  O  O400  1  0.88660566  0.50451050  1.00476756  1
  O  O401  1  0.88332278  0.99751860  0.49614479  1
  O  O402  1  0.87565864  1.00432874  0.98630096  1
  O  O403  1  0.11765744  0.01540322  0.01175659  1
  O  O404  1  0.12008895  0.00380477  0.50226320  1
  O  O405  1  0.11237077  0.50718339  0.00769301  1
  O  O406  1  0.10572062  0.48883802  0.51667572  1
  O  O407  1  0.63042950  0.00070415  0.01263043  1
  O  O408  1  0.61462588  -0.00665133  0.50839419  1
  O  O409  1  0.61623367  0.50451972  -0.00018593  1
  O  O410  1  0.62011078  0.50926252  0.50676973  1
  O  O411  1  0.36989492  0.37182641  0.11552793  1
  O  O412  1  0.37165758  0.36724722  0.62072808  1
  O  O413  1  0.37504172  0.85829559  0.12851507  1
  O  O414  1  0.37872522  0.87000939  0.60654744  1
  O  O415  1  0.86566729  0.36527013  0.12796789  1
  O  O416  1  0.86332066  0.37553371  0.60563114  1
  O  O417  1  0.86324016  0.87709823  0.12944188  1
  O  O418  1  0.87289639  0.87031929  0.62237640  1
  O  O419  1  0.13652601  0.13262555  0.37677637  1
  O  O420  1  0.13020220  0.12465658  0.88351109  1
  O  O421  1  0.12698337  0.64491305  0.37003643  1
  O  O422  1  0.11791025  0.62716878  0.87946696  1
  O  O423  1  0.63067198  0.13052217  0.36813289  1
  O  O424  1  0.63639769  0.13266426  0.87165844  1
  O  O425  1  0.62467575  0.62933736  0.39089488  1
  O  O426  1  0.63475217  0.63026241  0.87668800  1
