# generated using pymatgen
data_V85Zn86O256
_symmetry_space_group_name_H-M   'P 1'
_cell_length_a   16.97795055
_cell_length_b   16.96030923
_cell_length_c   16.98183945
_cell_angle_alpha   90.05904930
_cell_angle_beta   89.91667878
_cell_angle_gamma   90.01131679
_symmetry_Int_Tables_number   1
_chemical_formula_structural   V85Zn86O256
_chemical_formula_sum   'V85 Zn86 O256'
_cell_volume   4889.93473817
_cell_formula_units_Z   1
loop_
 _symmetry_equiv_pos_site_id
 _symmetry_equiv_pos_as_xyz
  1  'x, y, z'
loop_
 _atom_site_type_symbol
 _atom_site_label
 _atom_site_symmetry_multiplicity
 _atom_site_fract_x
 _atom_site_fract_y
 _atom_site_fract_z
 _atom_site_occupancy
  V  V0  1  0.12611648  0.62591406  0.00359388  1
  V  V1  1  0.37446447  0.75055411  0.62834930  1
  V  V2  1  0.37376642  0.49952031  0.87576879  1
  V  V3  1  0.88084863  0.25816828  0.62137066  1
  V  V4  1  0.25201828  0.00890207  0.75071061  1
  V  V5  1  0.86819985  0.61440752  0.76090670  1
  V  V6  1  0.12615457  0.49973040  0.12768122  1
  V  V7  1  0.88236375  0.87388263  0.49902034  1
  V  V8  1  0.37505487  0.62519291  0.75239467  1
  V  V9  1  0.25201271  0.12469213  0.37532703  1
  V  V10  1  0.11929224  0.87276489  0.75486588  1
  V  V11  1  0.11396242  0.87856310  0.25337271  1
  V  V12  1  -0.00168690  0.12933588  0.11198171  1
  V  V13  1  0.87626074  0.25887931  0.12703093  1
  V  V14  1  0.49987212  0.62242759  0.62656744  1
  V  V15  1  0.74605496  0.87570718  0.12729081  1
  V  V16  1  0.12004262  0.25104351  0.37301615  1
  V  V17  1  0.12008041  0.62406347  0.49906479  1
  V  V18  1  0.37774442  0.12589700  0.24847810  1
  V  V19  1  0.12744561  0.25618879  0.88751161  1
  V  V20  1  0.74700365  0.62713127  0.37643322  1
  V  V21  1  0.37495646  0.24738207  0.11856062  1
  V  V22  1  0.00368094  0.12165355  0.62606904  1
  V  V23  1  0.37303619  0.49166855  0.37918908  1
  V  V24  1  0.49617793  0.48830143  0.50350641  1
  V  V25  1  0.11722732  0.75634176  0.37605098  1
  V  V26  1  0.38640997  0.74774474  0.13130726  1
  V  V27  1  0.50011181  0.36982371  0.86514428  1
  V  V28  1  0.11994700  0.37233899  0.25313118  1
  V  V29  1  0.74239832  0.75906126  0.49914079  1
  V  V30  1  0.63150252  0.87274186  0.74462615  1
  V  V31  1  0.50354156  0.86003990  0.37432085  1
  V  V32  1  0.62430166  0.11982507  0.00233452  1
  V  V33  1  0.38038067  -0.00235577  0.37512096  1
  V  V34  1  -0.00382951  -0.01225790  -0.00041527  1
  V  V35  1  0.50416417  0.75230801  0.75520891  1
  V  V36  1  0.12714792  -0.00285206  0.62438677  1
  V  V37  1  0.88020390  -0.00653428  0.37237772  1
  V  V38  1  0.62200419  0.24985440  0.86217725  1
  V  V39  1  0.62223453  0.62735405  0.49851423  1
  V  V40  1  0.50780108  0.11667527  0.12501082  1
  V  V41  1  0.62270174  0.12580184  0.50622228  1
  V  V42  1  0.74800967  0.12431668  0.37637296  1
  V  V43  1  0.12384030  0.00645803  0.11853378  1
  V  V44  1  0.75432506  0.26007384  0.50057353  1
  V  V45  1  0.87031738  0.75424326  0.12865934  1
  V  V46  1  0.24967982  0.87508023  0.12828963  1
  V  V47  1  0.64305810  0.62860459  -0.00302300  1
  V  V48  1  0.12925444  0.12385885  0.49842773  1
  V  V49  1  0.37642801  0.87458846  0.50116011  1
  V  V50  1  0.61740969  0.50392701  0.13207323  1
  V  V51  1  0.01632735  0.26512672  0.74777383  1
  V  V52  1  0.86841531  0.75137604  0.62261245  1
  V  V53  1  0.11507867  0.75382969  0.87867585  1
  V  V54  1  0.38641378  0.62920334  0.25096338  1
  V  V55  1  0.38216485  0.24912996  0.64348239  1
  V  V56  1  0.25041652  0.86907591  0.62876299  1
  V  V57  1  0.74148468  0.37874048  0.12677463  1
  V  V58  1  0.49762738  0.51119335  0.00335343  1
  V  V59  1  0.26330160  0.26076047  0.49775530  1
  V  V60  1  0.50862787  0.25880299  0.24747911  1
  V  V61  1  0.87182455  0.62010161  0.25341042  1
  V  V62  1  0.62064476  0.85620888  0.25141946  1
  V  V63  1  0.24973494  0.00000048  0.25016774  1
  V  V64  1  0.25171712  0.62851046  0.87945744  1
  V  V65  1  -0.00015494  0.62620279  0.12817084  1
  V  V66  1  0.37861349  0.00351628  0.87318053  1
  V  V67  1  0.88066893  0.00465803  0.88004622  1
  V  V68  1  0.74959787  0.25473033  0.00029353  1
  V  V69  1  0.25028422  0.75185357  0.00402726  1
  V  V70  1  0.75224281  0.12655405  0.87575467  1
  V  V71  1  0.73893367  0.00095808  0.24796144  1
  V  V72  1  0.24824156  0.62611581  0.37355849  1
  V  V73  1  -0.00185770  0.49090237  -0.00840903  1
  V  V74  1  0.37460760  0.37268386  0.00187427  1
  V  V75  1  -0.00675100  0.62309770  0.62215341  1
  V  V76  1  0.24394553  0.12477430  0.89480865  1
  V  V77  1  0.88099210  0.12481378  0.74850721  1
  V  V78  1  0.81661747  0.81928546  -0.04619601  1
  V  V79  1  0.37872602  0.87597192  0.00130691  1
  V  V80  1  -0.00676411  0.48570245  0.49296765  1
  V  V81  1  0.88132376  0.12833006  0.25014266  1
  V  V82  1  0.75513050  -0.00093691  0.73871435  1
  V  V83  1  0.62832063  0.49170958  0.63357554  1
  V  V84  1  0.24943016  0.36886156  0.12400083  1
  Zn  Zn85  1  0.75298899  0.37669771  0.62872615  1
  Zn  Zn86  1  -0.00440009  0.75018618  0.75164378  1
  Zn  Zn87  1  0.74157993  0.49474515  0.25775134  1
  Zn  Zn88  1  0.62505578  0.25877186  0.37562394  1
  Zn  Zn89  1  -0.00507709  0.75355332  0.25534662  1
  Zn  Zn90  1  0.12388816  0.48878234  0.63031346  1
  Zn  Zn91  1  0.49260871  0.12123361  0.64740553  1
  Zn  Zn92  1  0.50552581  0.87494967  0.87810235  1
  Zn  Zn93  1  0.24766914  0.74956199  0.50148742  1
  Zn  Zn94  1  0.63720167  0.74736662  0.87851290  1
  Zn  Zn95  1  0.62309375  -0.00306315  0.62473844  1
  Zn  Zn96  1  0.50155923  0.00029224  0.50407951  1
  Zn  Zn97  1  0.84510714  0.42630101  -0.06942911  1
  Zn  Zn98  1  0.87134440  0.48418081  0.37968568  1
  Zn  Zn99  1  0.50745847  0.37881901  0.37073914  1
  Zn  Zn100  1  0.23803091  0.49485055  0.75258353  1
  Zn  Zn101  1  0.24963425  0.37598885  0.63384740  1
  Zn  Zn102  1  0.25023830  0.49951161  0.25162861  1
  Zn  Zn103  1  0.74700657  0.49152271  0.77429822  1
  Zn  Zn104  1  0.50706057  -0.00365125  0.00408371  1
  Zn  Zn105  1  0.00518034  -0.00517728  0.49373013  1
  Zn  Zn106  1  -0.04568904  0.31553032  0.31586141  1
  Zn  Zn107  1  0.18643295  0.18784884  0.18681232  1
  Zn  Zn108  1  0.19200712  0.19106904  0.68278705  1
  Zn  Zn109  1  0.18917412  0.69068485  0.19185205  1
  Zn  Zn110  1  0.17136425  0.66051259  0.70205489  1
  Zn  Zn111  1  0.68897874  0.18560708  0.18569860  1
  Zn  Zn112  1  0.69236691  0.18677187  0.68555295  1
  Zn  Zn113  1  0.68791716  0.68319393  0.18277113  1
  Zn  Zn114  1  0.68977148  0.68109590  0.68635489  1
  Zn  Zn115  1  0.31095522  0.31153653  0.30767586  1
  Zn  Zn116  1  0.30305051  0.31259126  0.81862350  1
  Zn  Zn117  1  0.30839004  0.81157351  0.31412829  1
  Zn  Zn118  1  0.31023093  0.81474228  0.81475861  1
  Zn  Zn119  1  0.79177660  0.31382988  0.30896073  1
  Zn  Zn120  1  0.81409582  0.31531987  0.80313867  1
  Zn  Zn121  1  0.80850323  0.81045513  0.31463657  1
  Zn  Zn122  1  0.81530869  0.81414613  0.79376562  1
  Zn  Zn123  1  0.18241889  0.43833295  0.43901997  1
  Zn  Zn124  1  0.18899551  0.43839711  0.93992795  1
  Zn  Zn125  1  0.19144673  0.93580500  0.43809889  1
  Zn  Zn126  1  0.18768757  0.93824718  0.93921206  1
  Zn  Zn127  1  0.68243094  0.43946817  0.43923224  1
  Zn  Zn128  1  0.67589149  0.43736334  0.94091770  1
  Zn  Zn129  1  0.68667142  0.93849058  0.43438330  1
  Zn  Zn130  1  0.68565385  0.94220628  0.92683088  1
  Zn  Zn131  1  0.31732412  0.06065388  0.06360113  1
  Zn  Zn132  1  0.31558359  0.06517507  0.56353059  1
  Zn  Zn133  1  0.31289615  0.56112175  0.06768063  1
  Zn  Zn134  1  0.30857766  0.56016111  0.56236617  1
  Zn  Zn135  1  0.81287264  0.06360768  0.06319279  1
  Zn  Zn136  1  0.81589067  0.06607169  0.55869106  1
  Zn  Zn137  1  0.81307598  0.56043762  0.06463567  1
  Zn  Zn138  1  0.81109117  0.56230802  0.55988812  1
  Zn  Zn139  1  0.43534536  0.44174649  0.18858556  1
  Zn  Zn140  1  0.42513282  0.43422458  0.68627929  1
  Zn  Zn141  1  0.44073678  0.93400993  0.18998263  1
  Zn  Zn142  1  0.44106536  0.93979981  0.68996043  1
  Zn  Zn143  1  0.93544316  0.44136264  0.18221738  1
  Zn  Zn144  1  0.94086862  0.43925642  0.68532166  1
  Zn  Zn145  1  0.93362192  0.94098615  0.18617049  1
  Zn  Zn146  1  0.93854381  0.93537929  0.68374419  1
  Zn  Zn147  1  0.06095495  0.06614327  0.30933173  1
  Zn  Zn148  1  0.06526312  0.06328168  0.81539789  1
  Zn  Zn149  1  0.06005004  0.56010563  0.31407031  1
  Zn  Zn150  1  0.05757560  0.56696179  0.81296882  1
  Zn  Zn151  1  0.56141657  0.06465687  0.31514134  1
  Zn  Zn152  1  0.56848419  0.05709785  0.81584655  1
  Zn  Zn153  1  0.56018387  0.56441574  0.31855701  1
  Zn  Zn154  1  0.56266473  0.56272725  0.81792200  1
  Zn  Zn155  1  0.44128536  0.18760881  0.43344945  1
  Zn  Zn156  1  0.43443061  0.18401803  0.82322782  1
  Zn  Zn157  1  0.43432030  0.68342667  0.44118576  1
  Zn  Zn158  1  0.43922870  0.69159467  0.93889939  1
  Zn  Zn159  1  0.93716693  0.18075436  0.44148720  1
  Zn  Zn160  1  0.92387506  0.22994040  0.92099150  1
  Zn  Zn161  1  0.93464208  0.68606538  0.43616664  1
  Zn  Zn162  1  0.94076012  0.67915077  0.93956494  1
  Zn  Zn163  1  0.06269733  0.31086274  0.06452135  1
  Zn  Zn164  1  0.07151499  0.31163483  0.56134650  1
  Zn  Zn165  1  0.06133715  0.81291620  0.06816731  1
  Zn  Zn166  1  0.06006554  0.80901220  0.56423804  1
  Zn  Zn167  1  0.56031978  0.31222956  0.05739029  1
  Zn  Zn168  1  0.55972771  0.30943554  0.56483840  1
  Zn  Zn169  1  0.56609921  0.80957246  0.06524070  1
  Zn  Zn170  1  0.56043953  0.81291113  0.56516798  1
  O  O171  1  0.11259733  0.11662968  0.13410819  1
  O  O172  1  0.12278266  0.11782890  0.61883109  1
  O  O173  1  0.11800984  0.62334704  0.12472546  1
  O  O174  1  0.11183625  0.63775262  0.60608430  1
  O  O175  1  0.61890733  0.12623747  0.11744376  1
  O  O176  1  0.62508240  0.12406747  0.61354628  1
  O  O177  1  0.62743155  0.61380095  0.11295511  1
  O  O178  1  0.61833252  0.61714719  0.61711605  1
  O  O179  1  0.37584056  0.39003089  0.36578942  1
  O  O180  1  0.38246719  0.37604996  0.88599118  1
  O  O181  1  0.38040407  0.88021377  0.37818543  1
  O  O182  1  0.37415005  0.88195099  0.88703969  1
  O  O183  1  0.87146409  0.37261087  0.36103257  1
  O  O184  1  0.88643381  0.33460828  0.88490776  1
  O  O185  1  0.86959253  0.88302395  0.38155325  1
  O  O186  1  0.86720943  0.87874992  0.88598761  1
  O  O187  1  0.26185353  0.00294337  0.36995638  1
  O  O188  1  0.25298841  0.00772630  0.87056480  1
  O  O189  1  0.25586152  0.50809712  0.37693811  1
  O  O190  1  0.25617285  0.51192670  0.87699037  1
  O  O191  1  0.75784631  0.00693714  0.36772225  1
  O  O192  1  0.76418464  0.00753622  0.86745320  1
  O  O193  1  0.75178356  0.51213747  0.37715098  1
  O  O194  1  0.75922451  0.48549590  0.88719449  1
  O  O195  1  0.24349687  0.48901969  0.12796013  1
  O  O196  1  0.24561313  0.49915124  0.62876479  1
  O  O197  1  0.24194134  0.99766768  0.13033252  1
  O  O198  1  0.24824514  0.98995622  0.63226118  1
  O  O199  1  0.73776407  0.49463905  0.12518375  1
  O  O200  1  0.73277221  0.49898657  0.61715633  1
  O  O201  1  0.75948147  0.98547256  0.13454907  1
  O  O202  1  0.75215587  1.00801015  0.63677182  1
  O  O203  1  0.01480141  0.37595294  0.23858840  1
  O  O204  1  0.00522578  0.36304428  0.74587890  1
  O  O205  1  0.01097959  0.87649944  0.24597663  1
  O  O206  1  0.01508115  0.87050028  0.74339437  1
  O  O207  1  0.49606434  0.36099566  0.24529295  1
  O  O208  1  0.49292153  0.38143104  0.76775112  1
  O  O209  1  0.51428823  0.87618826  0.25644317  1
  O  O210  1  0.50863657  0.86664549  0.75326381  1
  O  O211  1  0.49535186  0.13207067  0.24417668  1
  O  O212  1  0.50297163  0.12478669  0.75932098  1
  O  O213  1  0.48454362  0.62828598  0.25770270  1
  O  O214  1  0.49230845  0.63182087  0.74885432  1
  O  O215  1  0.98461215  0.11913418  0.24065959  1
  O  O216  1  1.00124385  0.12277474  0.73689815  1
  O  O217  1  0.99156245  0.62589330  0.24361618  1
  O  O218  1  0.98791052  0.62888433  0.73794420  1
  O  O219  1  0.38042067  0.25956980  0.01709911  1
  O  O220  1  0.36341116  0.24781045  0.49190790  1
  O  O221  1  0.37100108  0.75934582  0.00815995  1
  O  O222  1  0.37145983  0.75513945  0.51038693  1
  O  O223  1  0.85672673  0.23798908  0.01467884  1
  O  O224  1  0.86651244  0.23937485  0.50952340  1
  O  O225  1  0.87790940  0.75377014  0.00684421  1
  O  O226  1  0.86734970  0.75702582  0.50251357  1
  O  O227  1  0.13621444  0.24160797  0.49045899  1
  O  O228  1  0.11627881  0.24572488  0.98582651  1
  O  O229  1  0.12585997  0.74668305  0.49108887  1
  O  O230  1  0.12942675  0.74751683  0.99772553  1
  O  O231  1  0.63341534  0.23998245  0.50177975  1
  O  O232  1  0.63385943  0.24127242  0.99668482  1
  O  O233  1  0.63232106  0.74178827  0.50886254  1
  O  O234  1  0.62089520  0.73258286  1.00021542  1
  O  O235  1  0.49563808  0.24227188  0.13291281  1
  O  O236  1  0.48501540  0.24503696  0.62380887  1
  O  O237  1  0.48509015  0.75332497  0.12619611  1
  O  O238  1  0.49612802  0.74335053  0.63789648  1
  O  O239  1  0.98756245  0.24324027  0.11905742  1
  O  O240  1  1.00141580  0.24167311  0.63125406  1
  O  O241  1  0.99279719  0.74029542  0.12889346  1
  O  O242  1  0.98657501  0.74021826  0.62227032  1
  O  O243  1  0.01396845  0.23963483  0.37730300  1
  O  O244  1  0.01941167  0.23852562  0.85637765  1
  O  O245  1  0.01283897  0.74544041  0.37292937  1
  O  O246  1  0.01216604  0.74783355  0.87676719  1
  O  O247  1  0.49983271  0.25215927  0.35829970  1
  O  O248  1  0.50500183  0.26177121  0.87742005  1
  O  O249  1  0.49330979  0.76128510  0.37962666  1
  O  O250  1  0.50148290  0.75171904  0.86323058  1
  O  O251  1  0.24633554  0.12975469  0.49175672  1
  O  O252  1  0.24707486  0.11859782  0.99290155  1
  O  O253  1  0.24001960  0.62746174  0.48952316  1
  O  O254  1  0.24569099  0.63131809  0.99991024  1
  O  O255  1  0.74169453  0.12971210  0.49269851  1
  O  O256  1  0.74327913  0.12979836  0.99655064  1
  O  O257  1  0.74164697  0.63272776  0.49487150  1
  O  O258  1  0.74150502  0.62579112  1.00227450  1
  O  O259  1  0.26490345  0.38062329  0.00920098  1
  O  O260  1  0.24870020  0.36101876  0.49584396  1
  O  O261  1  0.25769486  0.87190600  0.00875983  1
  O  O262  1  0.25786724  0.87309955  0.51081658  1
  O  O263  1  0.74868954  0.36639696  0.01029361  1
  O  O264  1  0.74611161  0.36221416  0.50589649  1
  O  O265  1  0.74840543  0.87775711  0.00705977  1
  O  O266  1  0.75442993  0.86280643  0.49321801  1
  O  O267  1  0.12637355  0.49265058  0.24509419  1
  O  O268  1  0.13480915  0.54645480  0.73538196  1
  O  O269  1  0.12897170  0.99513196  0.24393398  1
  O  O270  1  0.13188527  0.99017632  0.74616874  1
  O  O271  1  0.62112783  0.51087004  0.23532114  1
  O  O272  1  0.62641844  0.50976867  0.73617818  1
  O  O273  1  0.63740663  1.00016844  0.25400067  1
  O  O274  1  0.63915129  0.99114004  0.75142169  1
  O  O275  1  0.37060657  0.00370991  0.25616505  1
  O  O276  1  0.36432555  -0.01232812  0.76426130  1
  O  O277  1  0.37267867  0.51359048  0.25748702  1
  O  O278  1  0.37901208  0.51315571  0.75966850  1
  O  O279  1  0.86514150  0.00565033  0.25642059  1
  O  O280  1  0.87372577  0.00298542  0.75624485  1
  O  O281  1  0.86946887  0.51260843  0.24672242  1
  O  O282  1  0.87729503  0.51202036  0.74649722  1
  O  O283  1  0.12791839  0.36524590  0.36545363  1
  O  O284  1  0.13741457  0.35584174  0.87952503  1
  O  O285  1  0.13035560  0.86861107  0.36633567  1
  O  O286  1  0.13293931  0.86625393  0.86674322  1
  O  O287  1  0.62193775  0.37286134  0.37452392  1
  O  O288  1  0.60702312  0.36477238  0.88415382  1
  O  O289  1  0.61744557  0.87787947  0.36166567  1
  O  O290  1  0.62529466  0.86808119  0.86305282  1
  O  O291  1  0.38159714  0.13180599  0.12909934  1
  O  O292  1  0.37613952  0.14261422  0.62013744  1
  O  O293  1  0.36793248  0.63200298  0.14270263  1
  O  O294  1  0.37967961  0.63135989  0.63420689  1
  O  O295  1  0.87855789  0.13309476  0.13341248  1
  O  O296  1  0.88763686  0.12850647  0.62819054  1
  O  O297  1  0.87927186  0.63496516  0.13089726  1
  O  O298  1  0.88022748  0.63031808  0.62589680  1
  O  O299  1  0.25823486  0.26008474  0.12966922  1
  O  O300  1  0.26193421  0.24782386  0.61037897  1
  O  O301  1  0.25572200  0.75692928  0.12123857  1
  O  O302  1  0.25299369  0.76145158  0.62859838  1
  O  O303  1  0.75206078  0.25771492  0.12005026  1
  O  O304  1  0.76374003  0.24780589  0.61752771  1
  O  O305  1  0.75670175  0.76252976  0.12778427  1
  O  O306  1  0.76086705  0.74260937  0.61421816  1
  O  O307  1  0.24598967  0.24472219  0.38181058  1
  O  O308  1  0.24071082  0.23301357  0.87522352  1
  O  O309  1  0.23818719  0.74286964  0.37702907  1
  O  O310  1  0.24480375  0.74598908  0.88571425  1
  O  O311  1  0.74625648  0.23936392  0.38353330  1
  O  O312  1  0.74134643  0.24417253  0.88389952  1
  O  O313  1  0.75166921  0.73696380  0.38512207  1
  O  O314  1  0.76190628  0.76327427  0.88888341  1
  O  O315  1  -0.00555474  0.11436889  0.01294208  1
  O  O316  1  0.00971894  0.12124144  0.51118186  1
  O  O317  1  0.00774287  0.61942243  0.01105862  1
  O  O318  1  0.00357614  0.62120459  0.50405238  1
  O  O319  1  0.51227740  0.12340361  0.01270054  1
  O  O320  1  0.51801304  0.12429241  0.49185408  1
  O  O321  1  0.49576944  0.61300191  -0.00101358  1
  O  O322  1  0.50617078  0.62041031  0.50744615  1
  O  O323  1  0.49985812  0.38608738  0.49911756  1
  O  O324  1  0.48812522  0.38473118  0.99805241  1
  O  O325  1  0.49508463  0.87732211  0.49245565  1
  O  O326  1  0.49332817  0.87586640  1.00094833  1
  O  O327  1  1.00509864  0.38760407  0.50072751  1
  O  O328  1  1.00724642  0.39271368  1.00697174  1
  O  O329  1  0.98663972  0.87537573  0.50084771  1
  O  O330  1  1.00025255  0.88813110  1.00747537  1
  O  O331  1  0.49097904  0.50030592  0.38492343  1
  O  O332  1  0.49450402  0.49063532  0.88441958  1
  O  O333  1  0.48906646  0.99350723  0.37457715  1
  O  O334  1  0.48952550  0.99560043  0.88075132  1
  O  O335  1  0.99499435  0.50257692  0.38883802  1
  O  O336  1  1.00702612  0.50413876  0.89197819  1
  O  O337  1  0.98438488  1.00823513  0.37558563  1
  O  O338  1  0.98932971  1.00387148  0.88215606  1
  O  O339  1  0.00469561  0.00574215  0.11954656  1
  O  O340  1  0.00933083  0.00506620  0.62098692  1
  O  O341  1  0.00626156  0.51235091  0.12060632  1
  O  O342  1  0.00247916  0.50985362  0.61414496  1
  O  O343  1  0.49422181  0.01339475  0.12590807  1
  O  O344  1  0.50249822  0.00636331  0.62212330  1
  O  O345  1  0.50892370  0.49812640  0.11882681  1
  O  O346  1  0.50309596  0.50384521  0.62148029  1
  O  O347  1  0.24049707  0.37763258  0.24169292  1
  O  O348  1  0.26159705  0.38534788  0.75001088  1
  O  O349  1  0.24245168  0.88239134  0.24577246  1
  O  O350  1  0.24069544  0.88044408  0.74435033  1
  O  O351  1  0.73958207  0.37799945  0.23214569  1
  O  O352  1  0.75380136  0.38126193  0.74113838  1
  O  O353  1  0.73813335  0.87990678  0.24692903  1
  O  O354  1  0.74461818  0.88631459  0.74869570  1
  O  O355  1  0.25762487  0.11947125  0.25519141  1
  O  O356  1  0.24591720  0.11018411  0.74899895  1
  O  O357  1  0.25107412  0.62288664  0.26377910  1
  O  O358  1  0.26789173  0.63580857  0.76113950  1
  O  O359  1  0.75714937  0.11921390  0.25576143  1
  O  O360  1  0.76006277  0.11938397  0.75594827  1
  O  O361  1  0.75405797  0.62400761  0.25900705  1
  O  O362  1  0.76429650  0.61816105  0.74777307  1
  O  O363  1  0.37259200  0.11608572  0.36889529  1
  O  O364  1  0.35857222  0.11262875  0.87756227  1
  O  O365  1  0.36573956  0.62226337  0.36735018  1
  O  O366  1  0.37178065  0.62272749  0.87113199  1
  O  O367  1  0.86485357  0.11987284  0.36897826  1
  O  O368  1  0.87304266  0.12221990  0.86819168  1
  O  O369  1  0.86617184  0.62317603  0.36684580  1
  O  O370  1  0.88005685  0.62911622  0.85849481  1
  O  O371  1  0.13406141  0.37622686  0.12953057  1
  O  O372  1  0.13376366  0.37555759  0.62509330  1
  O  O373  1  0.13019014  0.88328749  0.13461114  1
  O  O374  1  0.13289338  0.87738944  0.62990443  1
  O  O375  1  0.62791196  0.39263228  0.11402618  1
  O  O376  1  0.62069837  0.38986312  0.62312671  1
  O  O377  1  0.63132422  0.87217751  0.13952862  1
  O  O378  1  0.62134373  0.87647803  0.63958798  1
  O  O379  1  0.13088175  0.25737785  0.26145330  1
  O  O380  1  0.11850831  0.24597521  0.75176318  1
  O  O381  1  0.12263637  0.76171028  0.25686467  1
  O  O382  1  0.12380040  0.75375813  0.76162474  1
  O  O383  1  0.61061245  0.24351160  0.24904199  1
  O  O384  1  0.63211177  0.24604945  0.76334536  1
  O  O385  1  0.62754740  0.75805242  0.25023949  1
  O  O386  1  0.62254730  0.75235415  0.75284818  1
  O  O387  1  0.38307146  0.24431000  0.24068864  1
  O  O388  1  0.37177437  0.24631106  0.74662791  1
  O  O389  1  0.36753659  0.73831759  0.24540469  1
  O  O390  1  0.38430899  0.74818593  0.74767242  1
  O  O391  1  0.87246339  0.24288624  0.24389130  1
  O  O392  1  0.89346105  0.23994365  0.73928368  1
  O  O393  1  0.87468627  0.74040133  0.24488628  1
  O  O394  1  0.87631717  0.74053074  0.73768148  1
  O  O395  1  0.38449413  0.51076842  0.49013324  1
  O  O396  1  0.37998892  0.49550643  0.99654501  1
  O  O397  1  0.37601955  0.99347705  0.49120675  1
  O  O398  1  0.37627081  0.98812634  0.99533156  1
  O  O399  1  0.88876284  0.50101928  0.50021187  1
  O  O400  1  0.89246309  0.50135900  1.00681763  1
  O  O401  1  0.87349862  0.99064581  0.49114059  1
  O  O402  1  0.88192335  1.00337610  0.99159738  1
  O  O403  1  0.11817398  -0.00406837  0.01322687  1
  O  O404  1  0.12650523  0.00500010  0.50450544  1
  O  O405  1  0.12074940  0.50728480  0.00891613  1
  O  O406  1  0.11286822  0.51034020  0.49840064  1
  O  O407  1  0.62580488  0.01392849  -0.00708875  1
  O  O408  1  0.62755198  0.01143591  0.50226617  1
  O  O409  1  0.61502782  0.51263639  0.00743769  1
  O  O410  1  0.61366145  0.50838120  0.51037438  1
  O  O411  1  0.36822848  0.37042444  0.12290698  1
  O  O412  1  0.37215734  0.35413056  0.62450441  1
  O  O413  1  0.36996497  0.86983944  0.12161394  1
  O  O414  1  0.36911629  0.87005895  0.62322402  1
  O  O415  1  0.86600650  0.36440195  0.13003687  1
  O  O416  1  0.88091881  0.36066269  0.62422609  1
  O  O417  1  0.86748547  0.86194352  0.13319377  1
  O  O418  1  0.87601469  0.86463927  0.61524597  1
  O  O419  1  0.13284423  0.12944763  0.37671120  1
  O  O420  1  0.14041449  0.12697445  0.87349846  1
  O  O421  1  0.12896449  0.63138441  0.38146864  1
  O  O422  1  0.13170197  0.63615175  0.88493676  1
  O  O423  1  0.63608079  0.12618542  0.38217047  1
  O  O424  1  0.63244268  0.13235195  0.88389601  1
  O  O425  1  0.62981077  0.62108429  0.39036960  1
  O  O426  1  0.62445539  0.62667231  0.89132279  1
