# generated using pymatgen
data_V85Zn86O256
_symmetry_space_group_name_H-M   'P 1'
_cell_length_a   16.93773737
_cell_length_b   16.93440691
_cell_length_c   16.94253403
_cell_angle_alpha   90.01468363
_cell_angle_beta   89.98829031
_cell_angle_gamma   90.02877603
_symmetry_Int_Tables_number   1
_chemical_formula_structural   V85Zn86O256
_chemical_formula_sum   'V85 Zn86 O256'
_cell_volume   4859.63525765
_cell_formula_units_Z   1
loop_
 _symmetry_equiv_pos_site_id
 _symmetry_equiv_pos_as_xyz
  1  'x, y, z'
loop_
 _atom_site_type_symbol
 _atom_site_label
 _atom_site_symmetry_multiplicity
 _atom_site_fract_x
 _atom_site_fract_y
 _atom_site_fract_z
 _atom_site_occupancy
  V  V0  1  0.23830637  0.87126145  0.61838975  1
  V  V1  1  0.50075057  0.01333214  0.00160858  1
  V  V2  1  0.12956015  0.24868106  0.87533387  1
  V  V3  1  0.24915651  0.37237517  0.62194091  1
  V  V4  1  0.00337451  0.50895435  0.49803516  1
  V  V5  1  0.75237535  0.37361349  0.12520627  1
  V  V6  1  0.87450292  0.74570086  0.63032640  1
  V  V7  1  0.75540068  0.87045772  0.12687410  1
  V  V8  1  0.74987804  0.24511488  0.50034630  1
  V  V9  1  0.62083085  0.87808275  0.25584670  1
  V  V10  1  0.87638536  0.12476469  0.25672835  1
  V  V11  1  0.75199055  0.74704280  0.50426050  1
  V  V12  1  0.75647368  0.00069882  0.25683615  1
  V  V13  1  0.00215993  0.50071211  -0.00117033  1
  V  V14  1  0.56985404  0.32542633  0.20748600  1
  V  V15  1  0.87789804  0.50379660  0.86580081  1
  V  V16  1  -0.00430767  0.62316613  0.63277499  1
  V  V17  1  0.25044413  0.75320503  0.00056741  1
  V  V18  1  0.50079227  0.75402170  0.24761744  1
  V  V19  1  0.62177622  0.49213519  0.63732492  1
  V  V20  1  0.62451290  0.50015636  0.12880935  1
  V  V21  1  0.75300173  0.62484530  0.86610942  1
  V  V22  1  0.62600376  0.25350431  0.37454461  1
  V  V23  1  0.11333690  0.11667364  0.01416436  1
  V  V24  1  0.87340684  0.50217572  0.37440052  1
  V  V25  1  0.25428847  0.11617568  0.87748470  1
  V  V26  1  0.00256457  0.75863114  0.74850763  1
  V  V27  1  0.49710379  0.88366996  0.87753007  1
  V  V28  1  0.49747052  0.49850009  0.50243854  1
  V  V29  1  0.00649378  0.12053601  0.62063715  1
  V  V30  1  0.12683556  0.62796352  -0.00166329  1
  V  V31  1  0.12754573  0.23627603  0.37941304  1
  V  V32  1  0.62297977  0.74995203  0.87586062  1
  V  V33  1  0.75184527  0.87753198  0.62878523  1
  V  V34  1  0.37587717  0.88557907  0.00098441  1
  V  V35  1  0.87715962  0.88301664  0.49146230  1
  V  V36  1  0.74267320  0.62483195  0.37700305  1
  V  V37  1  0.62414043  0.00417869  0.12606715  1
  V  V38  1  0.00291642  0.24739719  0.24679654  1
  V  V39  1  0.00413488  0.37678717  0.87344352  1
  V  V40  1  0.24068032  0.88762880  0.13077051  1
  V  V41  1  0.37083572  0.37202014  0.49952804  1
  V  V42  1  0.75092948  0.00864702  0.75639638  1
  V  V43  1  0.37216918  0.63127991  0.26143736  1
  V  V44  1  0.49093840  0.74869729  0.75575613  1
  V  V45  1  0.49856746  0.36988591  0.37523146  1
  V  V46  1  0.24772768  0.50731300  0.25531991  1
  V  V47  1  0.74512014  0.37160784  0.63109395  1
  V  V48  1  0.64086028  0.24705199  0.87257402  1
  V  V49  1  0.87369396  0.37265554  -0.00155354  1
  V  V50  1  0.87798297  0.87227295  -0.00921372  1
  V  V51  1  0.12895798  0.37718015  0.74875577  1
  V  V52  1  0.24607993  0.23156772  0.49949665  1
  V  V53  1  0.38273507  0.13117324  0.25124665  1
  V  V54  1  0.38559369  -0.00431233  0.38199607  1
  V  V55  1  0.37202836  0.75223968  0.12580151  1
  V  V56  1  0.00586482  0.00019153  0.48447015  1
  V  V57  1  0.87494765  0.37461344  0.50094097  1
  V  V58  1  0.10307499  0.74791519  0.36468268  1
  V  V59  1  0.62623268  0.62399848  0.00154850  1
  V  V60  1  0.37597807  0.11473821  0.75114674  1
  V  V61  1  0.37203717  0.50273013  0.37654031  1
  V  V62  1  0.12538900  0.75959579  0.87102490  1
  V  V63  1  0.65452142  0.12429569  -0.00257456  1
  V  V64  1  0.24261797  0.73848750  0.48393251  1
  V  V65  1  0.37403590  0.50637184  0.86947945  1
  V  V66  1  0.24362260  -0.00841681  0.75069861  1
  V  V67  1  0.75312958  0.74565672  0.00550886  1
  V  V68  1  0.61613880  0.00038553  0.61943976  1
  V  V69  1  0.00223769  0.24792168  0.74541456  1
  V  V70  1  0.12774341  0.50791563  0.62167260  1
  V  V71  1  0.62323516  0.62046758  0.50381596  1
  V  V72  1  0.25064750  0.37367128  0.12740961  1
  V  V73  1  0.50029001  0.25044997  0.75371183  1
  V  V74  1  0.60319007  0.76245776  0.39395973  1
  V  V75  1  -0.00869216  0.63189919  0.12851990  1
  V  V76  1  0.74381927  0.49572236  0.25389723  1
  V  V77  1  0.00478150  0.37689363  0.37535183  1
  V  V78  1  0.36866412  0.75049301  0.62584635  1
  V  V79  1  0.37553654  0.37261408  -0.00266124  1
  V  V80  1  0.49337421  0.62357943  0.63448895  1
  V  V81  1  0.49977371  0.50014876  0.00062433  1
  V  V82  1  0.12604622  0.50264874  0.12510458  1
  V  V83  1  0.25235477  0.24509165  0.00388018  1
  V  V84  1  0.87827013  0.25058173  0.12477839  1
  Zn  Zn85  1  0.74999917  0.49718194  0.75012037  1
  Zn  Zn86  1  0.87615211  0.24704404  0.62295532  1
  Zn  Zn87  1  0.24481903  0.01364059  0.26582894  1
  Zn  Zn88  1  0.25691376  0.50580571  0.74461031  1
  Zn  Zn89  1  0.00324657  0.88461651  0.87222856  1
  Zn  Zn90  1  0.50862089  0.37497738  0.87178570  1
  Zn  Zn91  1  0.61193868  0.11724319  0.49041376  1
  Zn  Zn92  1  0.40537522  0.86891803  0.48973921  1
  Zn  Zn93  1  0.37553740  0.24343941  0.62322053  1
  Zn  Zn94  1  0.93412327  0.79928798  0.19930913  1
  Zn  Zn95  1  0.88531298  0.02120099  0.88545705  1
  Zn  Zn96  1  0.25483475  0.63166723  0.86632724  1
  Zn  Zn97  1  0.39807022  0.24796281  0.13268936  1
  Zn  Zn98  1  0.62259365  0.87678344  0.75218470  1
  Zn  Zn99  1  0.12754810  0.37467975  0.25147071  1
  Zn  Zn100  1  0.10812655  0.88237615  0.25700676  1
  Zn  Zn101  1  0.49878026  0.62618811  0.12391930  1
  Zn  Zn102  1  0.49459168  0.11968558  0.62023788  1
  Zn  Zn103  1  0.74970462  0.12096591  0.37841590  1
  Zn  Zn104  1  0.87247753  0.63030914  0.25018847  1
  Zn  Zn105  1  0.87511022  0.12690977  0.75200447  1
  Zn  Zn106  1  0.12468067  -0.00005711  0.61883612  1
  Zn  Zn107  1  0.19140624  0.18325691  0.19105159  1
  Zn  Zn108  1  0.18775085  0.18265932  0.68649505  1
  Zn  Zn109  1  0.18430258  0.69343656  0.19176563  1
  Zn  Zn110  1  0.18712445  0.68535592  0.68994064  1
  Zn  Zn111  1  0.69394407  0.18330931  0.18195736  1
  Zn  Zn112  1  0.68228378  0.18529427  0.68565211  1
  Zn  Zn113  1  0.68762560  0.68771409  0.19241881  1
  Zn  Zn114  1  0.68167214  0.68758761  0.68946426  1
  Zn  Zn115  1  0.31081297  0.30770924  0.31278189  1
  Zn  Zn116  1  0.31605404  0.31092564  0.81187907  1
  Zn  Zn117  1  0.31215997  0.82354957  0.31493593  1
  Zn  Zn118  1  0.31243067  0.81695868  0.81394552  1
  Zn  Zn119  1  0.81370727  0.31355266  0.31344864  1
  Zn  Zn120  1  0.81811778  0.31252220  0.80970398  1
  Zn  Zn121  1  0.79978929  0.80831284  0.31846559  1
  Zn  Zn122  1  0.81130065  0.80891858  0.80914731  1
  Zn  Zn123  1  0.18648186  0.43906598  0.43804080  1
  Zn  Zn124  1  0.19143339  0.43789613  0.93805599  1
  Zn  Zn125  1  0.19056442  0.93286904  0.43046186  1
  Zn  Zn126  1  0.18621444  0.94169388  0.94320362  1
  Zn  Zn127  1  0.68403261  0.43230794  0.44173619  1
  Zn  Zn128  1  0.69015353  0.43485805  0.93633550  1
  Zn  Zn129  1  0.68944549  0.93685540  0.43981391  1
  Zn  Zn130  1  0.68823013  0.93530116  0.93853365  1
  Zn  Zn131  1  0.31695743  0.06927237  0.07196790  1
  Zn  Zn132  1  0.32002272  0.05194007  0.55896619  1
  Zn  Zn133  1  0.31189807  0.56571636  0.06325955  1
  Zn  Zn134  1  0.31164707  0.56650592  0.56269450  1
  Zn  Zn135  1  0.83354626  0.05083569  0.07280700  1
  Zn  Zn136  1  0.81533834  0.06392627  0.56814091  1
  Zn  Zn137  1  0.81264818  0.55673778  0.05763373  1
  Zn  Zn138  1  0.81236076  0.55877429  0.56498079  1
  Zn  Zn139  1  0.42823001  0.44389129  0.18379937  1
  Zn  Zn140  1  0.43767131  0.42907974  0.68818905  1
  Zn  Zn141  1  0.43656866  0.94460267  0.19118251  1
  Zn  Zn142  1  0.43151192  0.93267569  0.68927755  1
  Zn  Zn143  1  0.93832334  0.44174181  0.19027988  1
  Zn  Zn144  1  0.93796159  0.43365347  0.68544702  1
  Zn  Zn145  1  0.96429105  0.97034241  0.16653307  1
  Zn  Zn146  1  0.93642295  0.94043784  0.68565682  1
  Zn  Zn147  1  0.06330673  0.06038242  0.30685485  1
  Zn  Zn148  1  0.06608083  0.06257834  0.81452150  1
  Zn  Zn149  1  0.06557654  0.57040921  0.31265793  1
  Zn  Zn150  1  0.06815263  0.56727714  0.80915755  1
  Zn  Zn151  1  0.55894259  0.06734015  0.31045787  1
  Zn  Zn152  1  0.56855599  0.06461337  0.81339380  1
  Zn  Zn153  1  0.55769315  0.56333745  0.31255137  1
  Zn  Zn154  1  0.56134337  0.56290829  0.81497590  1
  Zn  Zn155  1  0.43344522  0.18236282  0.43340185  1
  Zn  Zn156  1  0.43634226  0.18757981  0.93347750  1
  Zn  Zn157  1  0.44254733  0.70173897  0.44739546  1
  Zn  Zn158  1  0.43706365  0.68931279  0.94190749  1
  Zn  Zn159  1  0.93980626  0.18531250  0.43725943  1
  Zn  Zn160  1  0.93560101  0.18975341  0.93301307  1
  Zn  Zn161  1  0.93403623  0.68696600  0.43982885  1
  Zn  Zn162  1  0.93802881  0.68956354  0.93602842  1
  Zn  Zn163  1  0.06559139  0.30941404  0.06165676  1
  Zn  Zn164  1  0.06440286  0.31413937  0.56038565  1
  Zn  Zn165  1  0.06203974  0.81400221  0.06219444  1
  Zn  Zn166  1  0.06164071  0.81048202  0.55185769  1
  Zn  Zn167  1  0.57150308  0.31110503  0.03951364  1
  Zn  Zn168  1  0.55881098  0.30213784  0.56090650  1
  Zn  Zn169  1  0.56465349  0.81671591  0.06423235  1
  Zn  Zn170  1  0.56398751  0.81078467  0.57114472  1
  O  O171  1  0.12510008  0.13422665  0.11283681  1
  O  O172  1  0.11183083  0.12405511  0.62306488  1
  O  O173  1  0.11752368  0.62344388  0.11522684  1
  O  O174  1  0.11597645  0.61282270  0.62611345  1
  O  O175  1  0.63281011  0.11779522  0.10888145  1
  O  O176  1  0.62165521  0.10810597  0.62350398  1
  O  O177  1  0.62406408  0.61786113  0.11862370  1
  O  O178  1  0.61681580  0.61425986  0.62225961  1
  O  O179  1  0.37982392  0.38166534  0.37955735  1
  O  O180  1  0.37523299  0.38251211  0.88697021  1
  O  O181  1  0.38443028  0.88652948  0.37379475  1
  O  O182  1  0.38472169  0.87093217  0.88959167  1
  O  O183  1  0.88645573  0.38110552  0.38028754  1
  O  O184  1  0.88190205  0.38047565  0.88157141  1
  O  O185  1  0.86264998  0.86927342  0.39434588  1
  O  O186  1  0.87746823  0.86163750  0.88557362  1
  O  O187  1  0.26992464  -0.00690081  0.37845123  1
  O  O188  1  0.24728763  0.00496210  0.86614505  1
  O  O189  1  0.25472997  0.49621667  0.36315110  1
  O  O190  1  0.26631469  0.50029129  0.87651057  1
  O  O191  1  0.74463806  0.00073558  0.36130006  1
  O  O192  1  0.74439537  -0.00741610  0.85628137  1
  O  O193  1  0.74949359  0.50118407  0.37054369  1
  O  O194  1  0.75798394  0.50576987  0.87308068  1
  O  O195  1  0.24708564  0.49458344  0.13254998  1
  O  O196  1  0.24307520  0.49292322  0.62269275  1
  O  O197  1  0.25474852  0.98734947  0.12316117  1
  O  O198  1  0.24901832  0.98450017  0.62594523  1
  O  O199  1  0.74608674  0.49279439  0.13267510  1
  O  O200  1  0.73935300  0.49188600  0.62702434  1
  O  O201  1  0.74271180  0.99086288  0.13426226  1
  O  O202  1  0.74206063  0.99218431  0.63103329  1
  O  O203  1  0.00179972  0.36921345  0.25941234  1
  O  O204  1  0.00965648  0.37018972  0.75290891  1
  O  O205  1  -0.00235389  0.88541949  0.22230180  1
  O  O206  1  -0.00306034  0.86128205  0.74595852  1
  O  O207  1  0.49865831  0.38629195  0.25824265  1
  O  O208  1  0.49565112  0.35644172  0.75594219  1
  O  O209  1  0.51101601  0.86760313  0.24147592  1
  O  O210  1  0.49828309  0.86827559  0.76142503  1
  O  O211  1  0.48517768  0.12473262  0.24651198  1
  O  O212  1  0.49175432  0.12912001  0.75187930  1
  O  O213  1  0.48803901  0.62814106  0.24154129  1
  O  O214  1  0.50210287  0.63097102  0.74224130  1
  O  O215  1  0.99227970  0.13937911  0.25417992  1
  O  O216  1  1.00470746  0.13562372  0.74152136  1
  O  O217  1  0.99561285  0.61762937  0.23186684  1
  O  O218  1  1.00166840  0.63239373  0.73762506  1
  O  O219  1  0.37163598  0.25727798  0.00404574  1
  O  O220  1  0.36099226  0.25707427  0.49786019  1
  O  O221  1  0.37165240  0.75909229  0.00858344  1
  O  O222  1  0.35935992  0.75073665  0.51004036  1
  O  O223  1  0.88452551  0.26538481  0.00888979  1
  O  O224  1  0.86795633  0.25653194  0.49963113  1
  O  O225  1  0.86007334  0.75419262  -0.00258489  1
  O  O226  1  0.87076454  0.75739787  0.51163826  1
  O  O227  1  0.13058989  0.25404382  0.48744279  1
  O  O228  1  0.13736328  0.24780363  0.99314385  1
  O  O229  1  0.13502102  0.75161218  0.48665290  1
  O  O230  1  0.12957825  0.74403667  0.99433324  1
  O  O231  1  0.63555775  0.25169314  0.49040319  1
  O  O232  1  0.63404753  0.23245185  0.98936421  1
  O  O233  1  0.63517196  0.73298575  0.51101526  1
  O  O234  1  0.63016794  0.74339823  0.99481714  1
  O  O235  1  0.51380023  0.27451926  0.13345387  1
  O  O236  1  0.49989067  0.24831620  0.64341856  1
  O  O237  1  0.49300988  0.75035775  0.13170306  1
  O  O238  1  0.49268475  0.74135839  0.63697569  1
  O  O239  1  0.99280436  0.26154332  0.13712582  1
  O  O240  1  1.00248206  0.24533295  0.62932217  1
  O  O241  1  0.99804327  0.73516069  0.11968728  1
  O  O242  1  0.99550205  0.74228952  0.62728884  1
  O  O243  1  0.00956376  0.25850186  0.37200675  1
  O  O244  1  0.00982962  0.25922816  0.86469159  1
  O  O245  1  0.00241445  0.74955432  0.37541457  1
  O  O246  1  0.00705386  0.75053509  0.86481746  1
  O  O247  1  0.50564857  0.26453991  0.37465492  1
  O  O248  1  0.50853965  0.24877055  0.86757016  1
  O  O249  1  0.49881659  0.73209720  0.35064552  1
  O  O250  1  0.50177963  0.75557742  0.87163857  1
  O  O251  1  0.25271803  0.13308166  0.50871710  1
  O  O252  1  0.24812774  0.13079497  0.99571602  1
  O  O253  1  0.24788005  0.64056911  0.50401243  1
  O  O254  1  0.24232638  0.63340475  0.99819527  1
  O  O255  1  0.74962485  0.13586194  0.49970158  1
  O  O256  1  0.75159223  0.11583086  1.00387354  1
  O  O257  1  0.74092461  0.62340841  0.49731166  1
  O  O258  1  0.74538964  0.62812669  0.99307188  1
  O  O259  1  0.25777486  0.36874256  0.00630670  1
  O  O260  1  0.25161277  0.37237538  0.51023342  1
  O  O261  1  0.25948097  0.87317907  0.00751711  1
  O  O262  1  0.25025682  0.86260149  0.51329336  1
  O  O263  1  0.76255333  0.38324379  0.01104717  1
  O  O264  1  0.75505776  0.36629852  0.50823826  1
  O  O265  1  0.74808920  0.86110422  0.00614702  1
  O  O266  1  0.75635792  0.87020529  0.51240187  1
  O  O267  1  0.13269474  0.50016338  0.24445659  1
  O  O268  1  0.12589900  0.49222168  0.74039287  1
  O  O269  1  0.13252088  0.99512575  0.25392951  1
  O  O270  1  0.14127272  1.00534571  0.74188467  1
  O  O271  1  0.63034415  0.50250022  0.24309857  1
  O  O272  1  0.62328916  0.49799085  0.74101566  1
  O  O273  1  0.62952851  0.99653868  0.24276670  1
  O  O274  1  0.63418129  0.99716879  0.74017907  1
  O  O275  1  0.37150794  0.00886098  0.25649372  1
  O  O276  1  0.36524527  0.00840917  0.74685480  1
  O  O277  1  0.36688068  0.51127951  0.25446044  1
  O  O278  1  0.37938063  0.49245680  0.76706523  1
  O  O279  1  0.86627845  0.01398389  0.24395102  1
  O  O280  1  0.85763787  -0.00225879  0.74747534  1
  O  O281  1  0.86559478  0.50544434  0.25812607  1
  O  O282  1  0.87514222  0.49471439  0.76237190  1
  O  O283  1  0.11317865  0.37437221  0.37400308  1
  O  O284  1  0.12506652  0.37062593  0.86901019  1
  O  O285  1  0.12925010  0.85540745  0.37238034  1
  O  O286  1  0.12248885  0.86297622  0.88486740  1
  O  O287  1  0.61572852  0.36557607  0.37463333  1
  O  O288  1  0.62444057  0.35392077  0.88746460  1
  O  O289  1  0.62885087  0.87323547  0.36395019  1
  O  O290  1  0.61497493  0.86645586  0.87624073  1
  O  O291  1  0.37961167  0.13382153  0.13764993  1
  O  O292  1  0.37508446  0.12419461  0.63603930  1
  O  O293  1  0.37464820  0.64001042  0.12935095  1
  O  O294  1  0.38304692  0.63585954  0.62361461  1
  O  O295  1  0.85750000  0.15064737  0.13979338  1
  O  O296  1  0.88830070  0.12833217  0.63154282  1
  O  O297  1  0.88930480  0.61604615  0.12037601  1
  O  O298  1  0.88222275  0.63220144  0.62090419  1
  O  O299  1  0.24889630  0.25926613  0.11429092  1
  O  O300  1  0.24787697  0.25665751  0.61704437  1
  O  O301  1  0.25669749  0.75765424  0.11927493  1
  O  O302  1  0.25357124  0.75710925  0.62490387  1
  O  O303  1  0.75756807  0.26845989  0.13178477  1
  O  O304  1  0.74827926  0.25452907  0.61795428  1
  O  O305  1  0.73836423  0.75554205  0.11478591  1
  O  O306  1  0.75555528  0.75389388  0.62461368  1
  O  O307  1  0.23435920  0.25640906  0.38401322  1
  O  O308  1  0.24974978  0.24531399  0.88609593  1
  O  O309  1  0.25733435  0.74824106  0.38405044  1
  O  O310  1  0.24406826  0.75147978  0.88195307  1
  O  O311  1  0.74184191  0.25474742  0.38318939  1
  O  O312  1  0.73939222  0.25105008  0.86451569  1
  O  O313  1  0.73100441  0.74377929  0.38897906  1
  O  O314  1  0.74350925  0.74151196  0.88055037  1
  O  O315  1  0.01802248  0.14033262  -0.00646155  1
  O  O316  1  -0.00868448  0.10860902  0.50558951  1
  O  O317  1  0.00657779  0.62028084  0.00671660  1
  O  O318  1  -0.00573497  0.61306535  0.50966107  1
  O  O319  1  0.50071007  0.11415805  -0.00431970  1
  O  O320  1  0.50477592  0.14839865  0.51061896  1
  O  O321  1  0.50638213  0.61693868  0.00238579  1
  O  O322  1  0.50523504  0.62101469  0.51439332  1
  O  O323  1  0.49214794  0.37757089  0.49392511  1
  O  O324  1  0.49217925  0.38287760  0.99564843  1
  O  O325  1  0.50941299  0.81023928  0.47440057  1
  O  O326  1  0.49498272  0.88369389  0.99578991  1
  O  O327  1  0.99478722  0.38469628  0.49420454  1
  O  O328  1  0.99834179  0.38198931  0.99281491  1
  O  O329  1  0.98524277  0.88547471  0.50387615  1
  O  O330  1  0.98080291  0.86941524  1.00148572  1
  O  O331  1  0.49440019  0.49177795  0.38326847  1
  O  O332  1  0.49277333  0.49731280  0.88432216  1
  O  O333  1  0.48727555  1.00330634  0.37095435  1
  O  O334  1  0.50817991  0.99004109  0.88353229  1
  O  O335  1  0.99737194  0.49757362  0.38071371  1
  O  O336  1  0.99642490  0.49781882  0.87768337  1
  O  O337  1  0.99537856  1.00507109  0.38652737  1
  O  O338  1  0.99352062  0.99570542  0.86311637  1
  O  O339  1  -0.05504849  0.03929957  0.09033526  1
  O  O340  1  0.00289989  0.00599424  0.61844551  1
  O  O341  1  0.00842975  0.50528208  0.11784987  1
  O  O342  1  0.00462419  0.50518246  0.61906791  1
  O  O343  1  0.51693740  -0.00689960  0.11594215  1
  O  O344  1  0.51358280  -0.00613699  0.63087119  1
  O  O345  1  0.50257360  0.49965049  0.11339590  1
  O  O346  1  0.50231942  0.50367072  0.62360279  1
  O  O347  1  0.25125996  0.38348303  0.24163458  1
  O  O348  1  0.24877872  0.37673610  0.73782028  1
  O  O349  1  0.25107743  0.87537809  0.23371513  1
  O  O350  1  0.25950763  0.88125695  0.73500233  1
  O  O351  1  0.75570059  0.38870748  0.24440689  1
  O  O352  1  0.75315235  0.37455657  0.73490303  1
  O  O353  1  0.74145039  0.88106745  0.24379759  1
  O  O354  1  0.74689501  0.87705739  0.73911782  1
  O  O355  1  0.26706601  0.12569348  0.24685716  1
  O  O356  1  0.25719330  0.11844444  0.75748283  1
  O  O357  1  0.25912691  0.61787372  0.24247957  1
  O  O358  1  0.24729741  0.61808099  0.75430530  1
  O  O359  1  0.75525267  0.11672734  0.25287220  1
  O  O360  1  0.75049775  0.11132498  0.74254076  1
  O  O361  1  0.74482917  0.61272519  0.25970126  1
  O  O362  1  0.74456135  0.62237507  0.76272059  1
  O  O363  1  0.37651429  0.11443846  0.36442507  1
  O  O364  1  0.36164477  0.12658499  0.86926230  1
  O  O365  1  0.38089637  0.62091366  0.36550648  1
  O  O366  1  0.37626128  0.60953524  0.88357571  1
  O  O367  1  0.86815059  0.13716593  0.36065214  1
  O  O368  1  0.87184796  0.13142692  0.86595332  1
  O  O369  1  0.86180863  0.61806941  0.37876122  1
  O  O370  1  0.86605481  0.61529601  0.88178350  1
  O  O371  1  0.13759640  0.38157454  0.12467146  1
  O  O372  1  0.13166746  0.38397582  0.62841380  1
  O  O373  1  0.13978121  0.87280088  0.12028846  1
  O  O374  1  0.13639132  0.87065007  0.62263677  1
  O  O375  1  0.63189371  0.37844352  0.12691885  1
  O  O376  1  0.63092137  0.38257140  0.61599266  1
  O  O377  1  0.63462074  0.88254531  0.13207104  1
  O  O378  1  0.63216140  0.88267832  0.62719677  1
  O  O379  1  0.12019605  0.25281592  0.26113842  1
  O  O380  1  0.12112289  0.25690172  0.75384135  1
  O  O381  1  0.11886044  0.75712567  0.25844427  1
  O  O382  1  0.11607937  0.74572287  0.76029072  1
  O  O383  1  0.63199190  0.25437879  0.25460416  1
  O  O384  1  0.61421038  0.23839321  0.76342218  1
  O  O385  1  0.61683142  0.75884246  0.25798654  1
  O  O386  1  0.61077616  0.75220076  0.75665855  1
  O  O387  1  0.37689521  0.24094970  0.25129261  1
  O  O388  1  0.38515911  0.23797716  0.75209314  1
  O  O389  1  0.37909169  0.74804910  0.24379768  1
  O  O390  1  0.38464962  0.75280642  0.74596524  1
  O  O391  1  0.88490945  0.25180896  0.24535057  1
  O  O392  1  0.89314594  0.25597658  0.74431908  1
  O  O393  1  0.85414531  0.74222623  0.24735735  1
  O  O394  1  0.88172028  0.74971878  0.73699814  1
  O  O395  1  0.37828533  0.49448288  0.49664913  1
  O  O396  1  0.38138694  0.49369102  0.99607385  1
  O  O397  1  0.38523050  0.98871139  0.49086092  1
  O  O398  1  0.38531609  0.99247636  1.00912342  1
  O  O399  1  0.88127900  0.49369691  0.49416739  1
  O  O400  1  0.88270507  0.49021221  0.98982275  1
  O  O401  1  0.87779172  0.98751381  0.50414707  1
  O  O402  1  0.84779655  0.97242554  0.98412981  1
  O  O403  1  0.12454756  0.01702536  0.00016422  1
  O  O404  1  0.10885663  -0.01018203  0.49750732  1
  O  O405  1  0.12356585  0.50864850  0.00366518  1
  O  O406  1  0.11472796  0.49573843  0.50867623  1
  O  O407  1  0.62422836  0.01024358  0.00456608  1
  O  O408  1  0.62890656  0.00017601  0.51386760  1
  O  O409  1  0.61752634  0.50230925  0.00474215  1
  O  O410  1  0.61745384  0.50645737  0.50840474  1
  O  O411  1  0.36552286  0.37301729  0.11565719  1
  O  O412  1  0.36617750  0.36954110  0.61886350  1
  O  O413  1  0.37082030  0.86722903  0.11961170  1
  O  O414  1  0.37480004  0.86057972  0.61772667  1
  O  O415  1  0.87080232  0.37430947  0.11893920  1
  O  O416  1  0.86620970  0.37404335  0.61612910  1
  O  O417  1  0.85899911  0.86907288  0.11200056  1
  O  O418  1  0.86703093  0.86722171  0.61889501  1
  O  O419  1  0.11902673  0.13873408  0.37679181  1
  O  O420  1  0.13936105  0.13335800  0.87775105  1
  O  O421  1  0.12411843  0.64606944  0.37061449  1
  O  O422  1  0.12450673  0.63307277  0.88761490  1
  O  O423  1  0.62709270  0.14000777  0.37330012  1
  O  O424  1  0.63005555  0.13105540  0.88856395  1
  O  O425  1  0.62123732  0.62965922  0.38928680  1
  O  O426  1  0.63174477  0.62806687  0.88245802  1
