# generated using pymatgen
data_V85Zn86O256
_symmetry_space_group_name_H-M   'P 1'
_cell_length_a   16.96624351
_cell_length_b   16.97512116
_cell_length_c   16.95571482
_cell_angle_alpha   89.83269751
_cell_angle_beta   89.99440805
_cell_angle_gamma   89.97240482
_symmetry_Int_Tables_number   1
_chemical_formula_structural   V85Zn86O256
_chemical_formula_sum   'V85 Zn86 O256'
_cell_volume   4883.29294970
_cell_formula_units_Z   1
loop_
 _symmetry_equiv_pos_site_id
 _symmetry_equiv_pos_as_xyz
  1  'x, y, z'
loop_
 _atom_site_type_symbol
 _atom_site_label
 _atom_site_symmetry_multiplicity
 _atom_site_fract_x
 _atom_site_fract_y
 _atom_site_fract_z
 _atom_site_occupancy
  V  V0  1  0.24709957  0.74099136  0.00357569  1
  V  V1  1  0.74669440  0.37816040  0.13860471  1
  V  V2  1  0.61869082  0.25210057  0.87738402  1
  V  V3  1  0.74654145  0.13046853  0.37245999  1
  V  V4  1  0.37520970  0.12691030  0.74992347  1
  V  V5  1  0.00533506  0.12175922  0.11160578  1
  V  V6  1  0.88015914  0.12621211  0.75071914  1
  V  V7  1  0.87052758  0.49912721  0.36748938  1
  V  V8  1  0.01873697  -0.00087497  0.49418114  1
  V  V9  1  0.74776835  0.00076509  0.74065277  1
  V  V10  1  0.38026746  0.12588933  0.25894713  1
  V  V11  1  0.00807682  0.61243041  0.63879510  1
  V  V12  1  0.37106133  0.88752507  0.49224188  1
  V  V13  1  0.87738752  0.37326210  0.49817636  1
  V  V14  1  0.12446053  0.74596091  0.87630254  1
  V  V15  1  0.74921372  0.25115579  0.00108512  1
  V  V16  1  0.50444410  0.74537590  0.26221008  1
  V  V17  1  0.61246557  0.62413366  0.00303542  1
  V  V18  1  0.25312281  0.87405920  0.12737693  1
  V  V19  1  -0.00303487  0.63225761  0.11618813  1
  V  V20  1  0.24775991  0.50184590  0.24784164  1
  V  V21  1  0.37121700  0.75156854  0.62346137  1
  V  V22  1  0.50227269  0.12254783  0.12589326  1
  V  V23  1  0.86888012  0.62390213  0.24121089  1
  V  V24  1  0.25641644  0.00062668  0.25847211  1
  V  V25  1  0.62373088  0.49896322  0.13459657  1
  V  V26  1  0.38558496  0.74575049  0.12631712  1
  V  V27  1  0.62068730  0.37311586  0.75318370  1
  V  V28  1  0.24926733  0.12471794  0.88993706  1
  V  V29  1  0.74907937  0.12409784  0.87676991  1
  V  V30  1  0.37818826  0.48618621  0.87795928  1
  V  V31  1  0.63012143  0.75376458  0.87663251  1
  V  V32  1  -0.00212681  0.75111536  0.24345569  1
  V  V33  1  0.62373381  0.88413023  0.73982293  1
  V  V34  1  0.05489485  0.17859874  0.57011028  1
  V  V35  1  0.24662293  0.88035318  0.62312706  1
  V  V36  1  0.00624158  0.88455049  0.88508374  1
  V  V37  1  0.73992362  0.25360706  0.49459777  1
  V  V38  1  0.81420048  -0.05404558  0.42966324  1
  V  V39  1  0.25301606  0.00404080  0.75044260  1
  V  V40  1  0.62553695  0.12469741  0.50582405  1
  V  V41  1  0.37405960  0.62496241  0.75607536  1
  V  V42  1  0.49858326  0.75151347  0.75393409  1
  V  V43  1  0.87596702  0.24944388  0.12481742  1
  V  V44  1  0.12402026  0.50614208  0.11946096  1
  V  V45  1  0.37342256  0.48775169  0.37659621  1
  V  V46  1  0.25764548  0.37741214  0.11683352  1
  V  V47  1  0.74817348  0.62099375  0.87864353  1
  V  V48  1  0.74798708  0.37409628  0.62367971  1
  V  V49  1  0.75105908  -0.00137721  0.24638670  1
  V  V50  1  0.49865035  0.48167904  -0.00060664  1
  V  V51  1  0.87863002  0.11884128  0.25125576  1
  V  V52  1  0.62456470  0.87041144  0.25663098  1
  V  V53  1  0.12635276  0.00344513  0.11498065  1
  V  V54  1  0.00082609  0.50900130  -0.00398366  1
  V  V55  1  0.87390058  0.24727305  0.62302649  1
  V  V56  1  0.74754497  0.49528120  0.75233106  1
  V  V57  1  0.00470091  0.50079243  0.50243867  1
  V  V58  1  0.13224233  0.87666301  0.75270333  1
  V  V59  1  0.84931074  0.64682242  0.72201198  1
  V  V60  1  0.37368903  0.25532556  0.61437240  1
  V  V61  1  0.51730380  0.37139641  0.37364254  1
  V  V62  1  0.62082711  0.49988319  0.62160093  1
  V  V63  1  0.24642641  0.50178452  0.74647538  1
  V  V64  1  0.51252555  -0.00211778  0.50039173  1
  V  V65  1  0.51479299  0.25188735  0.25408569  1
  V  V66  1  -0.03313078  0.78705432  0.73351683  1
  V  V67  1  0.12505386  0.37937722  0.74787824  1
  V  V68  1  0.00389452  0.37261570  0.36927676  1
  V  V69  1  0.49308838  0.49677474  0.50011654  1
  V  V70  1  0.00214790  0.24943119  0.75147964  1
  V  V71  1  0.12310062  0.74420956  0.37723474  1
  V  V72  1  0.12165321  0.87627039  0.25472184  1
  V  V73  1  0.74734030  0.63154797  0.38096020  1
  V  V74  1  0.23890816  0.13543947  0.37649115  1
  V  V75  1  0.87690880  0.86671010  0.00026769  1
  V  V76  1  0.87332706  0.37812561  0.00020635  1
  V  V77  1  0.75232638  0.86448876  0.12322830  1
  V  V78  1  0.49597088  0.25517966  0.75295338  1
  V  V79  1  0.37993305  0.62254198  0.25019414  1
  V  V80  1  -0.00094082  0.37600490  0.87714417  1
  V  V81  1  0.37931590  -0.00028767  0.88003277  1
  V  V82  1  0.00809019  0.24715293  0.24998882  1
  V  V83  1  0.88020929  0.00078204  0.88389247  1
  V  V84  1  0.12506384  0.24743906  0.88622979  1
  Zn  Zn85  1  0.37868712  0.87265393  0.00118387  1
  Zn  Zn86  1  0.12732437  0.37262883  0.24763131  1
  Zn  Zn87  1  0.24485952  0.74982421  0.50038621  1
  Zn  Zn88  1  0.12381969  0.01050995  0.62534357  1
  Zn  Zn89  1  0.62456173  -0.00371306  0.12238265  1
  Zn  Zn90  1  0.62347432  0.12105973  0.00131502  1
  Zn  Zn91  1  0.24922020  0.62354097  0.38069802  1
  Zn  Zn92  1  0.38285339  0.25501160  0.12211175  1
  Zn  Zn93  1  0.24566425  0.25214365  0.49315349  1
  Zn  Zn94  1  0.75264513  0.74340800  0.00513262  1
  Zn  Zn95  1  0.50343422  -0.00351366  0.00358648  1
  Zn  Zn96  1  0.87486165  0.50278254  0.86968594  1
  Zn  Zn97  1  0.25378092  0.38120208  0.61838162  1
  Zn  Zn98  1  0.12768667  0.62128606  0.50820364  1
  Zn  Zn99  1  -0.03902886  0.84136419  0.41215671  1
  Zn  Zn100  1  0.62100185  0.63357583  0.49594358  1
  Zn  Zn101  1  0.49728548  0.87761226  0.37449832  1
  Zn  Zn102  1  0.49632813  0.62450416  0.62243673  1
  Zn  Zn103  1  0.50202748  0.87734362  0.87920029  1
  Zn  Zn104  1  0.24550299  0.62163653  0.88048968  1
  Zn  Zn105  1  0.25563606  0.25441080  0.00180574  1
  Zn  Zn106  1  0.50201359  0.12171640  0.62550769  1
  Zn  Zn107  1  0.18950850  0.18631052  0.18651759  1
  Zn  Zn108  1  0.19514340  0.19648049  0.69716545  1
  Zn  Zn109  1  0.18609898  0.68510274  0.18689294  1
  Zn  Zn110  1  0.18610288  0.68933721  0.68931580  1
  Zn  Zn111  1  0.68657968  0.18778565  0.18671159  1
  Zn  Zn112  1  0.68776497  0.18740555  0.68814909  1
  Zn  Zn113  1  0.68510193  0.68261589  0.18772593  1
  Zn  Zn114  1  0.67568072  0.68571271  0.68620880  1
  Zn  Zn115  1  0.31586446  0.31045931  0.30437178  1
  Zn  Zn116  1  0.30921098  0.31185868  0.81314374  1
  Zn  Zn117  1  0.31045673  0.80900401  0.31325967  1
  Zn  Zn118  1  0.31170546  0.81317787  0.81648210  1
  Zn  Zn119  1  0.81762736  0.30798849  0.31203219  1
  Zn  Zn120  1  0.81191940  0.31202853  0.81412801  1
  Zn  Zn121  1  0.81208574  0.80416491  0.30030811  1
  Zn  Zn122  1  0.79858043  0.82369822  0.68288441  1
  Zn  Zn123  1  0.18873889  0.43857201  0.42909000  1
  Zn  Zn124  1  0.18514553  0.44123581  0.93415429  1
  Zn  Zn125  1  0.18443711  0.93867525  0.43507849  1
  Zn  Zn126  1  0.19733844  0.93374153  0.94052344  1
  Zn  Zn127  1  0.68913183  0.44493522  0.43645274  1
  Zn  Zn128  1  0.68372948  0.43474594  0.94206242  1
  Zn  Zn129  1  0.68413907  0.80536664  0.44073129  1
  Zn  Zn130  1  0.68896131  0.93744221  0.93643183  1
  Zn  Zn131  1  0.31897660  0.06280109  0.06914253  1
  Zn  Zn132  1  0.31185908  0.06721335  0.55952090  1
  Zn  Zn133  1  0.31939831  0.56288405  0.06327372  1
  Zn  Zn134  1  0.31251587  0.56519996  0.56327570  1
  Zn  Zn135  1  0.81327812  0.06097386  0.06410557  1
  Zn  Zn136  1  0.81541875  0.06733005  0.56303161  1
  Zn  Zn137  1  0.80963798  0.56006455  0.06228429  1
  Zn  Zn138  1  0.81303386  0.55838395  0.55821943  1
  Zn  Zn139  1  0.44308935  0.43816720  0.18980011  1
  Zn  Zn140  1  0.43415420  0.43579409  0.68969711  1
  Zn  Zn141  1  0.43762891  0.93770175  0.19098799  1
  Zn  Zn142  1  0.43835913  0.93913082  0.68410710  1
  Zn  Zn143  1  0.93694917  0.43973842  0.18438401  1
  Zn  Zn144  1  0.93536587  0.43696899  0.68775803  1
  Zn  Zn145  1  0.93925876  0.93878371  0.18147156  1
  Zn  Zn146  1  0.94663176  0.95850910  0.68543351  1
  Zn  Zn147  1  0.06383314  0.05966544  0.30966652  1
  Zn  Zn148  1  0.06573506  0.06401574  0.81564929  1
  Zn  Zn149  1  0.05924020  0.56389331  0.30905573  1
  Zn  Zn150  1  0.05963996  0.56462350  0.81117419  1
  Zn  Zn151  1  0.56604788  0.05864823  0.31881099  1
  Zn  Zn152  1  0.56117752  0.06593867  0.81281614  1
  Zn  Zn153  1  0.56131564  0.56216464  0.31464736  1
  Zn  Zn154  1  0.55953091  0.56204658  0.81591116  1
  Zn  Zn155  1  0.43899587  0.18610311  0.43463465  1
  Zn  Zn156  1  0.43505454  0.19128415  0.94387842  1
  Zn  Zn157  1  0.43281508  0.68398664  0.43833456  1
  Zn  Zn158  1  0.43655425  0.68657311  0.93770713  1
  Zn  Zn159  1  0.93151229  0.18741532  0.43015153  1
  Zn  Zn160  1  0.93654321  0.18974796  0.93788491  1
  Zn  Zn161  1  0.93371039  0.67632110  0.44084060  1
  Zn  Zn162  1  0.93495447  0.69353745  0.92019741  1
  Zn  Zn163  1  0.06391686  0.31729115  0.06542854  1
  Zn  Zn164  1  0.09933169  0.35194560  0.53682155  1
  Zn  Zn165  1  0.06778447  0.81534140  0.06256888  1
  Zn  Zn166  1  0.02375631  0.78899749  0.55045619  1
  Zn  Zn167  1  0.56546306  0.31030091  0.06719066  1
  Zn  Zn168  1  0.55693746  0.31370960  0.56172208  1
  Zn  Zn169  1  0.56415416  0.81519105  0.06447289  1
  Zn  Zn170  1  0.55545502  0.81295735  0.56495802  1
  O  O171  1  0.11846490  0.11583725  0.12885240  1
  O  O172  1  0.12164939  0.13080732  0.63320254  1
  O  O173  1  0.11564121  0.61379022  0.12555764  1
  O  O174  1  0.11360074  0.62169398  0.63117116  1
  O  O175  1  0.61390759  0.12180879  0.12685353  1
  O  O176  1  0.62559327  0.13016717  0.61123382  1
  O  O177  1  0.63172790  0.60966854  0.11521076  1
  O  O178  1  0.61698928  0.60915338  0.62666839  1
  O  O179  1  0.37677762  0.38598557  0.37056669  1
  O  O180  1  0.37296126  0.38728260  0.87021350  1
  O  O181  1  0.37393668  0.86745922  0.38917982  1
  O  O182  1  0.37704079  0.88612065  0.87618986  1
  O  O183  1  0.88230193  0.38153627  0.37747724  1
  O  O184  1  0.88001660  0.37726269  0.88189983  1
  O  O185  1  0.86885049  0.88630247  0.36329441  1
  O  O186  1  0.89000541  0.88826107  0.88278448  1
  O  O187  1  0.24535158  0.00956786  0.36267858  1
  O  O188  1  0.25968721  0.00688953  0.87134503  1
  O  O189  1  0.25659646  0.50129796  0.36478547  1
  O  O190  1  0.25919291  0.50353307  0.86931702  1
  O  O191  1  0.75694339  0.00771201  0.36416728  1
  O  O192  1  0.75716981  0.01097483  0.86793671  1
  O  O193  1  0.76456077  0.50781515  0.37598692  1
  O  O194  1  0.74575385  0.50284841  0.86814116  1
  O  O195  1  0.24395411  0.49595909  0.12683908  1
  O  O196  1  0.26011133  0.49764958  0.64192050  1
  O  O197  1  0.24785997  0.99233423  0.13497468  1
  O  O198  1  0.24915717  0.99728660  0.63102821  1
  O  O199  1  0.73552782  0.49050212  0.11959826  1
  O  O200  1  0.74024837  0.49387278  0.62955183  1
  O  O201  1  0.74942219  0.99371216  0.13608791  1
  O  O202  1  0.75973604  1.00444185  0.64154522  1
  O  O203  1  -0.00337701  0.36560567  0.25235098  1
  O  O204  1  0.00205575  0.37027782  0.75930673  1
  O  O205  1  0.00860825  0.86488128  0.23956833  1
  O  O206  1  0.01654392  0.88580419  0.76272237  1
  O  O207  1  0.49787746  0.36783293  0.26438089  1
  O  O208  1  0.50395552  0.36241533  0.74872488  1
  O  O209  1  0.50737050  0.86712463  0.25292648  1
  O  O210  1  0.50759421  0.87104843  0.75383397  1
  O  O211  1  0.49742848  0.13035962  0.25140150  1
  O  O212  1  0.48975251  0.13380233  0.74799455  1
  O  O213  1  0.49196471  0.63161498  0.25440665  1
  O  O214  1  0.49275158  0.63372200  0.74945375  1
  O  O215  1  0.99346305  0.12992996  0.24468791  1
  O  O216  1  0.98754511  0.13179093  0.75795337  1
  O  O217  1  0.99235448  0.63136365  0.23728643  1
  O  O218  1  0.98056455  0.61237596  0.74245861  1
  O  O219  1  0.36891989  0.24965192  0.00965254  1
  O  O220  1  0.37566478  0.24693189  0.51267795  1
  O  O221  1  0.36948523  0.74812149  0.01065593  1
  O  O222  1  0.37472987  0.75624236  0.51237390  1
  O  O223  1  0.86976351  0.25819955  0.00558661  1
  O  O224  1  0.86575761  0.25424247  0.50591641  1
  O  O225  1  0.87145080  0.76341013  -0.01161443  1
  O  O226  1  0.92365972  0.77037490  0.49587624  1
  O  O227  1  0.11149727  0.23739968  0.51158193  1
  O  O228  1  0.12854619  0.25743829  0.98915860  1
  O  O229  1  0.11864805  0.74694835  0.48958667  1
  O  O230  1  0.13487836  0.75675793  0.98967226  1
  O  O231  1  0.63496731  0.24668694  0.50358453  1
  O  O232  1  0.63039691  0.24643901  0.99251929  1
  O  O233  1  0.62565042  0.74548575  0.51277171  1
  O  O234  1  0.62517774  0.74164354  0.99437715  1
  O  O235  1  0.50374801  0.24319138  0.13632019  1
  O  O236  1  0.48927097  0.24704763  0.63202908  1
  O  O237  1  0.48757595  0.75458482  0.13349846  1
  O  O238  1  0.48638362  0.75156678  0.63887638  1
  O  O239  1  0.99524674  0.24469724  0.12991398  1
  O  O240  1  0.99391854  0.24397877  0.62781193  1
  O  O241  1  1.00797577  0.73780069  0.12558254  1
  O  O242  1  1.01107729  0.73620492  0.65310305  1
  O  O243  1  -0.00958467  0.25995885  0.36249403  1
  O  O244  1  0.00648334  0.25531969  0.87213723  1
  O  O245  1  0.01037079  0.74713942  0.35834142  1
  O  O246  1  0.00839730  0.76621676  0.85968271  1
  O  O247  1  0.49837456  0.26533189  0.37271258  1
  O  O248  1  0.50877877  0.24161496  0.86661955  1
  O  O249  1  0.49520016  0.75165824  0.36528246  1
  O  O250  1  0.50781542  0.74906557  0.86586451  1
  O  O251  1  0.25369438  0.13027369  0.48112592  1
  O  O252  1  0.25333863  0.12383338  0.99207825  1
  O  O253  1  0.24462219  0.62987547  0.50001313  1
  O  O254  1  0.25312812  0.63642864  1.00114334  1
  O  O255  1  0.74641980  0.13303218  0.49319388  1
  O  O256  1  0.75076738  0.13158004  0.99210243  1
  O  O257  1  0.75244542  0.62203321  0.48431656  1
  O  O258  1  0.73998675  0.62356404  0.99333954  1
  O  O259  1  0.24557469  0.38137354  0.01442148  1
  O  O260  1  0.21657825  0.36391843  0.50881751  1
  O  O261  1  0.25687446  0.86328605  0.01201919  1
  O  O262  1  0.25412910  0.87508657  0.50711104  1
  O  O263  1  0.75670640  0.36928933  0.00560532  1
  O  O264  1  0.75456277  0.37014349  0.50305709  1
  O  O265  1  0.75745657  0.87153111  0.00654531  1
  O  O266  1  0.75532168  0.88741171  0.48375571  1
  O  O267  1  0.13232374  0.50114862  0.24046335  1
  O  O268  1  0.13601068  0.49317077  0.76222924  1
  O  O269  1  0.13225779  0.99088756  0.24317547  1
  O  O270  1  0.13470962  0.99399832  0.75017006  1
  O  O271  1  0.61735684  0.50338142  0.23307997  1
  O  O272  1  0.62916048  0.49328386  0.74570238  1
  O  O273  1  0.63571597  0.99078584  0.25068401  1
  O  O274  1  0.63068719  0.99176628  0.75549221  1
  O  O275  1  0.36650764  0.00895354  0.24836292  1
  O  O276  1  0.37255207  0.00939719  0.75563360  1
  O  O277  1  0.37035317  0.50578162  0.25449909  1
  O  O278  1  0.37258442  0.50768240  0.75898765  1
  O  O279  1  0.86956689  0.01213879  0.24214879  1
  O  O280  1  0.87079707  0.01095238  0.76077551  1
  O  O281  1  0.88165260  0.51078705  0.25615725  1
  O  O282  1  0.85529187  0.50076287  0.74735119  1
  O  O283  1  0.10791728  0.38083832  0.36584817  1
  O  O284  1  0.11817060  0.36878169  0.86921364  1
  O  O285  1  0.12729336  0.86790437  0.36097744  1
  O  O286  1  0.12406073  0.87298948  0.87229131  1
  O  O287  1  0.61544767  0.38135341  0.37411313  1
  O  O288  1  0.63186875  0.35912982  0.86935745  1
  O  O289  1  0.62628236  0.86759145  0.35985274  1
  O  O290  1  0.62380709  0.86641372  0.86749429  1
  O  O291  1  0.38796415  0.12526247  0.13845025  1
  O  O292  1  0.37392869  0.13651952  0.63429716  1
  O  O293  1  0.37128309  0.63274197  0.13943803  1
  O  O294  1  0.37537370  0.63457867  0.63779918  1
  O  O295  1  0.88234991  0.12940937  0.13010715  1
  O  O296  1  0.86900698  0.13872960  0.63575587  1
  O  O297  1  0.88275309  0.61902734  0.13040837  1
  O  O298  1  0.88556435  0.61366871  0.62852175  1
  O  O299  1  0.24524921  0.26932864  0.12633570  1
  O  O300  1  0.26378953  0.25253223  0.62389645  1
  O  O301  1  0.25493318  0.75565774  0.12227643  1
  O  O302  1  0.25778640  0.75965315  0.62682475  1
  O  O303  1  0.75467049  0.25567034  0.11965915  1
  O  O304  1  0.75523143  0.25661590  0.61846653  1
  O  O305  1  0.74949777  0.76058605  0.12537058  1
  O  O306  1  0.78019098  0.71631517  0.66010119  1
  O  O307  1  0.25095516  0.24076551  0.37128656  1
  O  O308  1  0.24268243  0.24206818  0.87762379  1
  O  O309  1  0.23549342  0.74665511  0.37502655  1
  O  O310  1  0.24345954  0.74927255  0.88598253  1
  O  O311  1  0.75353219  0.24372321  0.38339158  1
  O  O312  1  0.74491307  0.23999211  0.87855159  1
  O  O313  1  0.75476092  0.73644443  0.37449331  1
  O  O314  1  0.73353678  0.73748387  0.87598701  1
  O  O315  1  -0.00291621  0.12887849  0.01251151  1
  O  O316  1  -0.00372849  0.12473683  0.50431301  1
  O  O317  1  -0.01135518  0.61983746  0.00150426  1
  O  O318  1  0.00216809  0.61362611  0.51449791  1
  O  O319  1  0.50136086  0.12271430  0.01352685  1
  O  O320  1  0.50874892  0.11840487  0.49838947  1
  O  O321  1  0.51036543  0.62046296  -0.00160097  1
  O  O322  1  0.50021182  0.61137905  0.50010880  1
  O  O323  1  0.50318075  0.38495123  0.48686455  1
  O  O324  1  0.50432233  0.38344924  0.99892669  1
  O  O325  1  0.49202115  0.88593898  0.50050077  1
  O  O326  1  0.49627256  0.87702309  0.99757810  1
  O  O327  1  0.99671784  0.37948688  0.48941923  1
  O  O328  1  0.99294074  0.38335307  0.99596331  1
  O  O329  1  1.01899214  0.89578567  0.49654351  1
  O  O330  1  0.99566018  0.87210199  0.99214915  1
  O  O331  1  0.49385833  0.49018363  0.37938787  1
  O  O332  1  0.49368354  0.50060022  0.88854530  1
  O  O333  1  0.50089529  0.99676886  0.39244220  1
  O  O334  1  0.48797310  1.00321437  0.87575573  1
  O  O335  1  0.98866691  0.49623122  0.37866059  1
  O  O336  1  0.99585147  0.49629882  0.88118930  1
  O  O337  1  1.00173413  1.01331764  0.39381621  1
  O  O338  1  0.99429513  0.99626577  0.87594570  1
  O  O339  1  0.01297208  0.01018978  0.12873789  1
  O  O340  1  0.00402062  0.01101582  0.60521717  1
  O  O341  1  0.00568555  0.50958894  0.11589147  1
  O  O342  1  -0.00215991  0.50109030  0.61636886  1
  O  O343  1  0.50281573  0.00805738  0.12734407  1
  O  O344  1  0.49196615  0.00585891  0.60825092  1
  O  O345  1  0.51093633  0.49324141  0.11252326  1
  O  O346  1  0.50268468  0.49659240  0.61690706  1
  O  O347  1  0.24836921  0.38755998  0.24104608  1
  O  O348  1  0.24087546  0.38307565  0.75076162  1
  O  O349  1  0.24560536  0.88154754  0.24613161  1
  O  O350  1  0.25002981  0.88490044  0.74541796  1
  O  O351  1  0.75786362  0.37056075  0.23735539  1
  O  O352  1  0.74238519  0.37736113  0.74384745  1
  O  O353  1  0.74646671  0.87991325  0.24208816  1
  O  O354  1  0.73475858  0.88599347  0.75191981  1
  O  O355  1  0.25919965  0.12008326  0.25447633  1
  O  O356  1  0.26167516  0.12348366  0.76006610  1
  O  O357  1  0.25597076  0.61274684  0.24866771  1
  O  O358  1  0.25678574  0.61924709  0.75436831  1
  O  O359  1  0.75394190  0.11784001  0.25412800  1
  O  O360  1  0.75817024  0.12307510  0.75848563  1
  O  O361  1  0.76376011  0.63114494  0.25740895  1
  O  O362  1  0.74432120  0.61117552  0.75951175  1
  O  O363  1  0.36786804  0.12953645  0.36291058  1
  O  O364  1  0.36845006  0.11980187  0.86910320  1
  O  O365  1  0.37106273  0.61591459  0.36414664  1
  O  O366  1  0.37377514  0.62041871  0.86508128  1
  O  O367  1  0.86081625  0.12798909  0.36303091  1
  O  O368  1  0.86782691  0.12340768  0.87024850  1
  O  O369  1  0.86876603  0.61749682  0.36705712  1
  O  O370  1  0.85587111  0.62165661  0.87060716  1
  O  O371  1  0.13098358  0.39058809  0.12727065  1
  O  O372  1  0.12055605  0.37351069  0.64625221  1
  O  O373  1  0.13720945  0.87824235  0.13496614  1
  O  O374  1  0.13986115  0.87846101  0.63581148  1
  O  O375  1  0.63411193  0.38692705  0.12111136  1
  O  O376  1  0.62659616  0.38337023  0.63033343  1
  O  O377  1  0.63544571  0.87587676  0.13479314  1
  O  O378  1  0.62141328  0.87343812  0.64162579  1
  O  O379  1  0.11101813  0.25200397  0.24288683  1
  O  O380  1  0.11913530  0.25763637  0.76255059  1
  O  O381  1  0.11768773  0.75528525  0.25183030  1
  O  O382  1  0.13738420  0.76865940  0.76057842  1
  O  O383  1  0.61444983  0.24589298  0.25394646  1
  O  O384  1  0.61577332  0.25223006  0.75543429  1
  O  O385  1  0.61297360  0.75379118  0.24155794  1
  O  O386  1  0.61610312  0.75871067  0.75577872  1
  O  O387  1  0.38612153  0.24188589  0.24333479  1
  O  O388  1  0.38000965  0.24455639  0.74681923  1
  O  O389  1  0.38058417  0.74155112  0.24617302  1
  O  O390  1  0.37965409  0.74525214  0.74832825  1
  O  O391  1  0.88202366  0.23781476  0.24158193  1
  O  O392  1  0.88103199  0.24637630  0.74399663  1
  O  O393  1  0.89014385  0.74088557  0.24702074  1
  O  O394  1  0.88137082  0.73834529  0.77404136  1
  O  O395  1  0.38138365  0.50265552  0.49074236  1
  O  O396  1  0.39100372  0.50418722  0.99466377  1
  O  O397  1  0.37822103  0.99062130  0.50278495  1
  O  O398  1  0.37577276  0.99760573  0.99225447  1
  O  O399  1  0.88425757  0.49108644  0.49175283  1
  O  O400  1  0.88337372  0.49370428  0.99799816  1
  O  O401  1  0.87555721  0.99688407  0.49439372  1
  O  O402  1  0.86862113  0.99363575  0.98794062  1
  O  O403  1  0.13418880  -0.00855257  0.01617873  1
  O  O404  1  0.12270901  0.01074666  0.50210707  1
  O  O405  1  0.10997415  0.49969514  0.00319038  1
  O  O406  1  0.10909469  0.49840788  0.49298908  1
  O  O407  1  0.62418962  0.00324628  0.00211785  1
  O  O408  1  0.61318514  0.00764667  0.50359632  1
  O  O409  1  0.61266833  0.50452134  0.00226936  1
  O  O410  1  0.61707165  0.50293705  0.50821631  1
  O  O411  1  0.35997460  0.38031101  0.13009876  1
  O  O412  1  0.37314762  0.35959506  0.62873642  1
  O  O413  1  0.36446782  0.86572396  0.13090490  1
  O  O414  1  0.36406106  0.87008334  0.62083545  1
  O  O415  1  0.86916572  0.37157195  0.11750278  1
  O  O416  1  0.86998531  0.36474569  0.61984628  1
  O  O417  1  0.86706305  0.88158037  0.11168513  1
  O  O418  1  0.90529488  0.85450638  0.66942139  1
  O  O419  1  0.14103554  0.12813890  0.36347372  1
  O  O420  1  0.13687916  0.13473723  0.87093927  1
  O  O421  1  0.12542270  0.63207841  0.37451314  1
  O  O422  1  0.12285883  0.64254149  0.86792763  1
  O  O423  1  0.63985806  0.12044374  0.38664657  1
  O  O424  1  0.63397912  0.13460782  0.87396624  1
  O  O425  1  0.64439401  0.61584644  0.37416773  1
  O  O426  1  0.63008213  0.62836289  0.88246051  1
