# generated using pymatgen
data_V85Zn86O256
_symmetry_space_group_name_H-M   'P 1'
_cell_length_a   16.94894285
_cell_length_b   16.95760804
_cell_length_c   16.96271073
_cell_angle_alpha   90.02198665
_cell_angle_beta   90.01152687
_cell_angle_gamma   90.03738482
_symmetry_Int_Tables_number   1
_chemical_formula_structural   V85Zn86O256
_chemical_formula_sum   'V85 Zn86 O256'
_cell_volume   4875.31106478
_cell_formula_units_Z   1
loop_
 _symmetry_equiv_pos_site_id
 _symmetry_equiv_pos_as_xyz
  1  'x, y, z'
loop_
 _atom_site_type_symbol
 _atom_site_label
 _atom_site_symmetry_multiplicity
 _atom_site_fract_x
 _atom_site_fract_y
 _atom_site_fract_z
 _atom_site_occupancy
  V  V0  1  0.12080898  0.51284276  0.11390922  1
  V  V1  1  0.12660615  0.12349845  0.49633251  1
  V  V2  1  0.62250456  0.49745222  0.62831946  1
  V  V3  1  -0.00104858  0.49818687  0.50066062  1
  V  V4  1  0.74995425  0.74966597  0.50500202  1
  V  V5  1  0.49722847  0.49994073  0.49983075  1
  V  V6  1  0.12492059  0.37423297  0.75016989  1
  V  V7  1  0.50766899  0.12767539  0.11982081  1
  V  V8  1  0.38447318  0.75133750  0.11507002  1
  V  V9  1  0.36625799  0.50517003  0.37404033  1
  V  V10  1  0.50630834  0.51051464  -0.00413676  1
  V  V11  1  0.37696554  0.75974113  0.62300619  1
  V  V12  1  0.12567132  0.49941626  0.62651590  1
  V  V13  1  0.09701454  0.11902175  -0.00166090  1
  V  V14  1  0.73780869  0.62583915  0.87645137  1
  V  V15  1  0.00087761  0.74254472  0.23862357  1
  V  V16  1  0.74784599  0.49467119  0.75291223  1
  V  V17  1  0.12777819  0.87511607  0.75254345  1
  V  V18  1  0.24959000  0.12452471  0.37088335  1
  V  V19  1  0.74788226  0.14052330  0.36402934  1
  V  V20  1  0.74355226  0.89085612  0.62944623  1
  V  V21  1  0.24968485  0.24783283  0.50045716  1
  V  V22  1  0.87424681  0.62309347  0.74946137  1
  V  V23  1  0.75079984  0.37119793  0.12338657  1
  V  V24  1  0.36987978  0.62385489  0.74933338  1
  V  V25  1  0.62366743  0.75213317  0.37358278  1
  V  V26  1  0.50116799  0.87501524  0.88187502  1
  V  V27  1  0.10820749  -0.00402601  0.11843346  1
  V  V28  1  0.74933073  0.74306946  0.01318897  1
  V  V29  1  -0.00173217  0.37215665  0.37065491  1
  V  V30  1  0.00054899  -0.00160026  0.49597457  1
  V  V31  1  -0.05143124  0.18712953  0.19577900  1
  V  V32  1  0.51254089  0.00318822  0.00193026  1
  V  V33  1  0.61999779  0.36104344  0.75317410  1
  V  V34  1  0.50868256  0.00238897  0.49739544  1
  V  V35  1  0.12243459  0.24944787  0.36957659  1
  V  V36  1  0.74729734  0.50243669  0.24838160  1
  V  V37  1  0.37303259  0.12547264  0.24625046  1
  V  V38  1  0.25399598  0.87481118  0.62015743  1
  V  V39  1  0.37348641  0.37361557  0.49983556  1
  V  V40  1  0.13083717  0.62494040  0.49307337  1
  V  V41  1  0.37272935  0.37696714  -0.00518368  1
  V  V42  1  0.49600454  0.87421136  0.37426325  1
  V  V43  1  0.37321003  -0.00235447  0.37642365  1
  V  V44  1  0.12815605  -0.00100622  0.62329739  1
  V  V45  1  0.87982987  0.87596515  0.00222702  1
  V  V46  1  0.24622975  0.37544295  0.12844013  1
  V  V47  1  0.38675224  0.12785720  0.75305024  1
  V  V48  1  -0.00202327  0.37741074  0.88083187  1
  V  V49  1  0.13262625  0.73198767  0.87662244  1
  V  V50  1  0.38545863  0.24494446  0.62979144  1
  V  V51  1  0.00158771  0.12552002  0.62078719  1
  V  V52  1  0.11938445  0.24399764  0.87546840  1
  V  V53  1  0.86154331  0.11405181  0.74637264  1
  V  V54  1  0.25026502  0.37182734  0.62599555  1
  V  V55  1  0.62986652  0.14427578  0.49570563  1
  V  V56  1  0.50611655  0.74992170  0.75134150  1
  V  V57  1  0.11820397  0.37456568  0.24409414  1
  V  V58  1  0.25962206  0.87809717  0.11427291  1
  V  V59  1  0.87707153  0.36802884  0.00637876  1
  V  V60  1  0.62343240  0.62364256  0.50079323  1
  V  V61  1  0.75394122  0.88421188  0.13109996  1
  V  V62  1  -0.00045077  0.62537291  0.62503283  1
  V  V63  1  0.61770898  0.51300619  0.12426504  1
  V  V64  1  0.00178421  0.74962533  0.74937357  1
  V  V65  1  0.37390927  -0.00337551  0.88366496  1
  V  V66  1  0.49835429  0.62531840  0.62565900  1
  V  V67  1  0.87085775  0.25184858  0.61515198  1
  V  V68  1  0.37375395  0.25136872  0.12307145  1
  V  V69  1  0.24579748  0.24454630  0.00115294  1
  V  V70  1  0.31697687  0.55868502  0.92206048  1
  V  V71  1  0.50187395  0.36541980  0.87566911  1
  V  V72  1  0.37591291  0.63455640  0.25492974  1
  V  V73  1  0.62286017  0.37195722  0.25298662  1
  V  V74  1  0.25233262  0.49813086  0.75233873  1
  V  V75  1  0.24951963  0.12106301  0.87407973  1
  V  V76  1  -0.00345927  0.24658618  0.74979518  1
  V  V77  1  0.25557873  0.74915556  0.49151114  1
  V  V78  1  0.87334310  0.50035326  0.37575265  1
  V  V79  1  0.87735113  0.50193328  0.88367200  1
  V  V80  1  0.49949448  0.37030398  0.37433345  1
  V  V81  1  0.74960070  0.62445259  0.37764128  1
  V  V82  1  0.86233500  -0.00109396  0.36258906  1
  V  V83  1  0.00379397  0.86998269  0.37281669  1
  V  V84  1  0.87458529  0.87658361  0.50182817  1
  Zn  Zn85  1  0.00362705  0.87567255  0.88369989  1
  Zn  Zn86  1  0.13048128  0.74762723  0.37156750  1
  Zn  Zn87  1  0.73693711  0.11392627  0.89430842  1
  Zn  Zn88  1  0.62960995  0.89769342  0.75038025  1
  Zn  Zn89  1  0.87341410  -0.00563971  0.87442450  1
  Zn  Zn90  1  0.63172921  0.88627390  0.25237062  1
  Zn  Zn91  1  0.87426182  0.75088166  0.62699357  1
  Zn  Zn92  1  0.62846277  0.75552681  0.87730210  1
  Zn  Zn93  1  0.12814047  0.87303691  0.24630090  1
  Zn  Zn94  1  0.74471560  0.36998820  0.62046128  1
  Zn  Zn95  1  0.86461892  0.36482219  0.49199094  1
  Zn  Zn96  1  0.24765809  -0.00164563  0.24360716  1
  Zn  Zn97  1  0.73489085  0.24095582  -0.00079614  1
  Zn  Zn98  1  0.25236067  0.74383292  -0.00649337  1
  Zn  Zn99  1  -0.01543183  0.62474134  0.09841084  1
  Zn  Zn100  1  0.50080617  0.25026805  0.25236185  1
  Zn  Zn101  1  0.54504253  0.08082404  0.65502946  1
  Zn  Zn102  1  0.24561924  0.51015960  0.25316589  1
  Zn  Zn103  1  0.25553489  -0.00000458  0.74788926  1
  Zn  Zn104  1  0.50565954  0.74831404  0.24221089  1
  Zn  Zn105  1  0.87453117  0.63088262  0.24558469  1
  Zn  Zn106  1  0.64041469  0.01320355  0.12902677  1
  Zn  Zn107  1  0.17288847  0.18469285  0.18224222  1
  Zn  Zn108  1  0.18915435  0.18641749  0.68803467  1
  Zn  Zn109  1  0.19315091  0.69344164  0.18780810  1
  Zn  Zn110  1  0.18851167  0.68666901  0.68604369  1
  Zn  Zn111  1  0.69030264  0.19140088  0.19166415  1
  Zn  Zn112  1  0.68978270  0.18718072  0.68535419  1
  Zn  Zn113  1  0.68661623  0.68702506  0.18999882  1
  Zn  Zn114  1  0.68803240  0.68525157  0.68808970  1
  Zn  Zn115  1  0.31063052  0.31355054  0.31117086  1
  Zn  Zn116  1  0.31389621  0.30852642  0.81632684  1
  Zn  Zn117  1  0.31276397  0.81848826  0.30602853  1
  Zn  Zn118  1  0.31412921  0.81342827  0.81139243  1
  Zn  Zn119  1  0.81812120  0.31292556  0.30207738  1
  Zn  Zn120  1  0.80889079  0.30733731  0.81304975  1
  Zn  Zn121  1  0.81664867  0.81056487  0.31325365  1
  Zn  Zn122  1  0.81092043  0.81391983  0.81286120  1
  Zn  Zn123  1  0.18585176  0.43626150  0.43709860  1
  Zn  Zn124  1  0.18309054  0.42805172  0.94070176  1
  Zn  Zn125  1  0.19058348  0.93525125  0.43614897  1
  Zn  Zn126  1  0.18550403  0.93767489  0.93972147  1
  Zn  Zn127  1  0.68603212  0.43210237  0.43891562  1
  Zn  Zn128  1  0.68426615  0.42932204  0.94018068  1
  Zn  Zn129  1  0.68552307  0.93705232  0.43989615  1
  Zn  Zn130  1  0.69468162  0.93765661  0.93842378  1
  Zn  Zn131  1  0.31322514  0.06326898  0.05849804  1
  Zn  Zn132  1  0.31872384  0.06188802  0.56233369  1
  Zn  Zn133  1  0.31457738  0.56561354  0.08525573  1
  Zn  Zn134  1  0.31233351  0.56423978  0.56422393  1
  Zn  Zn135  1  0.83086635  0.06607640  0.06926728  1
  Zn  Zn136  1  0.81012056  0.06722212  0.55498461  1
  Zn  Zn137  1  0.80918280  0.56310967  0.06326947  1
  Zn  Zn138  1  0.81125332  0.55577752  0.56383416  1
  Zn  Zn139  1  0.43632888  0.44335934  0.18716069  1
  Zn  Zn140  1  0.43620875  0.43456929  0.69039612  1
  Zn  Zn141  1  0.44413321  0.93931727  0.19047274  1
  Zn  Zn142  1  0.45290111  0.94479436  0.69749794  1
  Zn  Zn143  1  0.93710062  0.44731982  0.18581139  1
  Zn  Zn144  1  0.93674496  0.43536873  0.69072053  1
  Zn  Zn145  1  0.93378373  0.92573697  0.18727453  1
  Zn  Zn146  1  0.94088598  0.93491586  0.68443759  1
  Zn  Zn147  1  0.05943004  0.05656779  0.30582980  1
  Zn  Zn148  1  0.05543427  0.05717366  0.81285223  1
  Zn  Zn149  1  0.06434088  0.55863511  0.31057181  1
  Zn  Zn150  1  0.06151733  0.56162040  0.93041632  1
  Zn  Zn151  1  0.56657486  0.06551455  0.31060975  1
  Zn  Zn152  1  0.56901378  0.05760072  0.81910616  1
  Zn  Zn153  1  0.55727309  0.56229106  0.31263647  1
  Zn  Zn154  1  0.55730154  0.55582429  0.81459920  1
  Zn  Zn155  1  0.43808187  0.18503789  0.43860999  1
  Zn  Zn156  1  0.56520090  0.19331653  0.94157682  1
  Zn  Zn157  1  0.43623636  0.68836930  0.43692662  1
  Zn  Zn158  1  0.44378654  0.69260142  0.93916113  1
  Zn  Zn159  1  0.93847163  0.18066345  0.42090383  1
  Zn  Zn160  1  0.89918788  0.19295550  0.93109914  1
  Zn  Zn161  1  0.93766547  0.68725079  0.43655333  1
  Zn  Zn162  1  0.92990320  0.69678484  0.93136291  1
  Zn  Zn163  1  0.05502270  0.30715746  0.06244750  1
  Zn  Zn164  1  0.05944602  0.31221784  0.55873824  1
  Zn  Zn165  1  0.06896504  0.80667736  0.05962862  1
  Zn  Zn166  1  0.06621615  0.81052234  0.56062901  1
  Zn  Zn167  1  0.55883156  0.32366733  0.06985123  1
  Zn  Zn168  1  0.56254686  0.31234314  0.56266949  1
  Zn  Zn169  1  0.57125827  0.81657977  0.05970415  1
  Zn  Zn170  1  0.56182466  0.81801351  0.55967858  1
  O  O171  1  0.12676365  0.10571740  0.11158029  1
  O  O172  1  0.12218041  0.11987442  0.61617065  1
  O  O173  1  0.13115740  0.61240357  0.12736577  1
  O  O174  1  0.11815342  0.61894116  0.61762178  1
  O  O175  1  0.61050458  0.13153691  0.13211850  1
  O  O176  1  0.62887125  0.13377274  0.60448305  1
  O  O177  1  0.62178398  0.61256112  0.13212967  1
  O  O178  1  0.61779981  0.61815528  0.62054474  1
  O  O179  1  0.37774807  0.38302096  0.38020393  1
  O  O180  1  0.37783335  0.37377167  0.88876564  1
  O  O181  1  0.38197631  0.88586196  0.37110166  1
  O  O182  1  0.38372195  0.88601427  0.86795298  1
  O  O183  1  0.88241223  0.38103267  0.37423404  1
  O  O184  1  0.88163316  0.38169177  0.88206096  1
  O  O185  1  0.87958058  0.88138653  0.38367425  1
  O  O186  1  0.87451279  0.86999659  0.88939115  1
  O  O187  1  0.25634024  0.00569959  0.36996745  1
  O  O188  1  0.25624144  0.00381980  0.87408378  1
  O  O189  1  0.26231179  0.49482271  0.37400627  1
  O  O190  1  0.24965936  0.49455954  0.86903776  1
  O  O191  1  0.76048538  -0.00535834  0.37489378  1
  O  O192  1  0.75878623  0.00221217  0.87470677  1
  O  O193  1  0.75519722  0.50407425  0.36935068  1
  O  O194  1  0.75345691  0.50278693  0.86737733  1
  O  O195  1  0.23872301  0.49117235  0.12743501  1
  O  O196  1  0.24700840  0.49143039  0.63089224  1
  O  O197  1  0.25218347  0.98754440  0.12136658  1
  O  O198  1  0.24777236  0.99109289  0.62293576  1
  O  O199  1  0.73801614  0.49636361  0.13353354  1
  O  O200  1  0.74414280  0.49863576  0.64021543  1
  O  O201  1  0.75667168  0.98685117  0.12490359  1
  O  O202  1  0.75004432  0.98872388  0.61801169  1
  O  O203  1  0.00771548  0.38354423  0.25786846  1
  O  O204  1  0.00430605  0.36483092  0.75651245  1
  O  O205  1  0.00401305  0.86113546  0.25661974  1
  O  O206  1  0.01059689  0.85958266  0.73758044  1
  O  O207  1  0.50463937  0.37846770  0.25710493  1
  O  O208  1  0.50355644  0.38109325  0.76671729  1
  O  O209  1  0.50183268  0.86955309  0.26344992  1
  O  O210  1  0.49792573  0.85992054  0.76075774  1
  O  O211  1  0.48544773  0.13102444  0.24512280  1
  O  O212  1  0.48800117  0.13035378  0.74879776  1
  O  O213  1  0.48413137  0.63005449  0.25562425  1
  O  O214  1  0.48935194  0.62669627  0.74591110  1
  O  O215  1  0.99230170  0.14195732  0.27914250  1
  O  O216  1  1.00498100  0.13645568  0.73757913  1
  O  O217  1  1.00165469  0.63912562  0.25946050  1
  O  O218  1  0.99689438  0.63630016  0.73498716  1
  O  O219  1  0.36434796  0.26180450  0.01406815  1
  O  O220  1  0.36779135  0.25180984  0.50678844  1
  O  O221  1  0.37390628  0.74774859  0.01191098  1
  O  O222  1  0.36850100  0.74420813  0.51212548  1
  O  O223  1  0.89022585  0.26920810  0.01724535  1
  O  O224  1  0.88669197  0.24635764  0.51277507  1
  O  O225  1  0.85499920  0.75717125  -0.00637262  1
  O  O226  1  0.86707782  0.76022135  0.49903018  1
  O  O227  1  0.13034913  0.24462191  0.49160627  1
  O  O228  1  0.12630251  0.23895337  0.99330196  1
  O  O229  1  0.13601544  0.74105229  0.49877802  1
  O  O230  1  0.13102883  0.74933617  0.98070382  1
  O  O231  1  0.62073617  0.24308966  0.49196349  1
  O  O232  1  0.62484682  0.26878753  1.00018785  1
  O  O233  1  0.63108442  0.74546412  0.49242298  1
  O  O234  1  0.64369879  0.75349751  0.99515932  1
  O  O235  1  0.48818170  0.24636275  0.12691820  1
  O  O236  1  0.48486817  0.24987659  0.61996323  1
  O  O237  1  0.48825748  0.76208042  0.12342675  1
  O  O238  1  0.49441839  0.74775056  0.63005884  1
  O  O239  1  1.02298619  0.23415940  0.14050846  1
  O  O240  1  0.99536042  0.24533998  0.63069328  1
  O  O241  1  1.00878731  0.74159305  0.13607346  1
  O  O242  1  0.99814619  0.74066892  0.62527799  1
  O  O243  1  0.00652856  0.26585524  0.38303098  1
  O  O244  1  -0.00188489  0.25743420  0.86465404  1
  O  O245  1  0.00424472  0.76135048  0.37799344  1
  O  O246  1  0.01416161  0.75485498  0.86200588  1
  O  O247  1  0.48775934  0.26666337  0.37205046  1
  O  O248  1  0.49170627  0.26756925  0.88245862  1
  O  O249  1  0.50818452  0.75843836  0.37978673  1
  O  O250  1  0.50449177  0.75697339  0.86925239  1
  O  O251  1  0.24526507  0.12882228  0.49226821  1
  O  O252  1  0.24514045  0.12814145  0.98774083  1
  O  O253  1  0.24182569  0.63499005  0.50743302  1
  O  O254  1  0.26599438  0.61835139  0.99088129  1
  O  O255  1  0.73567827  0.12286377  0.48763179  1
  O  O256  1  0.76923249  0.13139885  1.00560902  1
  O  O257  1  0.74484141  0.63012727  0.49725860  1
  O  O258  1  0.75258286  0.63451752  0.99109454  1
  O  O259  1  0.25347065  0.36903883  0.01035812  1
  O  O260  1  0.25490914  0.36874277  0.50489615  1
  O  O261  1  0.25035578  0.87171342  0.01106211  1
  O  O262  1  0.24731842  0.86649982  0.51302725  1
  O  O263  1  0.75983852  0.37561938  0.00799754  1
  O  O264  1  0.75439426  0.38314744  0.50832840  1
  O  O265  1  0.75647649  0.86457620  0.01254086  1
  O  O266  1  0.75540102  0.86778662  0.50773990  1
  O  O267  1  0.12898108  0.49052571  0.24253284  1
  O  O268  1  0.14028741  0.49133006  0.74191936  1
  O  O269  1  0.12638894  0.99858260  0.23253684  1
  O  O270  1  0.12860916  0.99063023  0.73973766  1
  O  O271  1  0.62929120  0.49651556  0.24667191  1
  O  O272  1  0.63058211  0.49246171  0.74633312  1
  O  O273  1  0.61150618  0.99681770  0.23754408  1
  O  O274  1  0.57153088  0.99426237  0.72730352  1
  O  O275  1  0.37444287  0.01037372  0.25778171  1
  O  O276  1  0.37543940  0.01091363  0.75816969  1
  O  O277  1  0.37236664  0.51176994  0.25661980  1
  O  O278  1  0.36238115  0.50611848  0.74605780  1
  O  O279  1  0.87879194  -0.00949436  0.26573667  1
  O  O280  1  0.87621728  0.01449617  0.73216711  1
  O  O281  1  0.86503858  0.49874831  0.26390772  1
  O  O282  1  0.86605779  0.50130760  0.75748945  1
  O  O283  1  0.11786384  0.37310632  0.36568603  1
  O  O284  1  0.11623156  0.36622643  0.86983669  1
  O  O285  1  0.11663757  0.87445863  0.37188109  1
  O  O286  1  0.12733573  0.87302862  0.85992499  1
  O  O287  1  0.61050520  0.38714414  0.36596972  1
  O  O288  1  0.61096196  0.37808624  0.86757015  1
  O  O289  1  0.62005702  0.86673002  0.37359851  1
  O  O290  1  0.61678963  0.87704873  0.86761293  1
  O  O291  1  0.37741900  0.13479655  0.12879532  1
  O  O292  1  0.36389897  0.13389057  0.63944359  1
  O  O293  1  0.37905607  0.64341445  0.13615282  1
  O  O294  1  0.38072355  0.63329672  0.63239824  1
  O  O295  1  0.90047473  0.11615199  0.14223149  1
  O  O296  1  0.88073697  0.13303652  0.62726445  1
  O  O297  1  0.88039885  0.60504717  0.13624405  1
  O  O298  1  0.88290951  0.62329258  0.62981535  1
  O  O299  1  0.25004219  0.25573663  0.12003674  1
  O  O300  1  0.25270126  0.25608422  0.61858799  1
  O  O301  1  0.25973928  0.76010726  0.11809050  1
  O  O302  1  0.25822899  0.75628548  0.61883055  1
  O  O303  1  0.74508148  0.26929957  0.12779017  1
  O  O304  1  0.76776301  0.25108920  0.62646582  1
  O  O305  1  0.75016723  0.74652950  0.11551464  1
  O  O306  1  0.75185976  0.74813289  0.61306459  1
  O  O307  1  0.24421223  0.24459846  0.38018477  1
  O  O308  1  0.24083532  0.24211663  0.88145411  1
  O  O309  1  0.25277222  0.75886860  0.38846826  1
  O  O310  1  0.23774248  0.75086577  0.87107249  1
  O  O311  1  0.76121790  0.23918439  0.37071767  1
  O  O312  1  0.78839768  0.23310980  0.89234988  1
  O  O313  1  0.74440799  0.74670574  0.38606779  1
  O  O314  1  0.74683664  0.73830314  0.87450770  1
  O  O315  1  0.00033524  0.13226721  -0.01321212  1
  O  O316  1  0.00681526  0.11823030  0.49978769  1
  O  O317  1  -0.00128021  0.63166764  -0.01155161  1
  O  O318  1  0.00565144  0.61986890  0.50883763  1
  O  O319  1  0.50120164  0.11761694  0.00896808  1
  O  O320  1  0.51652397  0.11629762  0.48625265  1
  O  O321  1  0.49680024  0.60948679  -0.00440224  1
  O  O322  1  0.50344477  0.62025020  0.50631237  1
  O  O323  1  0.49277222  0.38062050  0.49383033  1
  O  O324  1  0.48798072  0.38535624  0.99413583  1
  O  O325  1  0.50411864  0.88821087  0.48690716  1
  O  O326  1  0.50316436  0.88104316  0.98856092  1
  O  O327  1  0.99838691  0.38454829  0.49058245  1
  O  O328  1  0.99803508  0.37603861  0.98837114  1
  O  O329  1  0.99297300  0.87739578  0.49519564  1
  O  O330  1  0.98379884  0.85679404  1.00119984  1
  O  O331  1  0.48647096  0.49346924  0.38117612  1
  O  O332  1  0.49916522  0.49071183  0.88989857  1
  O  O333  1  0.49381677  0.99505777  0.38035699  1
  O  O334  1  0.49338111  0.99326746  0.88537554  1
  O  O335  1  0.99236405  0.49286292  0.37865376  1
  O  O336  1  0.99102549  0.48892805  0.86894995  1
  O  O337  1  0.99262795  0.98708516  0.37901710  1
  O  O338  1  0.98801570  0.98333278  0.85766322  1
  O  O339  1  0.01065496  -0.01386372  0.12474871  1
  O  O340  1  0.00820506  0.00461088  0.61523441  1
  O  O341  1  0.01814285  0.50549642  0.12714374  1
  O  O342  1  0.00430298  0.50563427  0.62232814  1
  O  O343  1  0.48938534  0.01246315  0.11376523  1
  O  O344  1  0.47726524  0.00415733  0.59733661  1
  O  O345  1  0.50448131  0.49350960  0.10901114  1
  O  O346  1  0.50153652  0.50459661  0.62030839  1
  O  O347  1  0.24479209  0.37760679  0.23763449  1
  O  O348  1  0.24753831  0.37972083  0.74698621  1
  O  O349  1  0.24627844  0.87693624  0.23331677  1
  O  O350  1  0.24412305  0.87485548  0.73737874  1
  O  O351  1  0.74275563  0.38726072  0.24769988  1
  O  O352  1  0.74121564  0.37925856  0.75072449  1
  O  O353  1  0.75326345  0.86335800  0.23432368  1
  O  O354  1  0.74756104  0.87233807  0.73404411  1
  O  O355  1  0.25809803  0.12487493  0.25081141  1
  O  O356  1  0.24761885  0.12233798  0.76364935  1
  O  O357  1  0.26739880  0.62603730  0.24605132  1
  O  O358  1  0.26188372  0.61670103  0.74346420  1
  O  O359  1  0.74659470  0.12497612  0.26438845  1
  O  O360  1  0.76141953  0.12524234  0.74875149  1
  O  O361  1  0.74934655  0.61526196  0.25883488  1
  O  O362  1  0.75433665  0.61554072  0.75553891  1
  O  O363  1  0.36726998  0.12405047  0.36427239  1
  O  O364  1  0.36218408  0.11640662  0.86523040  1
  O  O365  1  0.37512171  0.61922935  0.36712200  1
  O  O366  1  0.37802519  0.62556129  0.86562099  1
  O  O367  1  0.85839656  0.10771764  0.38365348  1
  O  O368  1  0.89027030  0.11559473  0.84696415  1
  O  O369  1  0.86761828  0.61731757  0.37426150  1
  O  O370  1  0.86667093  0.61687489  0.86525537  1
  O  O371  1  0.12869081  0.38145277  0.12810049  1
  O  O372  1  0.12928910  0.37841205  0.62977805  1
  O  O373  1  0.13555877  0.88391201  0.12002548  1
  O  O374  1  0.13416095  0.87697129  0.63152603  1
  O  O375  1  0.63039268  0.38923046  0.13674164  1
  O  O376  1  0.62107629  0.38136358  0.63424865  1
  O  O377  1  0.64437433  0.87328799  0.12851925  1
  O  O378  1  0.64085977  0.87074437  0.62426499  1
  O  O379  1  0.13403768  0.26593328  0.25680536  1
  O  O380  1  0.11763435  0.25469342  0.75514216  1
  O  O381  1  0.11676132  0.75071990  0.25424744  1
  O  O382  1  0.12172995  0.75436204  0.75397495  1
  O  O383  1  0.62099302  0.26813226  0.24869430  1
  O  O384  1  0.62648194  0.26220520  0.74384972  1
  O  O385  1  0.62423106  0.74858877  0.26490089  1
  O  O386  1  0.61098691  0.74460363  0.74949025  1
  O  O387  1  0.37141211  0.24645345  0.23722985  1
  O  O388  1  0.36687260  0.24073312  0.74165346  1
  O  O389  1  0.37855136  0.74533952  0.24394783  1
  O  O390  1  0.38245988  0.74111705  0.74320084  1
  O  O391  1  0.88332824  0.25664122  0.23152638  1
  O  O392  1  0.88327448  0.24037602  0.73733462  1
  O  O393  1  0.89572057  0.74833384  0.25718321  1
  O  O394  1  0.88457775  0.74333261  0.74897956  1
  O  O395  1  0.37778483  0.49597402  0.49435445  1
  O  O396  1  0.37414907  0.49810507  0.99815769  1
  O  O397  1  0.38300830  1.01395203  0.48004400  1
  O  O398  1  0.38309336  1.00541430  0.98653437  1
  O  O399  1  0.88082276  0.50071387  0.48849723  1
  O  O400  1  0.86904822  0.49487385  0.98555501  1
  O  O401  1  0.87959033  0.98927480  0.49510066  1
  O  O402  1  0.87699878  0.97846371  1.00260084  1
  O  O403  1  0.12018963  0.00518844  0.00760438  1
  O  O404  1  0.12124874  0.00356042  0.50346705  1
  O  O405  1  0.12647926  0.50074750  0.00866892  1
  O  O406  1  0.12073925  0.50537665  0.50664507  1
  O  O407  1  0.61538867  -0.00539534  0.01018624  1
  O  O408  1  0.61163683  0.00420746  0.49812861  1
  O  O409  1  0.61314859  0.49627294  0.00747373  1
  O  O410  1  0.61610936  0.50560424  0.50680783  1
  O  O411  1  0.36579805  0.37309582  0.11891922  1
  O  O412  1  0.36955393  0.36706767  0.61966546  1
  O  O413  1  0.36691610  0.86520207  0.13028312  1
  O  O414  1  0.37120134  0.86467137  0.63364274  1
  O  O415  1  0.86335162  0.39513246  0.11539629  1
  O  O416  1  0.87944613  0.35942144  0.62400765  1
  O  O417  1  0.86478344  0.86775026  0.11588285  1
  O  O418  1  0.86466268  0.87222207  0.61679778  1
  O  O419  1  0.13278951  0.12686435  0.37647248  1
  O  O420  1  0.12685469  0.12546626  0.88044158  1
  O  O421  1  0.12245358  0.62241224  0.38997190  1
  O  O422  1  0.12828810  0.63393748  0.86586971  1
  O  O423  1  0.63835530  0.12534113  0.38099658  1
  O  O424  1  0.62630470  0.13155569  0.87212434  1
  O  O425  1  0.62848962  0.63023205  0.38256748  1
  O  O426  1  0.63591986  0.62242466  0.86883836  1
