# generated using pymatgen
data_V85Zn86O256
_symmetry_space_group_name_H-M   'P 1'
_cell_length_a   16.98572675
_cell_length_b   16.97352665
_cell_length_c   16.98653117
_cell_angle_alpha   89.91952188
_cell_angle_beta   89.85566789
_cell_angle_gamma   90.06109371
_symmetry_Int_Tables_number   1
_chemical_formula_structural   V85Zn86O256
_chemical_formula_sum   'V85 Zn86 O256'
_cell_volume   4897.32431453
_cell_formula_units_Z   1
loop_
 _symmetry_equiv_pos_site_id
 _symmetry_equiv_pos_as_xyz
  1  'x, y, z'
loop_
 _atom_site_type_symbol
 _atom_site_label
 _atom_site_symmetry_multiplicity
 _atom_site_fract_x
 _atom_site_fract_y
 _atom_site_fract_z
 _atom_site_occupancy
  V  V0  1  0.73958309  0.74844206  0.49993212  1
  V  V1  1  0.74906533  0.49997976  0.25174529  1
  V  V2  1  0.50235685  0.25205593  0.25115711  1
  V  V3  1  0.75390129  0.12599355  0.37155641  1
  V  V4  1  0.25350963  0.88759774  0.62305346  1
  V  V5  1  0.87345487  0.62332789  0.25406101  1
  V  V6  1  0.87613540  0.74742965  0.62248288  1
  V  V7  1  0.19687766  -0.05662151  0.81047011  1
  V  V8  1  0.62628566  0.86129843  0.24996987  1
  V  V9  1  0.62680605  0.50289594  0.12418102  1
  V  V10  1  0.50297930  0.63262252  0.12236662  1
  V  V11  1  0.62790362  -0.01204130  0.61868428  1
  V  V12  1  0.62897833  0.12839566  -0.00429433  1
  V  V13  1  0.09654170  0.23998960  0.89300841  1
  V  V14  1  0.75841002  0.12329311  0.86537622  1
  V  V15  1  0.25479086  0.25048675  -0.00463427  1
  V  V16  1  0.25322139  0.37425977  0.12527442  1
  V  V17  1  -0.00508359  0.37068966  0.37603138  1
  V  V18  1  0.51472015  0.87672691  0.86699308  1
  V  V19  1  0.25304588  0.50558662  0.74949763  1
  V  V20  1  0.49292711  0.62228938  0.63177744  1
  V  V21  1  0.62290182  0.37529130  0.25583604  1
  V  V22  1  0.75048574  0.25159719  0.49890211  1
  V  V23  1  0.51099687  0.12607242  0.61395563  1
  V  V24  1  0.49127845  -0.00658263  0.48821266  1
  V  V25  1  -0.00134617  0.74588487  0.25376659  1
  V  V26  1  0.12367965  0.37600033  0.76494677  1
  V  V27  1  0.25006771  0.24980234  0.49946089  1
  V  V28  1  0.88071040  0.24479433  0.12453568  1
  V  V29  1  0.51320285  0.75376884  0.74363039  1
  V  V30  1  0.62160097  0.25120601  0.86747638  1
  V  V31  1  0.50711143  0.37764170  0.86923412  1
  V  V32  1  0.87478516  0.26169138  0.61916332  1
  V  V33  1  0.25453855  0.62650755  0.87347399  1
  V  V34  1  0.12443797  0.62190393  0.49948842  1
  V  V35  1  -0.00776900  0.26075226  0.74792816  1
  V  V36  1  0.74421393  0.76697009  0.00348547  1
  V  V37  1  -0.00044125  -0.00144371  0.50064368  1
  V  V38  1  0.74450233  0.37680635  0.62646587  1
  V  V39  1  0.25153547  0.49976336  0.24894154  1
  V  V40  1  0.87269978  0.00292317  0.37427503  1
  V  V41  1  0.38158132  -0.00286645  0.86754511  1
  V  V42  1  -0.00163123  0.23445019  0.24614709  1
  V  V43  1  0.12644476  0.11819024  0.50620001  1
  V  V44  1  0.38276682  0.37757046  -0.00013013  1
  V  V45  1  0.38048589  0.50457419  0.87046275  1
  V  V46  1  0.50250381  0.25448743  0.74359218  1
  V  V47  1  0.50482824  0.50862591  0.49945208  1
  V  V48  1  0.62350392  0.50129336  0.62741879  1
  V  V49  1  0.37287460  0.87655733  -0.00174838  1
  V  V50  1  0.12583875  0.24747881  0.37484950  1
  V  V51  1  0.12423591  0.49899608  0.12570469  1
  V  V52  1  0.25366319  0.13439784  0.86931465  1
  V  V53  1  0.74921886  0.61828533  0.88944663  1
  V  V54  1  0.75176848  0.50186924  0.75258357  1
  V  V55  1  0.38024152  0.24930128  0.12689912  1
  V  V56  1  0.12395367  0.75212941  0.37473661  1
  V  V57  1  0.25004113  0.00010367  0.24702470  1
  V  V58  1  -0.00101943  0.49360375  0.49830153  1
  V  V59  1  -0.00149412  0.61831911  0.12525104  1
  V  V60  1  0.50535558  0.12394999  0.12486228  1
  V  V61  1  0.88903259  -0.01362629  0.87225745  1
  V  V62  1  0.50181949  0.00163994  -0.00266049  1
  V  V63  1  0.37051483  0.74831239  0.63581949  1
  V  V64  1  -0.00608376  0.12857928  0.62970947  1
  V  V65  1  0.51302457  0.50640151  -0.00379735  1
  V  V66  1  0.13188425  0.62577702  0.00173715  1
  V  V67  1  0.86787307  0.75156619  0.12437637  1
  V  V68  1  0.62301068  0.24198957  0.37950185  1
  V  V69  1  -0.00169548  0.62298996  0.62612557  1
  V  V70  1  0.87216030  0.49510408  0.38079347  1
  V  V71  1  0.12357520  0.37219817  0.24618507  1
  V  V72  1  0.24972851  0.37364939  0.62658446  1
  V  V73  1  0.75680066  0.26474394  -0.01168117  1
  V  V74  1  0.12390403  0.87782987  0.24129340  1
  V  V75  1  0.37880764  0.63245757  0.24576242  1
  V  V76  1  0.25350195  0.75566382  0.50257483  1
  V  V77  1  -0.00278380  0.50101259  -0.02587499  1
  V  V78  1  0.37488856  0.12309562  0.74317006  1
  V  V79  1  0.73746739  0.62614490  0.38152224  1
  V  V80  1  0.37867653  0.11658982  0.25572258  1
  V  V81  1  0.06585240  -0.05727333  0.67883132  1
  V  V82  1  0.12564040  0.49749278  0.62673876  1
  V  V83  1  0.37608968  0.50171095  0.37674558  1
  V  V84  1  0.24773970  0.62481337  0.37360585  1
  Zn  Zn85  1  0.90585641  0.89833553  0.02454824  1
  Zn  Zn86  1  0.62767739  0.74923034  0.87562585  1
  Zn  Zn87  1  0.89003618  0.38124472  -0.00365065  1
  Zn  Zn88  1  0.73426900  0.85875774  0.63290965  1
  Zn  Zn89  1  0.25644634  0.11510528  0.38022562  1
  Zn  Zn90  1  0.00063888  0.76708906  0.75487716  1
  Zn  Zn91  1  0.75619557  0.37252530  0.13084701  1
  Zn  Zn92  1  0.49954852  0.37665824  0.38040222  1
  Zn  Zn93  1  0.64652048  -0.01020161  0.12122460  1
  Zn  Zn94  1  0.37433652  0.37780434  0.50097507  1
  Zn  Zn95  1  -0.00419911  0.87314390  0.37916104  1
  Zn  Zn96  1  0.86483078  0.87595252  0.49888481  1
  Zn  Zn97  1  0.37826997  0.75637565  0.12274820  1
  Zn  Zn98  1  0.75201544  -0.00758520  0.24695685  1
  Zn  Zn99  1  0.87357171  0.62441800  0.75701290  1
  Zn  Zn100  1  0.25723826  0.74955975  -0.00123344  1
  Zn  Zn101  1  0.25095002  0.87799038  0.12022588  1
  Zn  Zn102  1  0.37574632  0.24990400  0.62142068  1
  Zn  Zn103  1  0.74198387  -0.00060524  0.74926233  1
  Zn  Zn104  1  0.12237925  0.76383979  0.87299341  1
  Zn  Zn105  1  0.50281345  0.85238032  0.36700168  1
  Zn  Zn106  1  0.05669507  0.03480411  0.10273762  1
  Zn  Zn107  1  0.19235635  0.18583495  0.19133980  1
  Zn  Zn108  1  0.18176749  0.19018191  0.69089028  1
  Zn  Zn109  1  0.19382310  0.69305700  0.18461965  1
  Zn  Zn110  1  0.18434049  0.69000553  0.68950056  1
  Zn  Zn111  1  0.72260146  0.14684086  0.16048271  1
  Zn  Zn112  1  0.68771350  0.18834838  0.68616112  1
  Zn  Zn113  1  0.68592150  0.68736283  0.18782138  1
  Zn  Zn114  1  0.68630363  0.67850031  0.68358596  1
  Zn  Zn115  1  0.31401693  0.31173366  0.31450439  1
  Zn  Zn116  1  0.32096971  0.31722407  0.80840912  1
  Zn  Zn117  1  0.31183498  0.82073425  0.31030481  1
  Zn  Zn118  1  0.32297449  0.80601561  0.81506627  1
  Zn  Zn119  1  0.81221705  0.30930760  0.30853674  1
  Zn  Zn120  1  0.80993847  0.31934682  0.81187136  1
  Zn  Zn121  1  0.80620425  0.81416588  0.31620967  1
  Zn  Zn122  1  0.80988073  0.80602970  0.81220245  1
  Zn  Zn123  1  0.18699257  0.43488193  0.43584502  1
  Zn  Zn124  1  0.18753670  0.43783143  0.94001741  1
  Zn  Zn125  1  0.19045660  0.93717267  0.43433113  1
  Zn  Zn126  1  0.06355956  0.93825632  0.94804132  1
  Zn  Zn127  1  0.68668772  0.43515636  0.44352468  1
  Zn  Zn128  1  0.70225238  0.42637633  0.93447520  1
  Zn  Zn129  1  0.67739415  0.93845040  0.43831056  1
  Zn  Zn130  1  0.69073751  0.94122957  0.94040305  1
  Zn  Zn131  1  0.20949995  0.06117000  0.05337198  1
  Zn  Zn132  1  0.31704077  0.06345563  0.56235819  1
  Zn  Zn133  1  0.31903483  0.56018546  0.06062285  1
  Zn  Zn134  1  0.31502068  0.56780514  0.56183784  1
  Zn  Zn135  1  0.85453331  0.04573217  0.07933309  1
  Zn  Zn136  1  0.81122370  0.06833666  0.55874821  1
  Zn  Zn137  1  0.81562343  0.56128823  0.06179273  1
  Zn  Zn138  1  0.81242028  0.56038576  0.56084984  1
  Zn  Zn139  1  0.44204633  0.44102607  0.18831145  1
  Zn  Zn140  1  0.43570510  0.43604888  0.68710683  1
  Zn  Zn141  1  0.44570911  0.93782323  0.18846784  1
  Zn  Zn142  1  0.44028004  0.93611198  0.68031456  1
  Zn  Zn143  1  0.93594173  0.43072018  0.18703829  1
  Zn  Zn144  1  0.93550218  0.43983596  0.68866459  1
  Zn  Zn145  1  0.93271437  0.92965459  0.20235512  1
  Zn  Zn146  1  0.88561877  0.91901874  0.70720717  1
  Zn  Zn147  1  0.06766681  0.05918574  0.31898359  1
  Zn  Zn148  1  0.05482521  0.07966632  0.81795395  1
  Zn  Zn149  1  0.06183731  0.55994023  0.31243418  1
  Zn  Zn150  1  0.05271661  0.61593598  0.82331064  1
  Zn  Zn151  1  0.57076810  0.05663872  0.30923092  1
  Zn  Zn152  1  0.56443398  0.06519889  0.80275266  1
  Zn  Zn153  1  0.55927189  0.56764021  0.31037990  1
  Zn  Zn154  1  0.57281711  0.56755819  0.80823386  1
  Zn  Zn155  1  0.43711507  0.18766971  0.43772001  1
  Zn  Zn156  1  0.43756913  0.18636736  0.93544632  1
  Zn  Zn157  1  0.41717684  0.71716093  0.41785468  1
  Zn  Zn158  1  0.44385891  0.68937312  0.93426481  1
  Zn  Zn159  1  0.93587443  0.18714646  0.44156180  1
  Zn  Zn160  1  0.93025780  0.19585640  0.93084828  1
  Zn  Zn161  1  0.93301606  0.68375349  0.44059707  1
  Zn  Zn162  1  0.93227611  0.69551761  0.94039731  1
  Zn  Zn163  1  0.06870671  0.21186340  0.06442948  1
  Zn  Zn164  1  0.06634722  0.31236385  0.56233009  1
  Zn  Zn165  1  0.06292723  0.80097798  0.06411889  1
  Zn  Zn166  1  0.06237921  0.80769641  0.55996322  1
  Zn  Zn167  1  0.57307739  0.31712945  0.06032201  1
  Zn  Zn168  1  0.56292135  0.31957904  0.55924905  1
  Zn  Zn169  1  0.56440351  0.81886399  0.06389242  1
  Zn  Zn170  1  0.53834964  0.78668295  0.52520719  1
  O  O171  1  0.12633156  0.12859558  0.11812290  1
  O  O172  1  0.11094444  0.13603861  0.61532055  1
  O  O173  1  0.12092225  0.61995699  0.12029416  1
  O  O174  1  0.11842051  0.61593984  0.61836182  1
  O  O175  1  0.61591639  0.13622218  0.11034818  1
  O  O176  1  0.61190505  0.12832196  0.62247047  1
  O  O177  1  0.61750256  0.61042705  0.13214785  1
  O  O178  1  0.61340380  0.60913978  0.62656628  1
  O  O179  1  0.37391821  0.39162258  0.37474434  1
  O  O180  1  0.38547764  0.38700555  0.87924874  1
  O  O181  1  0.39057785  0.82715533  0.38274172  1
  O  O182  1  0.38657566  0.88241736  0.87600176  1
  O  O183  1  0.88417393  0.38173641  0.36791906  1
  O  O184  1  0.80633044  0.36212286  0.91787919  1
  O  O185  1  0.87626351  0.88268888  0.38249824  1
  O  O186  1  0.87968859  0.88623805  0.86726738  1
  O  O187  1  0.24674632  0.00043417  0.35829295  1
  O  O188  1  0.25837187  0.00762478  0.86353868  1
  O  O189  1  0.25581945  0.50610372  0.37058152  1
  O  O190  1  0.26146843  0.50192768  0.86867926  1
  O  O191  1  0.75629444  0.01169769  0.38464967  1
  O  O192  1  0.74288412  0.01691553  0.87216338  1
  O  O193  1  0.75643599  0.50587516  0.37510040  1
  O  O194  1  0.74161499  0.51121506  0.86755573  1
  O  O195  1  0.24602518  0.49326945  0.12862192  1
  O  O196  1  0.24843381  0.49471209  0.63185959  1
  O  O197  1  0.25061122  0.99576494  0.14026269  1
  O  O198  1  0.25283911  0.98747573  0.62163808  1
  O  O199  1  0.74255362  0.49855290  0.13051655  1
  O  O200  1  0.74235944  0.49548446  0.62665793  1
  O  O201  1  0.75524024  1.03684783  0.13294197  1
  O  O202  1  0.73589865  1.00335530  0.61856272  1
  O  O203  1  0.00887268  0.37035767  0.26014963  1
  O  O204  1  0.01418181  0.37283948  0.73940860  1
  O  O205  1  0.00805744  0.86387198  0.25792490  1
  O  O206  1  -0.00166752  0.88498331  0.73291081  1
  O  O207  1  0.50513191  0.37181674  0.25695399  1
  O  O208  1  0.49556062  0.36555888  0.75561338  1
  O  O209  1  0.51564922  0.87993684  0.25363331  1
  O  O210  1  0.49575937  0.86625878  0.75586165  1
  O  O211  1  0.49711437  0.13094838  0.24198572  1
  O  O212  1  0.49155554  0.13308332  0.73746928  1
  O  O213  1  0.48985393  0.61913085  0.23733180  1
  O  O214  1  0.50396793  0.63369417  0.73909438  1
  O  O215  1  1.00939558  0.13585052  0.25278713  1
  O  O216  1  1.00299751  0.14461243  0.73995905  1
  O  O217  1  0.99453894  0.62745352  0.24597452  1
  O  O218  1  0.99114392  0.60635106  0.72872023  1
  O  O219  1  0.37288192  0.25644451  0.00691016  1
  O  O220  1  0.36127133  0.25296789  0.49955680  1
  O  O221  1  0.37962175  0.76230480  -0.00398863  1
  O  O222  1  0.35459883  0.73513832  0.51749356  1
  O  O223  1  0.87148454  0.25814515  0.00669228  1
  O  O224  1  0.86716875  0.25287418  0.50838506  1
  O  O225  1  0.86162927  0.74530203  0.01217035  1
  O  O226  1  0.86537088  0.74837497  0.50599355  1
  O  O227  1  0.13474976  0.24355254  0.49591624  1
  O  O228  1  0.14790683  0.26766300  0.99045617  1
  O  O229  1  0.13169180  0.74236781  0.49359949  1
  O  O230  1  0.13223763  0.73392315  0.99457897  1
  O  O231  1  0.63299061  0.26085515  0.48778291  1
  O  O232  1  0.61771660  0.23866089  0.98441181  1
  O  O233  1  0.64415146  0.73920567  0.51956506  1
  O  O234  1  0.64071454  0.75569460  1.00077776  1
  O  O235  1  0.49727642  0.24783133  0.12823095  1
  O  O236  1  0.49982022  0.24400151  0.62652454  1
  O  O237  1  0.50029761  0.73505630  0.11483437  1
  O  O238  1  0.49012756  0.74215328  0.62550209  1
  O  O239  1  0.99527177  0.26163545  0.13613265  1
  O  O240  1  0.99201602  0.25014145  0.62663979  1
  O  O241  1  0.99304743  0.73327277  0.13330699  1
  O  O242  1  0.99511790  0.73713774  0.62233262  1
  O  O243  1  0.00344693  0.25469745  0.36874994  1
  O  O244  1  -0.00506280  0.26868245  0.86022534  1
  O  O245  1  0.00775310  0.74668065  0.37328629  1
  O  O246  1  0.00969636  0.71990988  0.86518106  1
  O  O247  1  0.50777214  0.25351332  0.37250043  1
  O  O248  1  0.50414134  0.25360461  0.86435600  1
  O  O249  1  0.52292458  0.74808693  0.41905669  1
  O  O250  1  0.50597279  0.75744939  0.86210523  1
  O  O251  1  0.24349266  0.13134566  0.50174127  1
  O  O252  1  0.25767060  0.13888957  0.98451992  1
  O  O253  1  0.24074701  0.62884519  0.49351871  1
  O  O254  1  0.24702947  0.62114808  0.99415227  1
  O  O255  1  0.75113438  0.14408960  0.49277900  1
  O  O256  1  0.73937218  0.14727711  0.98532439  1
  O  O257  1  0.75472307  0.62894537  0.48699323  1
  O  O258  1  0.74809835  0.62268913  0.99098546  1
  O  O259  1  0.26300734  0.37405307  0.00651207  1
  O  O260  1  0.24856290  0.36771587  0.50817407  1
  O  O261  1  0.27107530  0.87824038  -0.00359576  1
  O  O262  1  0.24119365  0.86538413  0.51012151  1
  O  O263  1  0.70621808  0.34957868  0.02628296  1
  O  O264  1  0.74902173  0.36632466  0.51321505  1
  O  O265  1  0.75426490  0.86692335  0.00237054  1
  O  O266  1  0.74487470  0.85775628  0.50108377  1
  O  O267  1  0.13225996  0.49225917  0.24744347  1
  O  O268  1  0.13764905  0.48950025  0.74258830  1
  O  O269  1  0.12731535  0.98905673  0.24884821  1
  O  O270  1  0.12650720  1.00068591  0.75502293  1
  O  O271  1  0.63042811  0.49587871  0.24640353  1
  O  O272  1  0.63731650  0.49948620  0.73989962  1
  O  O273  1  0.63578313  1.00254950  0.23822216  1
  O  O274  1  0.62495212  1.00769175  0.72614028  1
  O  O275  1  0.37011719  0.01007978  0.24483963  1
  O  O276  1  0.38465232  0.00962933  0.75732100  1
  O  O277  1  0.36965179  0.50732831  0.25609149  1
  O  O278  1  0.36618428  0.49404994  0.75986413  1
  O  O279  1  0.86964176  -0.00315403  0.27009043  1
  O  O280  1  0.86916961  0.01158632  0.77099167  1
  O  O281  1  0.86813640  0.50242338  0.25919423  1
  O  O282  1  0.85734530  0.49986317  0.74488913  1
  O  O283  1  0.12084519  0.36866158  0.36358475  1
  O  O284  1  0.13192592  0.36570201  0.86721805  1
  O  O285  1  0.12372114  0.86136818  0.36930328  1
  O  O286  1  0.14095016  0.88342116  0.87100685  1
  O  O287  1  0.62396901  0.37386958  0.36647324  1
  O  O288  1  0.62179168  0.35895706  0.87480910  1
  O  O289  1  0.62119042  0.88284397  0.35748012  1
  O  O290  1  0.61747050  0.87558917  0.87572003  1
  O  O291  1  0.38770618  0.14199723  0.13567491  1
  O  O292  1  0.38491089  0.12892134  0.63024845  1
  O  O293  1  0.38545125  0.62200216  0.13068533  1
  O  O294  1  0.38131434  0.63024477  0.63052361  1
  O  O295  1  0.89566332  0.14725771  0.11173639  1
  O  O296  1  0.88828790  0.13826446  0.61796144  1
  O  O297  1  0.88264047  0.62606510  0.13425290  1
  O  O298  1  0.88286003  0.63115015  0.61963418  1
  O  O299  1  0.26164168  0.25546841  0.11805771  1
  O  O300  1  0.24835957  0.25792128  0.61823908  1
  O  O301  1  0.25755240  0.75769156  0.11674874  1
  O  O302  1  0.25231842  0.75702990  0.62316325  1
  O  O303  1  0.76876103  0.24497048  0.11730575  1
  O  O304  1  0.75510628  0.25650226  0.62025882  1
  O  O305  1  0.75624971  0.73712567  0.11149993  1
  O  O306  1  0.75913429  0.74233522  0.61617080  1
  O  O307  1  0.24349079  0.24959825  0.38374813  1
  O  O308  1  0.26366143  0.24591379  0.88101893  1
  O  O309  1  0.24013265  0.74398434  0.38375238  1
  O  O310  1  0.25148702  0.73826618  0.87593960  1
  O  O311  1  0.74458375  0.25054875  0.38250732  1
  O  O312  1  0.73865850  0.23881002  0.87074828  1
  O  O313  1  0.75264440  0.73556233  0.38774987  1
  O  O314  1  0.74928727  0.74646008  0.89084831  1
  O  O315  1  0.03640755  0.17351081  -0.03873517  1
  O  O316  1  0.00679560  0.11619978  0.50658164  1
  O  O317  1  0.01013563  0.61824139  0.01059634  1
  O  O318  1  0.00558175  0.61539092  0.50636355  1
  O  O319  1  0.50536949  0.12132774  0.00409774  1
  O  O320  1  0.49741550  0.12509001  0.51228377  1
  O  O321  1  0.49866473  0.61410577  0.00496195  1
  O  O322  1  0.49213811  0.60997829  0.51761353  1
  O  O323  1  0.49243356  0.38960468  0.49958861  1
  O  O324  1  0.49991152  0.38292365  0.99099711  1
  O  O325  1  0.49859736  0.89269158  0.49990240  1
  O  O326  1  0.49818524  0.88379655  0.98836541  1
  O  O327  1  1.00958115  0.37651189  0.48324067  1
  O  O328  1  1.00547337  0.40139013  0.98652201  1
  O  O329  1  1.00655944  0.89077901  0.50180178  1
  O  O330  1  1.00160687  0.85297397  0.98803893  1
  O  O331  1  0.49209871  0.50448531  0.38330266  1
  O  O332  1  0.49981346  0.50101005  0.87787207  1
  O  O333  1  0.50441342  1.00893960  0.38848187  1
  O  O334  1  0.49868213  0.99531231  0.87287113  1
  O  O335  1  0.99294125  0.49097908  0.37796778  1
  O  O336  1  1.00474390  0.51878955  0.87698360  1
  O  O337  1  0.99208443  1.00006267  0.38552506  1
  O  O338  1  0.99362108  1.00416719  0.87647473  1
  O  O339  1  -0.04438486  -0.00934667  0.11065378  1
  O  O340  1  0.00296979  0.01152577  0.62198523  1
  O  O341  1  0.00675868  0.50933915  0.13295512  1
  O  O342  1  0.00439239  0.49960740  0.61360285  1
  O  O343  1  0.49821235  0.01714501  0.11686788  1
  O  O344  1  0.50680016  0.01241201  0.61879562  1
  O  O345  1  0.50691835  0.50676553  0.11470395  1
  O  O346  1  0.50405048  0.50323932  0.62386330  1
  O  O347  1  0.24447725  0.37838432  0.24508733  1
  O  O348  1  0.24445700  0.37992921  0.74419183  1
  O  O349  1  0.24136809  0.88072058  0.24786967  1
  O  O350  1  0.25140080  0.88074048  0.75051775  1
  O  O351  1  0.74054770  0.38104189  0.24883393  1
  O  O352  1  0.75173462  0.38201129  0.73463367  1
  O  O353  1  0.73709639  0.87562852  0.25212110  1
  O  O354  1  0.77039516  0.88431586  0.73825159  1
  O  O355  1  0.26117008  0.11804935  0.25147647  1
  O  O356  1  0.26654282  0.13608583  0.75124040  1
  O  O357  1  0.25424066  0.61747905  0.25426428  1
  O  O358  1  0.24793661  0.61187035  0.75749894  1
  O  O359  1  0.75303328  0.13482326  0.27087075  1
  O  O360  1  0.74738408  0.12701062  0.76249629  1
  O  O361  1  0.75434080  0.61990603  0.26248474  1
  O  O362  1  0.75252544  0.61593400  0.75414650  1
  O  O363  1  0.37370682  0.13531259  0.35858358  1
  O  O364  1  0.37014653  0.11819531  0.86547630  1
  O  O365  1  0.36887295  0.61906351  0.36580769  1
  O  O366  1  0.36889433  0.61278163  0.88030647  1
  O  O367  1  0.86704719  0.11621838  0.38459647  1
  O  O368  1  0.85974196  0.12404688  0.87894614  1
  O  O369  1  0.87042029  0.61364194  0.36940545  1
  O  O370  1  0.85363271  0.63111608  0.87354476  1
  O  O371  1  0.13191611  0.38134794  0.13883219  1
  O  O372  1  0.13641598  0.37827376  0.63104184  1
  O  O373  1  0.12421411  0.86327715  0.13938568  1
  O  O374  1  0.12962999  0.87601263  0.63012660  1
  O  O375  1  0.61643451  0.38868500  0.14340977  1
  O  O376  1  0.63203949  0.38687237  0.62337193  1
  O  O377  1  0.62292031  0.87869576  0.13846843  1
  O  O378  1  0.62152578  0.88812701  0.62034529  1
  O  O379  1  0.12006466  0.25644213  0.25359406  1
  O  O380  1  0.11331547  0.25932953  0.75953240  1
  O  O381  1  0.12094515  0.75160815  0.25921950  1
  O  O382  1  0.11207707  0.73255495  0.76040778  1
  O  O383  1  0.61680248  0.26223438  0.26137075  1
  O  O384  1  0.61100519  0.24455865  0.75330900  1
  O  O385  1  0.62619999  0.76047809  0.24901202  1
  O  O386  1  0.61577568  0.75110825  0.74269166  1
  O  O387  1  0.38312345  0.24960058  0.24311300  1
  O  O388  1  0.38772236  0.24383818  0.74623593  1
  O  O389  1  0.36730199  0.73412172  0.24294233  1
  O  O390  1  0.38579181  0.74781892  0.73966517  1
  O  O391  1  0.88487957  0.25480160  0.23539454  1
  O  O392  1  0.88478091  0.26347809  0.74135667  1
  O  O393  1  0.87769879  0.74059979  0.24829516  1
  O  O394  1  0.88226029  0.74535569  0.73851482  1
  O  O395  1  0.37809263  0.50138704  0.48985370  1
  O  O396  1  0.38885625  0.49419055  0.99182245  1
  O  O397  1  0.39168250  1.00758766  0.49980338  1
  O  O398  1  0.38721692  0.99513249  0.97822281  1
  O  O399  1  0.88089003  0.49996630  0.48695510  1
  O  O400  1  0.89382424  0.50472414  0.99953324  1
  O  O401  1  0.88414729  0.99858442  0.49683998  1
  O  O402  1  0.86247959  0.99556793  0.97591903  1
  O  O403  1  0.12213723  0.00205192  0.01575390  1
  O  O404  1  0.11959111  0.01174986  0.49466026  1
  O  O405  1  0.11816176  0.50833553  0.00601798  1
  O  O406  1  0.12056764  0.50229186  0.50485903  1
  O  O407  1  0.62227795  0.01255324  0.00343831  1
  O  O408  1  0.61328853  0.00404881  0.51227659  1
  O  O409  1  0.61811933  0.49140005  0.00773228  1
  O  O410  1  0.61437523  0.49669921  0.50923776  1
  O  O411  1  0.37585234  0.36706761  0.12219810  1
  O  O412  1  0.36074480  0.37258119  0.62416798  1
  O  O413  1  0.38283405  0.87690273  0.11151438  1
  O  O414  1  0.36391813  0.86432425  0.62905242  1
  O  O415  1  0.87291442  0.36764504  0.11662711  1
  O  O416  1  0.86801264  0.36689408  0.62303636  1
  O  O417  1  0.87538228  0.85385509  0.13147075  1
  O  O418  1  0.87603237  0.85600460  0.61338446  1
  O  O419  1  0.12830739  0.13272698  0.38730656  1
  O  O420  1  0.14499202  0.14174681  0.85907477  1
  O  O421  1  0.12788519  0.63228056  0.37823901  1
  O  O422  1  0.14656390  0.61265645  0.88773248  1
  O  O423  1  0.63135628  0.13886056  0.37351062  1
  O  O424  1  0.62678043  0.13285811  0.87700822  1
  O  O425  1  0.64011883  0.61630835  0.37415870  1
  O  O426  1  0.64343306  0.63358659  0.86953370  1
