# generated using pymatgen
data_V85Zn86O256
_symmetry_space_group_name_H-M   'P 1'
_cell_length_a   17.01454715
_cell_length_b   16.98804866
_cell_length_c   16.99411018
_cell_angle_alpha   89.96018881
_cell_angle_beta   90.06814260
_cell_angle_gamma   90.06337251
_symmetry_Int_Tables_number   1
_chemical_formula_structural   V85Zn86O256
_chemical_formula_sum   'V85 Zn86 O256'
_cell_volume   4912.03715962
_cell_formula_units_Z   1
loop_
 _symmetry_equiv_pos_site_id
 _symmetry_equiv_pos_as_xyz
  1  'x, y, z'
loop_
 _atom_site_type_symbol
 _atom_site_label
 _atom_site_symmetry_multiplicity
 _atom_site_fract_x
 _atom_site_fract_y
 _atom_site_fract_z
 _atom_site_occupancy
  V  V0  1  0.75455845  0.51685771  0.75383187  1
  V  V1  1  0.49659290  0.38326668  0.87128618  1
  V  V2  1  0.61805612  -0.00512624  0.11666647  1
  V  V3  1  -0.04989584  0.30845179  0.80123106  1
  V  V4  1  0.04882811  0.69471838  0.19417626  1
  V  V5  1  0.66737434  0.30815549  0.31723039  1
  V  V6  1  0.74555762  0.25202556  0.50296272  1
  V  V7  1  0.61373901  0.12371878  -0.00461993  1
  V  V8  1  0.38117965  0.73410719  0.12630933  1
  V  V9  1  0.87399935  0.62540131  0.24885685  1
  V  V10  1  0.25268225  0.75776731  0.00327900  1
  V  V11  1  0.37290644  0.12534128  0.24761117  1
  V  V12  1  0.87196248  0.75178692  0.13165829  1
  V  V13  1  0.25204032  0.74879363  0.49932194  1
  V  V14  1  0.37777309  0.74981438  0.63382581  1
  V  V15  1  0.49887226  0.25447252  0.73951467  1
  V  V16  1  0.74767553  0.37357899  0.64318119  1
  V  V17  1  0.25485369  0.24791813  0.49643689  1
  V  V18  1  0.62272389  0.75056807  0.37590111  1
  V  V19  1  0.12632399  0.87893349  0.24370036  1
  V  V20  1  0.50079626  0.49941331  0.50191188  1
  V  V21  1  0.25301845  -0.00540453  0.23921577  1
  V  V22  1  0.87589978  0.75152113  0.62884432  1
  V  V23  1  0.49615041  0.73709611  0.25034608  1
  V  V24  1  0.12716524  0.74886418  0.88226028  1
  V  V25  1  0.87292545  0.12452151  0.23606042  1
  V  V26  1  0.87709057  0.26503602  0.12048516  1
  V  V27  1  0.25084661  -0.00143281  0.74790316  1
  V  V28  1  0.25079067  0.12250443  0.87272163  1
  V  V29  1  0.37231961  0.25194282  0.12002790  1
  V  V30  1  0.73634090  0.74629756  0.00921057  1
  V  V31  1  0.61673524  0.12645583  0.49830446  1
  V  V32  1  0.74816641  0.87808332  0.62519416  1
  V  V33  1  -0.01267080  0.50536857  -0.01462378  1
  V  V34  1  0.87918502  -0.00106393  0.87801816  1
  V  V35  1  0.37796796  0.50032483  0.36500500  1
  V  V36  1  0.62256370  0.74353113  0.86949587  1
  V  V37  1  0.00056793  0.86583559  0.36934527  1
  V  V38  1  0.50044958  0.25318019  0.24750259  1
  V  V39  1  0.62165623  0.50823487  0.13361267  1
  V  V40  1  0.12318660  0.12983734  0.49251913  1
  V  V41  1  0.74379913  0.12703966  0.37573608  1
  V  V42  1  0.12509629  0.25981089  0.85997035  1
  V  V43  1  0.50013764  0.87743406  0.37805395  1
  V  V44  1  0.25753738  0.62283487  0.37222174  1
  V  V45  1  0.00186226  -0.00028772  0.49329801  1
  V  V46  1  0.74815275  0.62356786  0.37561456  1
  V  V47  1  0.11364067  0.12087170  -0.00341872  1
  V  V48  1  0.87406612  0.37879407  0.50473017  1
  V  V49  1  0.87350722  0.00103129  0.37356730  1
  V  V50  1  0.25312148  0.61980328  0.87962102  1
  V  V51  1  0.24971428  0.87247928  0.62321192  1
  V  V52  1  -0.00142675  0.62665600  0.62891345  1
  V  V53  1  0.00022491  0.74983450  0.75579914  1
  V  V54  1  0.87930775  0.87842993  0.00381784  1
  V  V55  1  0.25017516  0.25224724  -0.00776853  1
  V  V56  1  0.87226215  0.50208625  0.37426095  1
  V  V57  1  0.37929827  0.00203279  0.37879540  1
  V  V58  1  0.50125979  0.37049787  0.37433971  1
  V  V59  1  0.38318552  -0.00119959  0.87529932  1
  V  V60  1  0.50340877  0.87556819  0.87368190  1
  V  V61  1  0.37664744  0.87728345  0.50018238  1
  V  V62  1  0.00169327  0.12477081  0.62927588  1
  V  V63  1  0.88124021  0.24844359  0.62531629  1
  V  V64  1  0.61914660  0.25515304  0.87033860  1
  V  V65  1  0.74922987  0.75189632  0.50099544  1
  V  V66  1  0.74951977  -0.00256301  0.74843107  1
  V  V67  1  0.24475893  0.37400755  0.62635668  1
  V  V68  1  0.74421943  0.00053281  0.24865445  1
  V  V69  1  0.62383597  0.49632055  0.63276225  1
  V  V70  1  0.38179148  0.88415491  0.01119667  1
  V  V71  1  0.37608294  0.12643998  0.73961080  1
  V  V72  1  0.61431306  0.00089818  0.62072648  1
  V  V73  1  0.12626069  0.62224306  0.50185638  1
  V  V74  1  0.87598887  0.87653402  0.49932168  1
  V  V75  1  0.37509622  0.38615189  -0.00649146  1
  V  V76  1  0.37268805  0.61529801  0.75307405  1
  V  V77  1  0.12497745  0.87512294  0.75082030  1
  V  V78  1  0.12462813  -0.00170758  0.62029007  1
  V  V79  1  0.24138162  0.12573912  0.36960741  1
  V  V80  1  0.37748932  0.36965015  0.50513010  1
  V  V81  1  0.50102848  0.62871055  0.63114843  1
  V  V82  1  0.00188665  0.24943972  0.25409039  1
  V  V83  1  0.00807849  0.37443674  0.37924368  1
  V  V84  1  0.74734313  0.12848319  0.87284715  1
  Zn  Zn85  1  0.11807804  0.52115705  0.11638542  1
  Zn  Zn86  1  0.50037355  0.51756610  0.00288977  1
  Zn  Zn87  1  0.24763513  0.38500787  0.12459196  1
  Zn  Zn88  1  0.74248021  0.37890670  0.14427030  1
  Zn  Zn89  1  0.11280846  0.00457211  0.11557927  1
  Zn  Zn90  1  0.24949415  0.48497647  0.76554284  1
  Zn  Zn91  1  0.12501531  0.74683846  0.37236151  1
  Zn  Zn92  1  0.62455861  0.62598239  0.50328740  1
  Zn  Zn93  1  0.00388162  0.88031878  0.88218127  1
  Zn  Zn94  1  0.74731319  0.25370503  0.00451704  1
  Zn  Zn95  1  0.49763098  0.12291795  0.11877451  1
  Zn  Zn96  1  0.00124753  0.50165942  0.50348137  1
  Zn  Zn97  1  0.12673810  0.38017634  0.24808929  1
  Zn  Zn98  1  0.62118270  0.87483682  0.24875612  1
  Zn  Zn99  1  0.75250246  0.61607824  0.89330769  1
  Zn  Zn100  1  0.49244396  0.12532589  0.61611706  1
  Zn  Zn101  1  0.91342745  0.58206104  0.81168585  1
  Zn  Zn102  1  0.12230156  0.49488649  0.63477624  1
  Zn  Zn103  1  0.61962110  0.87522312  0.74940307  1
  Zn  Zn104  1  0.87815211  0.12458716  0.75206489  1
  Zn  Zn105  1  0.24636748  0.50073377  0.24358937  1
  Zn  Zn106  1  0.75022214  0.88014827  0.12663005  1
  Zn  Zn107  1  0.15511347  0.22841229  0.15195648  1
  Zn  Zn108  1  0.19089757  0.18839113  0.68107653  1
  Zn  Zn109  1  0.21419302  0.69038113  0.18748726  1
  Zn  Zn110  1  0.18607791  0.68258023  0.69212537  1
  Zn  Zn111  1  0.69134941  0.18390586  0.17656349  1
  Zn  Zn112  1  0.68557583  0.18509423  0.68833947  1
  Zn  Zn113  1  0.68980853  0.68835995  0.19619416  1
  Zn  Zn114  1  0.68428941  0.69108044  0.68810268  1
  Zn  Zn115  1  0.31006513  0.31403839  0.31159287  1
  Zn  Zn116  1  0.31867571  0.30937894  0.80963094  1
  Zn  Zn117  1  0.31442406  0.81256919  0.30991083  1
  Zn  Zn118  1  0.31298240  0.81203396  0.81371328  1
  Zn  Zn119  1  0.83243459  0.31055547  0.31665058  1
  Zn  Zn120  1  0.76960785  0.36138600  0.85719907  1
  Zn  Zn121  1  0.81031293  0.81352473  0.31229606  1
  Zn  Zn122  1  0.83308852  0.77700510  0.83983555  1
  Zn  Zn123  1  0.19078149  0.44013617  0.44040567  1
  Zn  Zn124  1  0.17504948  0.43685760  0.94523024  1
  Zn  Zn125  1  0.18820441  0.93795268  0.42799793  1
  Zn  Zn126  1  0.19302702  0.93718908  0.93834209  1
  Zn  Zn127  1  0.69137343  0.44380835  0.44864060  1
  Zn  Zn128  1  0.67276357  0.43173029  0.98898419  1
  Zn  Zn129  1  0.68449447  0.94016714  0.43867579  1
  Zn  Zn130  1  0.69284055  0.93329424  0.93913770  1
  Zn  Zn131  1  0.30966413  0.06404700  0.06179672  1
  Zn  Zn132  1  0.31031766  0.06001818  0.55835079  1
  Zn  Zn133  1  0.30785422  0.56308317  0.05824433  1
  Zn  Zn134  1  0.31627093  0.55836896  0.56021911  1
  Zn  Zn135  1  0.80528577  0.06558960  0.05731499  1
  Zn  Zn136  1  0.81027917  0.06351054  0.56111772  1
  Zn  Zn137  1  0.81175719  0.55640319  0.07038667  1
  Zn  Zn138  1  0.81300962  0.56444802  0.56595693  1
  Zn  Zn139  1  0.44200385  0.43587357  0.18322698  1
  Zn  Zn140  1  0.43301642  0.43636248  0.68647015  1
  Zn  Zn141  1  0.44431923  0.93610210  0.19275855  1
  Zn  Zn142  1  0.43821120  0.93599198  0.69018737  1
  Zn  Zn143  1  0.93831296  0.44318556  0.19084149  1
  Zn  Zn144  1  0.93574340  0.44333278  0.68556292  1
  Zn  Zn145  1  0.94110747  0.93826018  0.18630773  1
  Zn  Zn146  1  0.93755809  0.93701378  0.68966217  1
  Zn  Zn147  1  0.04710227  0.04982454  0.27985928  1
  Zn  Zn148  1  0.06402761  0.06225008  0.81275239  1
  Zn  Zn149  1  0.06763467  0.55375417  0.31877575  1
  Zn  Zn150  1  0.08041849  0.55525390  0.82062035  1
  Zn  Zn151  1  0.56056860  0.06542031  0.31066009  1
  Zn  Zn152  1  0.56118511  0.06421869  0.80624205  1
  Zn  Zn153  1  0.56603339  0.55818645  0.30950423  1
  Zn  Zn154  1  0.56473456  0.56508408  0.81202221  1
  Zn  Zn155  1  0.43709734  0.19051379  0.43243323  1
  Zn  Zn156  1  0.43632043  0.18905971  0.93112385  1
  Zn  Zn157  1  0.43846146  0.68672558  0.44158880  1
  Zn  Zn158  1  0.43258084  0.69674486  0.93195415  1
  Zn  Zn159  1  0.93365795  0.18657265  0.43661153  1
  Zn  Zn160  1  0.93655264  0.18744202  0.93998852  1
  Zn  Zn161  1  0.93678936  0.68758616  0.44117384  1
  Zn  Zn162  1  0.93918642  0.68019046  0.95530815  1
  Zn  Zn163  1  0.04405153  0.36513081  0.07303911  1
  Zn  Zn164  1  0.06450696  0.30836019  0.56040482  1
  Zn  Zn165  1  0.06487076  0.82080222  0.05897713  1
  Zn  Zn166  1  0.06361145  0.81028726  0.56027357  1
  Zn  Zn167  1  0.55943715  0.31340238  0.06029903  1
  Zn  Zn168  1  0.56593164  0.31282560  0.56363494  1
  Zn  Zn169  1  0.56061869  0.67654634  0.06511066  1
  Zn  Zn170  1  0.56094042  0.81299119  0.56116255  1
  O  O171  1  0.13270220  0.13048154  0.09888665  1
  O  O172  1  0.11951798  0.11848736  0.61349446  1
  O  O173  1  0.11618168  0.64168059  0.14064478  1
  O  O174  1  0.11462647  0.62930567  0.61828383  1
  O  O175  1  0.62248313  0.11766494  0.11225041  1
  O  O176  1  0.62271341  0.11735501  0.61530104  1
  O  O177  1  0.62552681  0.61705321  0.13746308  1
  O  O178  1  0.61551308  0.62156768  0.62541473  1
  O  O179  1  0.38456317  0.37973299  0.38393250  1
  O  O180  1  0.38320709  0.37147579  0.88088267  1
  O  O181  1  0.38060047  0.88243774  0.37911900  1
  O  O182  1  0.38003139  0.88263776  0.87698678  1
  O  O183  1  0.87877818  0.38635486  0.38700071  1
  O  O184  1  0.88551232  0.36349551  0.84985796  1
  O  O185  1  0.88161633  0.87917819  0.37918091  1
  O  O186  1  0.87499745  0.87945983  0.88655042  1
  O  O187  1  0.26364852  0.00692386  0.36852350  1
  O  O188  1  0.25894853  0.00570395  0.86616345  1
  O  O189  1  0.26207472  0.50669214  0.37841346  1
  O  O190  1  0.24655175  0.51686305  0.88338200  1
  O  O191  1  0.75281501  0.00785785  0.36867860  1
  O  O192  1  0.75456273  0.00876042  0.86668403  1
  O  O193  1  0.76301821  0.50949280  0.38465953  1
  O  O194  1  0.74719114  0.50392340  0.85539619  1
  O  O195  1  0.23896494  0.50262940  0.12376150  1
  O  O196  1  0.25079639  0.48002724  0.61471985  1
  O  O197  1  0.24409440  1.00644689  0.13820707  1
  O  O198  1  0.24347675  0.99210057  0.62764774  1
  O  O199  1  0.73374260  0.49451194  0.12362192  1
  O  O200  1  0.74343382  0.49533897  0.63121413  1
  O  O201  1  0.73955133  1.00403514  0.13365002  1
  O  O202  1  0.74311833  0.99698713  0.62962149  1
  O  O203  1  -0.00134580  0.36596061  0.26311425  1
  O  O204  1  0.00230169  0.36968505  0.74236915  1
  O  O205  1  0.00968047  0.87473501  0.26088691  1
  O  O206  1  0.01153451  0.87094584  0.75127700  1
  O  O207  1  0.49636457  0.36071959  0.25722537  1
  O  O208  1  0.48985587  0.36123485  0.75341418  1
  O  O209  1  0.50072060  0.86580805  0.26457734  1
  O  O210  1  0.50115672  0.87909804  0.76622637  1
  O  O211  1  0.48863972  0.13705852  0.25263707  1
  O  O212  1  0.49073048  0.13262248  0.74354746  1
  O  O213  1  0.49631252  0.63883527  0.26656092  1
  O  O214  1  0.49053077  0.62004014  0.73893704  1
  O  O215  1  0.98003273  0.14252972  0.26939260  1
  O  O216  1  1.00009941  0.11526221  0.73192535  1
  O  O217  1  0.99572448  0.63292172  0.25807360  1
  O  O218  1  1.00051911  0.63575042  0.74391553  1
  O  O219  1  0.36760369  0.25320574  0.00138325  1
  O  O220  1  0.36786584  0.25660553  0.49586960  1
  O  O221  1  0.37429994  0.76512901  0.01216575  1
  O  O222  1  0.36530614  0.75418024  0.50921464  1
  O  O223  1  0.87812950  0.24494806  0.01925121  1
  O  O224  1  0.86726598  0.25611044  0.51013487  1
  O  O225  1  0.86947499  0.75819111  0.01771745  1
  O  O226  1  0.86901641  0.75853368  0.50694500  1
  O  O227  1  0.13086398  0.23439561  0.49632571  1
  O  O228  1  0.14166790  0.23599824  0.98056949  1
  O  O229  1  0.13892101  0.74213715  0.50031990  1
  O  O230  1  0.13804431  0.76279160  0.99348619  1
  O  O231  1  0.63442853  0.24038989  0.50697524  1
  O  O232  1  0.62176722  0.23942396  0.98752573  1
  O  O233  1  0.63136882  0.74786865  0.49409926  1
  O  O234  1  0.63436524  0.74960505  1.00271686  1
  O  O235  1  0.48948165  0.24744715  0.12996708  1
  O  O236  1  0.50216872  0.24844563  0.63619984  1
  O  O237  1  0.48942719  0.74705781  0.13508987  1
  O  O238  1  0.49026551  0.74096002  0.61980899  1
  O  O239  1  0.98525680  0.26039242  0.14233118  1
  O  O240  1  0.99249762  0.23712681  0.61382109  1
  O  O241  1  0.99413549  0.75267759  0.12876856  1
  O  O242  1  0.99790270  0.74668757  0.63329455  1
  O  O243  1  -0.01972382  0.26403905  0.36541196  1
  O  O244  1  0.00928700  0.24998494  0.86974380  1
  O  O245  1  0.00223697  0.76262179  0.38320650  1
  O  O246  1  0.00975927  0.75405064  0.87074125  1
  O  O247  1  0.50142646  0.26231955  0.36684559  1
  O  O248  1  0.50317262  0.25303896  0.86109472  1
  O  O249  1  0.50347724  0.75671490  0.37361032  1
  O  O250  1  0.51654806  0.76017609  0.88056248  1
  O  O251  1  0.24398406  0.12942362  0.49218996  1
  O  O252  1  0.25541439  0.13077066  0.98219269  1
  O  O253  1  0.24607363  0.63093566  0.49653311  1
  O  O254  1  0.26304866  0.64567701  0.99006620  1
  O  O255  1  0.74364096  0.13264827  0.49216316  1
  O  O256  1  0.73848637  0.13211747  0.98787751  1
  O  O257  1  0.75163314  0.63342679  0.49192708  1
  O  O258  1  0.75702043  0.64390600  1.00723414  1
  O  O259  1  0.25751835  0.36588072  -0.00356301  1
  O  O260  1  0.25833171  0.36512960  0.49993517  1
  O  O261  1  0.26741561  0.86666574  -0.00732339  1
  O  O262  1  0.25438269  0.86671557  0.50236579  1
  O  O263  1  0.75072168  0.36108390  -0.03259739  1
  O  O264  1  0.76035937  0.37136916  0.51126810  1
  O  O265  1  0.75971945  0.86359340  0.00660084  1
  O  O266  1  0.75523511  0.87161050  0.50467350  1
  O  O267  1  0.12534429  0.49817119  0.24199238  1
  O  O268  1  0.14158267  0.50669552  0.74473377  1
  O  O269  1  0.14236950  0.98922794  0.26371326  1
  O  O270  1  0.13164158  0.99433953  0.74278852  1
  O  O271  1  0.61932792  0.49362405  0.23536664  1
  O  O272  1  0.63569080  0.50684648  0.73806957  1
  O  O273  1  0.63068795  1.00416150  0.24066451  1
  O  O274  1  0.63165115  1.00089981  0.73865713  1
  O  O275  1  0.37147926  0.00605465  0.25444587  1
  O  O276  1  0.36866003  0.00490764  0.75543764  1
  O  O277  1  0.37714517  0.49283658  0.26317456  1
  O  O278  1  0.36531110  0.51117076  0.74408575  1
  O  O279  1  0.86374938  0.00857669  0.25551426  1
  O  O280  1  0.86582187  0.00072840  0.75594728  1
  O  O281  1  0.87958446  0.51186278  0.26242445  1
  O  O282  1  0.85967025  0.50896681  0.73973811  1
  O  O283  1  0.11012550  0.38054907  0.38112918  1
  O  O284  1  0.13912632  0.35741545  0.86712899  1
  O  O285  1  0.11839836  0.86810421  0.36644768  1
  O  O286  1  0.12569065  0.86916230  0.86874189  1
  O  O287  1  0.61953475  0.37691442  0.38235812  1
  O  O288  1  0.61387159  0.35781557  0.87170598  1
  O  O289  1  0.61585884  0.87155932  0.37572843  1
  O  O290  1  0.61726919  0.87115046  0.87760210  1
  O  O291  1  0.37821438  0.12945787  0.13151512  1
  O  O292  1  0.37401221  0.11632652  0.63493689  1
  O  O293  1  0.37004978  0.63662096  0.12773176  1
  O  O294  1  0.37950655  0.63107480  0.63052236  1
  O  O295  1  0.86639288  0.13149558  0.13422480  1
  O  O296  1  0.88297798  0.13192256  0.62283231  1
  O  O297  1  0.86941024  0.63257570  0.14300841  1
  O  O298  1  0.88987425  0.63624094  0.61735228  1
  O  O299  1  0.26442177  0.24399392  0.10852469  1
  O  O300  1  0.24648217  0.25813030  0.60779095  1
  O  O301  1  0.26868066  0.75639833  0.11693738  1
  O  O302  1  0.25603147  0.75372115  0.61856558  1
  O  O303  1  0.76069595  0.25748354  0.12337605  1
  O  O304  1  0.75770386  0.25758910  0.62698816  1
  O  O305  1  0.75359670  0.75617416  0.12297380  1
  O  O306  1  0.75422671  0.75778344  0.62183779  1
  O  O307  1  0.25619071  0.23830150  0.38422357  1
  O  O308  1  0.24730371  0.24053032  0.87298357  1
  O  O309  1  0.25348417  0.74226486  0.38383020  1
  O  O310  1  0.24498382  0.74889916  0.88281347  1
  O  O311  1  0.74267485  0.24720230  0.37730994  1
  O  O312  1  0.73535726  0.23494221  0.85976884  1
  O  O313  1  0.74302636  0.74546576  0.38095772  1
  O  O314  1  0.73316164  0.75702992  0.89410903  1
  O  O315  1  0.01542338  0.12342854  -0.00791290  1
  O  O316  1  0.00698621  0.11910759  0.49957909  1
  O  O317  1  0.00198027  0.60979715  0.01136175  1
  O  O318  1  0.01125507  0.62847390  0.50731223  1
  O  O319  1  0.50972464  0.12564268  -0.00384250  1
  O  O320  1  0.51241264  0.13215755  0.49738718  1
  O  O321  1  0.48597110  0.62961973  -0.00016574  1
  O  O322  1  0.49930339  0.61699028  0.51385202  1
  O  O323  1  0.49555815  0.37652226  0.49423930  1
  O  O324  1  0.48857458  0.36975023  0.98517549  1
  O  O325  1  0.49183189  0.87012293  0.48672880  1
  O  O326  1  0.48161761  0.88172956  0.98457118  1
  O  O327  1  0.98831119  0.37391168  0.49812742  1
  O  O328  1  1.00615498  0.39907324  0.97533164  1
  O  O329  1  0.99700330  0.88158411  0.49290587  1
  O  O330  1  0.98514157  0.87775308  1.00103581  1
  O  O331  1  0.49758163  0.48905589  0.37993764  1
  O  O332  1  0.50914755  0.48502236  0.87211109  1
  O  O333  1  0.48797287  0.99355313  0.36826444  1
  O  O334  1  0.48744497  0.99860491  0.86978598  1
  O  O335  1  0.98864343  0.49371668  0.38290034  1
  O  O336  1  0.98906369  0.52403307  0.87588172  1
  O  O337  1  0.99166414  0.99129772  0.37561825  1
  O  O338  1  0.98293817  0.99968968  0.86694737  1
  O  O339  1  0.01453993  0.01883880  0.16998539  1
  O  O340  1  0.00515416  0.00468202  0.61346615  1
  O  O341  1  0.01005017  0.47364980  0.11291519  1
  O  O342  1  0.00296493  0.51217309  0.62249721  1
  O  O343  1  0.51561535  0.00522171  0.13146407  1
  O  O344  1  0.51113214  0.00098786  0.62691965  1
  O  O345  1  0.51354972  0.49488683  0.12142735  1
  O  O346  1  0.50718858  0.50366548  0.62364558  1
  O  O347  1  0.24633252  0.37902268  0.24777646  1
  O  O348  1  0.26131670  0.36944790  0.72899379  1
  O  O349  1  0.24192492  0.88312981  0.25557546  1
  O  O350  1  0.24390192  0.87776517  0.74251716  1
  O  O351  1  0.73969528  0.36137642  0.26484359  1
  O  O352  1  0.74962920  0.38855990  0.74447043  1
  O  O353  1  0.74587271  0.89036772  0.25221056  1
  O  O354  1  0.74532516  0.89001368  0.74189739  1
  O  O355  1  0.26425383  0.11794234  0.25716741  1
  O  O356  1  0.25647460  0.12055328  0.75456850  1
  O  O357  1  0.25247133  0.62265927  0.26870855  1
  O  O358  1  0.25942996  0.62978447  0.76101025  1
  O  O359  1  0.75336096  0.11845906  0.25617666  1
  O  O360  1  0.75283545  0.11354790  0.75281009  1
  O  O361  1  0.76048363  0.63029108  0.26841165  1
  O  O362  1  0.74905995  0.61841177  0.74888897  1
  O  O363  1  0.37078367  0.11794921  0.36856269  1
  O  O364  1  0.36946924  0.11733893  0.86359269  1
  O  O365  1  0.36870211  0.61256408  0.38732112  1
  O  O366  1  0.36653137  0.63643287  0.86047661  1
  O  O367  1  0.85815319  0.12232802  0.37157066  1
  O  O368  1  0.86598757  0.11933998  0.87405870  1
  O  O369  1  0.87104889  0.62142204  0.37088975  1
  O  O370  1  0.86170761  0.66217939  0.87205881  1
  O  O371  1  0.13591031  0.34154570  0.13211483  1
  O  O372  1  0.14072744  0.37469411  0.61415573  1
  O  O373  1  0.11941862  0.88247053  0.13913228  1
  O  O374  1  0.13020461  0.87968671  0.62829340  1
  O  O375  1  0.63306202  0.38585444  0.10450863  1
  O  O376  1  0.63671691  0.38401888  0.62211955  1
  O  O377  1  0.62775950  0.89314700  0.12835000  1
  O  O378  1  0.62919457  0.88310346  0.62390789  1
  O  O379  1  0.10232873  0.24126724  0.25681597  1
  O  O380  1  0.12788457  0.23881448  0.76196496  1
  O  O381  1  0.12115774  0.75274069  0.24745237  1
  O  O382  1  0.11721996  0.75671165  0.75610594  1
  O  O383  1  0.61692744  0.24408771  0.24745948  1
  O  O384  1  0.60709371  0.24021108  0.75478668  1
  O  O385  1  0.61617046  0.75373683  0.25945276  1
  O  O386  1  0.63131769  0.75687771  0.76657153  1
  O  O387  1  0.37918335  0.24373192  0.24042919  1
  O  O388  1  0.38753532  0.23803825  0.75005452  1
  O  O389  1  0.38094780  0.75731303  0.23383520  1
  O  O390  1  0.37087154  0.74488483  0.73657035  1
  O  O391  1  0.87609111  0.24173556  0.23924982  1
  O  O392  1  0.88809407  0.24585350  0.73812549  1
  O  O393  1  0.87123055  0.74666356  0.24013152  1
  O  O394  1  0.89346890  0.76404127  0.74278317  1
  O  O395  1  0.38500915  0.48990792  0.49317942  1
  O  O396  1  0.37903130  0.48783163  1.00421672  1
  O  O397  1  0.37102462  0.99169484  0.48976514  1
  O  O398  1  0.36625520  0.99126307  0.99043759  1
  O  O399  1  0.87672191  0.49275083  0.49826564  1
  O  O400  1  0.88603122  0.50654888  1.00246504  1
  O  O401  1  0.87910764  0.99582545  0.49232998  1
  O  O402  1  0.86327995  0.99220308  0.99015848  1
  O  O403  1  0.13254118  0.01450623  -0.00176993  1
  O  O404  1  0.12285808  0.00822060  0.49967262  1
  O  O405  1  0.11108973  0.50652941  0.00040836  1
  O  O406  1  0.12502978  0.51373989  0.50446901  1
  O  O407  1  0.63235225  0.00556476  0.01148493  1
  O  O408  1  0.63100983  0.01248175  0.50978605  1
  O  O409  1  0.61621146  0.51993644  0.01369880  1
  O  O410  1  0.61935649  0.50458751  0.51447111  1
  O  O411  1  0.37278667  0.36585006  0.11405776  1
  O  O412  1  0.36821729  0.37600594  0.60959467  1
  O  O413  1  0.38340233  0.88151769  0.11216071  1
  O  O414  1  0.37146169  0.86816452  0.62090705  1
  O  O415  1  0.86545239  0.36651779  0.13417764  1
  O  O416  1  0.86902723  0.36829383  0.62140327  1
  O  O417  1  0.87289977  0.87094055  0.12412594  1
  O  O418  1  0.86944217  0.87254639  0.61769655  1
  O  O419  1  0.13895987  0.11538608  0.37774937  1
  O  O420  1  0.13418914  0.12653470  0.87828048  1
  O  O421  1  0.13401811  0.62739819  0.38570775  1
  O  O422  1  0.13831512  0.64391004  0.87231754  1
  O  O423  1  0.63566485  0.11874270  0.38202849  1
  O  O424  1  0.62863887  0.12598136  0.87862392  1
  O  O425  1  0.63396175  0.62787769  0.37878396  1
  O  O426  1  0.62976755  0.64050013  0.87228680  1
