# generated using pymatgen
data_V85Zn86O256
_symmetry_space_group_name_H-M   'P 1'
_cell_length_a   16.90962177
_cell_length_b   16.92197239
_cell_length_c   16.92002214
_cell_angle_alpha   89.99663391
_cell_angle_beta   89.98207064
_cell_angle_gamma   90.02843375
_symmetry_Int_Tables_number   1
_chemical_formula_structural   V85Zn86O256
_chemical_formula_sum   'V85 Zn86 O256'
_cell_volume   4841.56455969
_cell_formula_units_Z   1
loop_
 _symmetry_equiv_pos_site_id
 _symmetry_equiv_pos_as_xyz
  1  'x, y, z'
loop_
 _atom_site_type_symbol
 _atom_site_label
 _atom_site_symmetry_multiplicity
 _atom_site_fract_x
 _atom_site_fract_y
 _atom_site_fract_z
 _atom_site_occupancy
  V  V0  1  0.00070571  0.62676541  0.62489002  1
  V  V1  1  0.24843176  0.00258376  0.75646970  1
  V  V2  1  0.74748481  0.49986843  0.75478366  1
  V  V3  1  0.13752837  0.12800834  0.49897820  1
  V  V4  1  0.74922744  0.36851867  0.12153133  1
  V  V5  1  0.62372467  0.74626084  0.37482545  1
  V  V6  1  0.25482501  0.24607633  -0.00525534  1
  V  V7  1  0.00445207  0.62473747  0.12066048  1
  V  V8  1  0.11790032  0.75021936  0.88326622  1
  V  V9  1  0.12660314  0.37516454  0.24641812  1
  V  V10  1  0.51248093  0.86805324  0.87256089  1
  V  V11  1  0.75367200  0.12269599  0.38737986  1
  V  V12  1  0.75768884  0.87962167  0.12144067  1
  V  V13  1  0.37556362  0.23636790  0.12720236  1
  V  V14  1  0.51520244  0.00309961  0.50670620  1
  V  V15  1  0.12910316  0.62218160  0.49687595  1
  V  V16  1  0.73859718  0.87233655  0.63199627  1
  V  V17  1  0.25616281  0.12655751  0.36345000  1
  V  V18  1  0.12866105  0.50194359  0.11909026  1
  V  V19  1  0.12645416  -0.00113150  0.62499686  1
  V  V20  1  0.68924143  0.68080890  0.83353671  1
  V  V21  1  0.00158837  0.75081006  0.24801326  1
  V  V22  1  0.36762618  0.87505821  0.00316341  1
  V  V23  1  0.00193639  0.24548118  0.24364748  1
  V  V24  1  0.49660602  0.24931543  0.75116542  1
  V  V25  1  0.11402667  0.12920649  -0.00012602  1
  V  V26  1  0.87252679  0.50109274  0.87575749  1
  V  V27  1  0.50129125  0.62358579  0.62073015  1
  V  V28  1  0.13079743  0.74710134  0.37364477  1
  V  V29  1  0.24830998  0.36367058  0.62626075  1
  V  V30  1  0.37691654  0.00343212  0.37072999  1
  V  V31  1  0.37619432  0.87706280  0.50068330  1
  V  V32  1  0.13451133  0.87720299  0.24392054  1
  V  V33  1  -0.00270270  0.87841910  0.37080525  1
  V  V34  1  0.37066455  0.62938936  0.25705841  1
  V  V35  1  0.12646555  0.49561186  0.63358689  1
  V  V36  1  0.74929807  0.37296155  0.62019621  1
  V  V37  1  0.00078835  0.00261665  0.49139971  1
  V  V38  1  0.13057217  0.25181232  0.37679295  1
  V  V39  1  0.74806628  0.62384361  0.38367123  1
  V  V40  1  0.37432873  0.12267976  0.75057980  1
  V  V41  1  0.24663855  0.62763906  0.88556232  1
  V  V42  1  0.12810013  0.24963348  0.86839834  1
  V  V43  1  0.24994621  0.87538582  0.62616941  1
  V  V44  1  0.62893428  0.12831221  0.01033338  1
  V  V45  1  0.69046264  0.04551091  0.69538954  1
  V  V46  1  0.00036265  0.50111504  -0.00027031  1
  V  V47  1  0.87420656  0.36952426  0.49582252  1
  V  V48  1  0.75323774  0.75109810  0.00200734  1
  V  V49  1  0.37171922  0.62533314  0.75360956  1
  V  V50  1  0.87064303  0.37026509  -0.00216245  1
  V  V51  1  0.62869845  0.24385105  0.39055863  1
  V  V52  1  0.36625086  0.50060451  0.37741758  1
  V  V53  1  0.49930136  0.63096324  0.13309238  1
  V  V54  1  0.87841379  0.12241594  0.75124662  1
  V  V55  1  0.37216378  0.75483931  0.13016274  1
  V  V56  1  0.11663621  0.87461368  0.75510583  1
  V  V57  1  0.87664767  0.24333036  0.12160811  1
  V  V58  1  0.25000557  0.74820414  0.49954777  1
  V  V59  1  0.74990425  0.12741803  0.88144287  1
  V  V60  1  0.87446313  0.62832322  0.75370541  1
  V  V61  1  0.49804305  0.23659628  0.25306387  1
  V  V62  1  0.62285982  0.49867367  0.12653228  1
  V  V63  1  0.00416885  0.37542019  0.86633039  1
  V  V64  1  0.37073339  0.49551868  0.88323275  1
  V  V65  1  0.87514399  0.87495942  0.49850142  1
  V  V66  1  -0.00534936  -0.01183484  0.00280000  1
  V  V67  1  0.49390261  0.37263384  0.88623637  1
  V  V68  1  0.26229972  0.37438588  0.12076070  1
  V  V69  1  0.62284055  0.87392981  0.24161685  1
  V  V70  1  0.50349741  0.50006110  0.49717460  1
  V  V71  1  0.50724468  -0.00213739  0.00609216  1
  V  V72  1  0.37615661  0.75043548  0.63008324  1
  V  V73  1  0.62327425  0.36861471  0.25260900  1
  V  V74  1  0.50214323  0.87044118  0.37218731  1
  V  V75  1  0.12895202  0.00319358  0.12262024  1
  V  V76  1  0.62573097  0.62851730  0.00323472  1
  V  V77  1  0.74498758  0.00296175  0.24790639  1
  V  V78  1  0.87751936  0.11889834  0.25181850  1
  V  V79  1  0.74955909  0.49874986  0.25026175  1
  V  V80  1  0.61970445  0.37923688  0.75192455  1
  V  V81  1  0.37301522  0.00031372  0.87817168  1
  V  V82  1  0.87360423  0.62529298  0.24791984  1
  V  V83  1  0.00115212  0.12702806  0.62278794  1
  V  V84  1  0.87805438  -0.00939112  0.87514862  1
  Zn  Zn85  1  0.00151051  0.25483841  0.74565320  1
  Zn  Zn86  1  0.24851444  0.50326172  0.25374693  1
  Zn  Zn87  1  0.49669232  0.37058083  0.37863195  1
  Zn  Zn88  1  0.51106713  0.12047879  0.62623199  1
  Zn  Zn89  1  0.49486153  0.49787820  0.00563552  1
  Zn  Zn90  1  0.24536778  0.49515462  0.75392732  1
  Zn  Zn91  1  0.50122236  0.11520537  0.13179555  1
  Zn  Zn92  1  0.63116260  0.25373629  0.88215830  1
  Zn  Zn93  1  0.87681967  0.75259655  0.62396426  1
  Zn  Zn94  1  0.00162286  0.37708051  0.37426916  1
  Zn  Zn95  1  0.87814864  0.49916525  0.37483188  1
  Zn  Zn96  1  -0.00270522  0.75530703  0.75316908  1
  Zn  Zn97  1  0.26108401  0.00033715  0.23795128  1
  Zn  Zn98  1  0.24591564  0.75249298  0.00608374  1
  Zn  Zn99  1  0.51494718  0.75114574  0.75286749  1
  Zn  Zn100  1  0.00043669  0.49899779  0.49636418  1
  Zn  Zn101  1  0.36961954  0.36585288  0.49748600  1
  Zn  Zn102  1  0.37300128  0.24324103  0.61823077  1
  Zn  Zn103  1  0.87906822  0.75505465  0.11971384  1
  Zn  Zn104  1  0.75035693  0.75179992  0.49593522  1
  Zn  Zn105  1  0.87176750  0.24592428  0.62012043  1
  Zn  Zn106  1  0.62531280  0.50198219  0.61736079  1
  Zn  Zn107  1  0.18702067  0.18555673  0.18268855  1
  Zn  Zn108  1  0.18720956  0.18450060  0.69131832  1
  Zn  Zn109  1  0.19073373  0.68651691  0.18688544  1
  Zn  Zn110  1  0.18671566  0.68692923  0.69103861  1
  Zn  Zn111  1  0.68967558  0.18786727  0.18980611  1
  Zn  Zn112  1  0.68838987  0.20636915  0.69389950  1
  Zn  Zn113  1  0.68793116  0.69189553  0.18936632  1
  Zn  Zn114  1  0.68830199  0.68699361  0.66733619  1
  Zn  Zn115  1  0.31361457  0.31326487  0.31077227  1
  Zn  Zn116  1  0.30960185  0.31425227  0.80769706  1
  Zn  Zn117  1  0.31420989  0.81264864  0.31241981  1
  Zn  Zn118  1  0.31016072  0.81545872  0.81630050  1
  Zn  Zn119  1  0.81054482  0.30712610  0.31301887  1
  Zn  Zn120  1  0.81450397  0.31001080  0.80950457  1
  Zn  Zn121  1  0.81294504  0.81225722  0.30974041  1
  Zn  Zn122  1  0.81427424  0.81792883  0.80862005  1
  Zn  Zn123  1  0.18839143  0.43635720  0.44250624  1
  Zn  Zn124  1  0.18830733  0.43336375  0.93956841  1
  Zn  Zn125  1  0.18861020  0.93824829  0.43334046  1
  Zn  Zn126  1  0.18447992  0.93772042  0.93775545  1
  Zn  Zn127  1  0.68720341  0.43645746  0.43623654  1
  Zn  Zn128  1  0.68465351  0.44072839  0.93860758  1
  Zn  Zn129  1  0.69143035  0.93686371  0.43227601  1
  Zn  Zn130  1  0.69164299  0.94171035  0.93811223  1
  Zn  Zn131  1  0.30820192  0.06528834  0.05673128  1
  Zn  Zn132  1  0.31799205  0.06164203  0.56207609  1
  Zn  Zn133  1  0.31376553  0.56541076  0.06515068  1
  Zn  Zn134  1  0.31120528  0.55853560  0.56219136  1
  Zn  Zn135  1  0.81235093  0.06160563  0.06328604  1
  Zn  Zn136  1  0.82038084  0.05638749  0.55874945  1
  Zn  Zn137  1  0.81071186  0.56284324  0.06270727  1
  Zn  Zn138  1  0.81645020  0.55601277  0.56392953  1
  Zn  Zn139  1  0.43912883  0.43752863  0.19369100  1
  Zn  Zn140  1  0.43007360  0.43798825  0.68827520  1
  Zn  Zn141  1  0.43924470  0.93433497  0.18812177  1
  Zn  Zn142  1  0.44346179  0.93560250  0.69056239  1
  Zn  Zn143  1  0.93837524  0.43637807  0.18790547  1
  Zn  Zn144  1  0.93538863  0.44136666  0.68306646  1
  Zn  Zn145  1  0.94045220  0.94148405  0.18498525  1
  Zn  Zn146  1  0.93433549  0.94124869  0.68389696  1
  Zn  Zn147  1  0.06629396  0.06434094  0.30903071  1
  Zn  Zn148  1  0.06111107  0.06491625  0.81726108  1
  Zn  Zn149  1  0.06267464  0.56123874  0.31106874  1
  Zn  Zn150  1  0.06089532  0.56712070  0.81409004  1
  Zn  Zn151  1  0.56753856  0.05912029  0.31927875  1
  Zn  Zn152  1  0.55771787  0.06423828  0.82452981  1
  Zn  Zn153  1  0.55971265  0.56179986  0.31403821  1
  Zn  Zn154  1  0.55022591  0.55779457  0.80998475  1
  Zn  Zn155  1  0.44063626  0.18450994  0.44194628  1
  Zn  Zn156  1  0.43792218  0.18434611  0.93923247  1
  Zn  Zn157  1  0.43806257  0.68757412  0.43827400  1
  Zn  Zn158  1  0.43870038  0.68871078  0.94243277  1
  Zn  Zn159  1  0.94057352  0.19166137  0.43343171  1
  Zn  Zn160  1  0.93954847  0.18763887  0.93600757  1
  Zn  Zn161  1  0.94035670  0.68821854  0.43492467  1
  Zn  Zn162  1  0.93583376  0.68820499  0.93781789  1
  Zn  Zn163  1  0.06185167  0.31498489  0.05928848  1
  Zn  Zn164  1  0.06381466  0.31350837  0.56048761  1
  Zn  Zn165  1  0.06299865  0.81549804  0.06360505  1
  Zn  Zn166  1  0.06178266  0.81185608  0.56217411  1
  Zn  Zn167  1  0.56030994  0.30636061  0.06539844  1
  Zn  Zn168  1  0.55550808  0.31574623  0.56558253  1
  Zn  Zn169  1  0.56182176  0.81074256  0.06094951  1
  Zn  Zn170  1  0.56201143  0.80929786  0.55686470  1
  O  O171  1  0.12438105  0.11732597  0.11485094  1
  O  O172  1  0.12112183  0.11987482  0.61698427  1
  O  O173  1  0.11719626  0.61504455  0.13045241  1
  O  O174  1  0.11849162  0.62098096  0.61943329  1
  O  O175  1  0.62540373  0.12728428  0.11401413  1
  O  O176  1  0.63471231  0.11463458  0.64293928  1
  O  O177  1  0.61817613  0.62174318  0.12351393  1
  O  O178  1  0.60754254  0.61992193  0.62683365  1
  O  O179  1  0.37688730  0.38474156  0.37466642  1
  O  O180  1  0.38116374  0.38353543  0.86969444  1
  O  O181  1  0.38385656  0.87864798  0.38069396  1
  O  O182  1  0.38162813  0.88392385  0.88192481  1
  O  O183  1  0.87344650  0.37333451  0.38402920  1
  O  O184  1  0.87841591  0.37889890  0.88158471  1
  O  O185  1  0.88993049  0.87102750  0.37774047  1
  O  O186  1  0.87441862  0.89148295  0.87215929  1
  O  O187  1  0.25930720  0.00790225  0.37318860  1
  O  O188  1  0.25832898  -0.00481285  0.86768163  1
  O  O189  1  0.26144932  0.49825688  0.37562529  1
  O  O190  1  0.25218813  0.50646799  0.87476705  1
  O  O191  1  0.74926367  0.01464881  0.36575429  1
  O  O192  1  0.76800202  0.01095119  0.88278925  1
  O  O193  1  0.75048016  0.50723576  0.36704218  1
  O  O194  1  0.75478597  0.49529993  0.86274058  1
  O  O195  1  0.24479022  0.49203128  0.12383871  1
  O  O196  1  0.24109178  0.49559906  0.63011002  1
  O  O197  1  0.23646999  1.00302812  0.12223737  1
  O  O198  1  0.24531300  0.99439012  0.63154730  1
  O  O199  1  0.74476080  0.48810457  0.13053674  1
  O  O200  1  0.74692916  0.49350601  0.63688952  1
  O  O201  1  0.75254417  0.99387211  0.13556209  1
  O  O202  1  0.74786162  0.99156181  0.62537089  1
  O  O203  1  0.01217994  0.36813466  0.24904478  1
  O  O204  1  -0.00993663  0.37563219  0.76200680  1
  O  O205  1  0.00728302  0.87174065  0.25481943  1
  O  O206  1  0.01298390  0.87744669  0.74282977  1
  O  O207  1  0.51266602  0.36571318  0.25218231  1
  O  O208  1  0.50364956  0.37037718  0.75629736  1
  O  O209  1  0.51124838  0.88043521  0.25990374  1
  O  O210  1  0.49917087  0.87055920  0.76647649  1
  O  O211  1  0.50790927  0.13206132  0.25029168  1
  O  O212  1  0.49417325  0.13118633  0.75149926  1
  O  O213  1  0.49093149  0.62106567  0.23942082  1
  O  O214  1  0.48628246  0.63015283  0.74524181  1
  O  O215  1  0.99184547  0.13402743  0.25485312  1
  O  O216  1  0.99445613  0.12469972  0.74009678  1
  O  O217  1  0.99416610  0.62886901  0.24034944  1
  O  O218  1  0.99045602  0.62686289  0.74223897  1
  O  O219  1  0.36681140  0.24358172  0.00926134  1
  O  O220  1  0.38147018  0.25175592  0.50575889  1
  O  O221  1  0.37327529  0.75934162  0.00827410  1
  O  O222  1  0.37103537  0.75472861  0.51132879  1
  O  O223  1  0.88090346  0.25812742  0.00855340  1
  O  O224  1  0.87815110  0.26351993  0.50103617  1
  O  O225  1  0.85935304  0.74406463  0.00138287  1
  O  O226  1  0.87816536  0.76355810  0.49877468  1
  O  O227  1  0.12039132  0.24027863  0.48836997  1
  O  O228  1  0.12765780  0.24454184  0.99361620  1
  O  O229  1  0.12858817  0.74466101  0.49207726  1
  O  O230  1  0.12676554  0.75580556  0.98765560  1
  O  O231  1  0.62036354  0.25333827  0.48872393  1
  O  O232  1  0.62033310  0.23408847  0.99791916  1
  O  O233  1  0.62974775  0.75336189  0.48196826  1
  O  O234  1  0.63324649  0.73705235  1.00304806  1
  O  O235  1  0.49160164  0.24479127  0.13403065  1
  O  O236  1  0.50302104  0.24440045  0.64094396  1
  O  O237  1  0.48880328  0.74117078  0.12169836  1
  O  O238  1  0.49331514  0.74406825  0.62817132  1
  O  O239  1  0.99240213  0.25598112  0.13504945  1
  O  O240  1  1.00101757  0.23736265  0.62467795  1
  O  O241  1  1.00070119  0.74221994  0.12869635  1
  O  O242  1  0.99989565  0.73842753  0.62762906  1
  O  O243  1  0.01341489  0.25291130  0.36271967  1
  O  O244  1  0.00704937  0.25941841  0.87303878  1
  O  O245  1  0.01173486  0.75676561  0.36821169  1
  O  O246  1  0.01329992  0.74583079  0.87355531  1
  O  O247  1  0.51292762  0.24697901  0.36947725  1
  O  O248  1  0.49741625  0.25638289  0.86668127  1
  O  O249  1  0.50596072  0.76215858  0.37959006  1
  O  O250  1  0.49713530  0.76350262  0.87569072  1
  O  O251  1  0.24030122  0.11843156  0.49354224  1
  O  O252  1  0.23722029  0.13958918  1.00216201  1
  O  O253  1  0.23692530  0.63208588  0.50669546  1
  O  O254  1  0.25250777  0.62830197  0.98884653  1
  O  O255  1  0.75801441  0.11960471  0.48655268  1
  O  O256  1  0.73871059  0.12237299  0.99605260  1
  O  O257  1  0.75855381  0.62392352  0.48668898  1
  O  O258  1  0.73893617  0.63232598  1.00451807  1
  O  O259  1  0.24417950  0.36040780  0.01141175  1
  O  O260  1  0.25198369  0.38121727  0.51946330  1
  O  O261  1  0.26390309  0.87587183  -0.00397219  1
  O  O262  1  0.25525071  0.87012108  0.50558634  1
  O  O263  1  0.76078353  0.37905388  0.00622999  1
  O  O264  1  0.76062928  0.38198325  0.50776219  1
  O  O265  1  0.74167147  0.86718632  0.01124738  1
  O  O266  1  0.76128790  0.87892297  0.50397842  1
  O  O267  1  0.12744373  0.49204653  0.23946904  1
  O  O268  1  0.12355598  0.50730864  0.73730741  1
  O  O269  1  0.12413930  0.99382127  0.23856846  1
  O  O270  1  0.13100138  0.99584780  0.74919186  1
  O  O271  1  0.62847379  0.48929932  0.24619141  1
  O  O272  1  0.62775798  0.49169470  0.75067848  1
  O  O273  1  0.63593272  0.99097774  0.25418632  1
  O  O274  1  0.62826260  0.99773675  0.75568640  1
  O  O275  1  0.37664923  -0.00636121  0.26479258  1
  O  O276  1  0.36919353  0.00188695  0.75745909  1
  O  O277  1  0.37388539  0.50749188  0.25989972  1
  O  O278  1  0.37301586  0.51023854  0.76306689  1
  O  O279  1  0.87130299  0.01418440  0.24586789  1
  O  O280  1  0.88245593  0.01019726  0.76294928  1
  O  O281  1  0.86841332  0.50612404  0.24994760  1
  O  O282  1  0.86486002  0.50780122  0.75282327  1
  O  O283  1  0.12875548  0.36808615  0.36667792  1
  O  O284  1  0.11370461  0.36651815  0.88090325  1
  O  O285  1  0.11617502  0.86910067  0.36865979  1
  O  O286  1  0.12923697  0.86245376  0.86748415  1
  O  O287  1  0.62671801  0.36085993  0.36832302  1
  O  O288  1  0.61531488  0.37557050  0.86976220  1
  O  O289  1  0.62007606  0.86978072  0.36626320  1
  O  O290  1  0.61092608  0.87807746  0.88258347  1
  O  O291  1  0.37549076  0.13281512  0.12618567  1
  O  O292  1  0.37908720  0.12169108  0.63962850  1
  O  O293  1  0.38255040  0.63102416  0.13225814  1
  O  O294  1  0.37890301  0.63121429  0.63291830  1
  O  O295  1  0.86904158  0.13791900  0.13217178  1
  O  O296  1  0.88349553  0.12221676  0.63052755  1
  O  O297  1  0.88178372  0.62450605  0.13554887  1
  O  O298  1  0.88112437  0.62514460  0.63434893  1
  O  O299  1  0.25847663  0.25503213  0.12084336  1
  O  O300  1  0.24673086  0.25979277  0.62877715  1
  O  O301  1  0.26471137  0.74566843  0.12245086  1
  O  O302  1  0.25600769  0.75544045  0.62116466  1
  O  O303  1  0.75897997  0.26200073  0.13005192  1
  O  O304  1  0.75360561  0.26709250  0.62702639  1
  O  O305  1  0.75307110  0.75872493  0.11862331  1
  O  O306  1  0.75599190  0.76001161  0.61519438  1
  O  O307  1  0.23957756  0.24227442  0.36763646  1
  O  O308  1  0.24174266  0.25793735  0.88331252  1
  O  O309  1  0.23816336  0.75594573  0.38159540  1
  O  O310  1  0.24087714  0.74364661  0.87741171  1
  O  O311  1  0.73763656  0.23808390  0.37216210  1
  O  O312  1  0.75090371  0.23310409  0.86763402  1
  O  O313  1  0.74507760  0.74154416  0.37443062  1
  O  O314  1  0.75056663  0.75233892  0.88151275  1
  O  O315  1  0.00993307  0.11915759  -0.00107713  1
  O  O316  1  0.00672738  0.11908545  0.50195136  1
  O  O317  1  -0.00643627  0.61901339  0.01347492  1
  O  O318  1  0.01002505  0.62591690  0.50681474  1
  O  O319  1  0.51097820  0.11595728  0.00148621  1
  O  O320  1  0.50324332  0.10768160  0.50459474  1
  O  O321  1  0.50732184  0.62310485  0.01213234  1
  O  O322  1  0.49224066  0.61626798  0.51037429  1
  O  O323  1  0.49373708  0.38554772  0.49925802  1
  O  O324  1  0.50373426  0.37399204  0.98952063  1
  O  O325  1  0.49488435  0.88221089  0.49359571  1
  O  O326  1  0.49310308  0.88004934  0.99305432  1
  O  O327  1  0.98821837  0.37577756  0.49771392  1
  O  O328  1  0.98815355  0.38136532  0.99247311  1
  O  O329  1  0.99902940  0.88244172  0.49171730  1
  O  O330  1  1.00031688  0.88903888  0.99904415  1
  O  O331  1  0.49123193  0.49780939  0.38198915  1
  O  O332  1  0.48924270  0.49014865  0.87974004  1
  O  O333  1  0.49595392  0.99194732  0.38453826  1
  O  O334  1  0.49235033  0.98958806  0.88570368  1
  O  O335  1  0.99772352  0.49536254  0.37621708  1
  O  O336  1  0.99556348  0.49476483  0.88020182  1
  O  O337  1  1.00903062  0.99221473  0.38105264  1
  O  O338  1  0.98829446  1.00580145  0.88719132  1
  O  O339  1  0.00783521  -0.00027548  0.11027928  1
  O  O340  1  0.00707553  0.00995666  0.61609173  1
  O  O341  1  0.00739996  0.50527302  0.12127726  1
  O  O342  1  0.00653490  0.51105636  0.62243536  1
  O  O343  1  0.49601397  -0.00138408  0.11118067  1
  O  O344  1  0.49998069  -0.00264112  0.61190218  1
  O  O345  1  0.50585940  0.50544613  0.12506804  1
  O  O346  1  0.49598310  0.50693962  0.61823457  1
  O  O347  1  0.23942789  0.37538106  0.24002835  1
  O  O348  1  0.24882843  0.37924594  0.73490373  1
  O  O349  1  0.23771924  0.88012739  0.25627933  1
  O  O350  1  0.24178976  0.88471312  0.74583274  1
  O  O351  1  0.74071861  0.37628987  0.24401208  1
  O  O352  1  0.74224711  0.38190034  0.74600679  1
  O  O353  1  0.74551665  0.88428817  0.24593832  1
  O  O354  1  0.75211214  0.87515670  0.73138129  1
  O  O355  1  0.24582735  0.12016164  0.26016797  1
  O  O356  1  0.25683119  0.11071352  0.74793059  1
  O  O357  1  0.26519326  0.62108256  0.24637982  1
  O  O358  1  0.26020512  0.62471458  0.75897561  1
  O  O359  1  0.75629199  0.11869880  0.25523508  1
  O  O360  1  0.75288868  0.11498912  0.75129542  1
  O  O361  1  0.75842584  0.62035440  0.25305788  1
  O  O362  1  0.75043902  0.62226796  0.75521806  1
  O  O363  1  0.36697922  0.11641016  0.37918319  1
  O  O364  1  0.38164772  0.10980231  0.86579248  1
  O  O365  1  0.38062708  0.61855778  0.36624134  1
  O  O366  1  0.36880248  0.62186730  0.87076672  1
  O  O367  1  0.86222348  0.13561494  0.36584306  1
  O  O368  1  0.87058766  0.12129323  0.86803982  1
  O  O369  1  0.86979597  0.62548271  0.36278043  1
  O  O370  1  0.87994137  0.61763696  0.86218948  1
  O  O371  1  0.13173857  0.38063930  0.13018357  1
  O  O372  1  0.13242881  0.38358998  0.62155210  1
  O  O373  1  0.12194467  0.88430868  0.13391807  1
  O  O374  1  0.13039587  0.88032176  0.63095336  1
  O  O375  1  0.63179143  0.37489997  0.13025844  1
  O  O376  1  0.63025467  0.37857063  0.63375193  1
  O  O377  1  0.63232650  0.86803016  0.13674725  1
  O  O378  1  0.63926279  0.86849529  0.61984614  1
  O  O379  1  0.11992262  0.25515348  0.25133309  1
  O  O380  1  0.12171754  0.24446848  0.76388193  1
  O  O381  1  0.12279427  0.75662988  0.25456269  1
  O  O382  1  0.12366191  0.75928284  0.75855701  1
  O  O383  1  0.61899681  0.25410170  0.25570033  1
  O  O384  1  0.61627786  0.26399791  0.75934102  1
  O  O385  1  0.63034304  0.76153370  0.26179344  1
  O  O386  1  0.63285556  0.73287118  0.76026164  1
  O  O387  1  0.38741809  0.25310040  0.24310590  1
  O  O388  1  0.37975805  0.23880531  0.74942388  1
  O  O389  1  0.37434754  0.74320701  0.24469830  1
  O  O390  1  0.37183067  0.74643346  0.74032860  1
  O  O391  1  0.88295684  0.24404287  0.24305854  1
  O  O392  1  0.87787070  0.23528333  0.74532851  1
  O  O393  1  0.88342756  0.74196364  0.24680506  1
  O  O394  1  0.87727793  0.74251401  0.74806067  1
  O  O395  1  0.38204441  0.50034733  0.49132672  1
  O  O396  1  0.37498999  0.50391649  0.98804717  1
  O  O397  1  0.38098715  0.99290327  0.49038923  1
  O  O398  1  0.38003761  0.99604674  0.99430889  1
  O  O399  1  0.87888215  0.48676966  0.49683658  1
  O  O400  1  0.87885150  0.49358389  0.99537476  1
  O  O401  1  0.89171558  0.98942500  0.49859682  1
  O  O402  1  0.88761381  1.00633411  0.99307623  1
  O  O403  1  0.11538971  0.00617611  0.00187215  1
  O  O404  1  0.11832340  0.00639779  0.50320001  1
  O  O405  1  0.11824615  0.49469460  0.01203878  1
  O  O406  1  0.12321541  0.50869551  0.50885724  1
  O  O407  1  0.61760451  0.01258102  -0.00395903  1
  O  O408  1  0.61329247  -0.00607218  0.49560504  1
  O  O409  1  0.62427793  0.51016396  0.00972012  1
  O  O410  1  0.60963328  0.49666377  0.49794360  1
  O  O411  1  0.36537338  0.36912032  0.13118284  1
  O  O412  1  0.36115207  0.37076328  0.62630805  1
  O  O413  1  0.37949758  0.86665752  0.11754375  1
  O  O414  1  0.37163086  0.86788179  0.62280472  1
  O  O415  1  0.86914562  0.36775870  0.11850681  1
  O  O416  1  0.86817965  0.37458730  0.61513279  1
  O  O417  1  0.86273927  0.87377185  0.13112919  1
  O  O418  1  0.86885652  0.87564112  0.61504530  1
  O  O419  1  0.13385686  0.13102950  0.38027411  1
  O  O420  1  0.12211080  0.13614340  0.88514485  1
  O  O421  1  0.12095650  0.63465945  0.38290759  1
  O  O422  1  0.13256282  0.63963163  0.86966088  1
  O  O423  1  0.63792634  0.13492419  0.37535215  1
  O  O424  1  0.63399053  0.12655201  0.88496953  1
  O  O425  1  0.63536675  0.63313847  0.36489220  1
  O  O426  1  0.62086561  0.61740281  0.88424641  1
