# generated using pymatgen
data_V85Zn86O256
_symmetry_space_group_name_H-M   'P 1'
_cell_length_a   16.91188576
_cell_length_b   16.91306287
_cell_length_c   16.91896712
_cell_angle_alpha   89.97644226
_cell_angle_beta   89.98824394
_cell_angle_gamma   90.06581934
_symmetry_Int_Tables_number   1
_chemical_formula_structural   V85Zn86O256
_chemical_formula_sum   'V85 Zn86 O256'
_cell_volume   4839.35869436
_cell_formula_units_Z   1
loop_
 _symmetry_equiv_pos_site_id
 _symmetry_equiv_pos_as_xyz
  1  'x, y, z'
loop_
 _atom_site_type_symbol
 _atom_site_label
 _atom_site_symmetry_multiplicity
 _atom_site_fract_x
 _atom_site_fract_y
 _atom_site_fract_z
 _atom_site_occupancy
  V  V0  1  0.12055501  0.87573216  0.74935363  1
  V  V1  1  0.00488150  0.87041768  0.36653435  1
  V  V2  1  0.37490893  0.74391998  0.13188724  1
  V  V3  1  0.62941048  0.50704636  0.12342940  1
  V  V4  1  0.12217239  0.62594443  0.00046813  1
  V  V5  1  0.25685179  0.37848227  0.10344649  1
  V  V6  1  0.25598459  0.12785098  0.36976545  1
  V  V7  1  0.11247362  0.24896058  0.87010058  1
  V  V8  1  0.75212038  0.13438690  0.37851654  1
  V  V9  1  0.37209407  0.74914555  0.62195476  1
  V  V10  1  0.74737864  0.36024634  0.12278883  1
  V  V11  1  0.12095912  -0.00033026  0.62457351  1
  V  V12  1  0.25221159  0.49643288  0.74907532  1
  V  V13  1  0.74422718  0.13561864  0.87737552  1
  V  V14  1  0.88161017  0.75052310  0.13049194  1
  V  V15  1  0.37569020  0.13016685  0.74809261  1
  V  V16  1  0.36699891  0.24684559  0.11913272  1
  V  V17  1  0.62186716  -0.00375631  0.12777013  1
  V  V18  1  0.50136050  0.36520614  0.87915535  1
  V  V19  1  0.25687219  0.25318538  0.49944557  1
  V  V20  1  0.25533145  0.62166164  0.35835864  1
  V  V21  1  0.12854700  0.50028371  0.62154975  1
  V  V22  1  0.87268659  0.37359206  -0.00686460  1
  V  V23  1  0.00056391  0.87523737  0.87809769  1
  V  V24  1  0.87676352  0.13673299  0.74813292  1
  V  V25  1  0.87177034  0.87134088  0.50224126  1
  V  V26  1  0.37083811  0.87303434  0.49736444  1
  V  V27  1  -0.00160211  0.49973532  0.49631709  1
  V  V28  1  0.25059380  0.75246400  -0.00007427  1
  V  V29  1  0.74510050  -0.00418942  0.25388069  1
  V  V30  1  0.87428311  0.35757025  0.49989758  1
  V  V31  1  0.86680332  0.74571480  0.62876920  1
  V  V32  1  0.50346273  0.50385042  0.00021050  1
  V  V33  1  0.50191792  0.00094030  0.50133774  1
  V  V34  1  0.25034259  0.62481594  0.87504358  1
  V  V35  1  0.24771168  0.00112553  0.74961038  1
  V  V36  1  0.87578776  -0.00168767  0.37648612  1
  V  V37  1  0.37400211  -0.00226952  0.87451517  1
  V  V38  1  0.12450710  0.75168163  0.87568282  1
  V  V39  1  0.12850338  0.24972153  0.37266478  1
  V  V40  1  0.00090230  0.37471183  0.37021970  1
  V  V41  1  0.00217998  0.24738347  0.23944906  1
  V  V42  1  -0.00027233  0.00953296  0.00483168  1
  V  V43  1  0.13563245  0.63581695  0.49870866  1
  V  V44  1  0.38353472  0.50503369  0.36780684  1
  V  V45  1  0.74439107  0.75029027  0.50065554  1
  V  V46  1  0.74212212  0.74245340  0.00342671  1
  V  V47  1  0.50467830  0.76416803  0.75487217  1
  V  V48  1  0.87525596  0.87491367  0.00477668  1
  V  V49  1  0.24999522  0.00085553  0.25115559  1
  V  V50  1  0.62559505  0.13758553  -0.00118990  1
  V  V51  1  0.50279417  0.37640078  0.38099415  1
  V  V52  1  0.24877918  0.87342916  0.62205967  1
  V  V53  1  0.24511388  0.87676624  0.13317319  1
  V  V54  1  0.37666351  0.49392926  0.88336210  1
  V  V55  1  0.75395601  0.35975333  0.62036240  1
  V  V56  1  0.87752617  0.62554258  0.25369955  1
  V  V57  1  0.37760295  0.00295750  0.36676870  1
  V  V58  1  -0.00326258  0.13877334  0.62674632  1
  V  V59  1  0.74752143  0.61456412  0.87674890  1
  V  V60  1  0.50698410  0.74666172  0.24323189  1
  V  V61  1  0.62757555  0.49735897  0.61999759  1
  V  V62  1  0.13802162  0.37707952  0.24907402  1
  V  V63  1  0.12555894  0.13330944  0.00623133  1
  V  V64  1  0.12123325  0.00345860  0.13256343  1
  V  V65  1  0.49511404  0.12658251  0.13440427  1
  V  V66  1  0.12921673  0.75441658  0.36070034  1
  V  V67  1  0.00010834  0.62454707  0.13051469  1
  V  V68  1  0.87069445  0.00107508  0.87534520  1
  V  V69  1  0.37302010  0.87665091  -0.00061546  1
  V  V70  1  0.62740028  0.37035441  0.75481159  1
  V  V71  1  0.74734096  0.62186989  0.37586980  1
  V  V72  1  0.50210924  0.00205185  -0.00559632  1
  V  V73  1  0.24808451  0.13400688  0.87803822  1
  V  V74  1  0.87892417  0.12343811  0.24241076  1
  V  V75  1  0.63208515  -0.01334792  0.62995843  1
  V  V76  1  0.50777821  0.87432281  0.36727457  1
  V  V77  1  -0.00105107  -0.00160083  0.50681544  1
  V  V78  1  0.37898585  0.62459854  0.75065421  1
  V  V79  1  0.63075100  0.13187675  0.50424871  1
  V  V80  1  0.11643368  0.36980956  0.74633437  1
  V  V81  1  0.74710594  0.87378083  0.13057506  1
  V  V82  1  -0.00135197  0.62565658  0.62375059  1
  V  V83  1  0.50200570  0.61909064  0.62120373  1
  V  V84  1  0.12812663  0.49924967  0.12911516  1
  Zn  Zn85  1  -0.01122457  0.38195789  0.86565763  1
  Zn  Zn86  1  0.49885428  0.62440606  0.12269210  1
  Zn  Zn87  1  -0.00803772  0.50138936  -0.00450864  1
  Zn  Zn88  1  0.87345049  0.49688436  0.37370352  1
  Zn  Zn89  1  0.74972766  0.49619341  0.25061683  1
  Zn  Zn90  1  0.37957397  0.25445981  0.62484947  1
  Zn  Zn91  1  0.62756882  0.75261370  0.36819120  1
  Zn  Zn92  1  0.74129853  -0.01312201  0.75412045  1
  Zn  Zn93  1  0.87512530  0.24414806  0.11929334  1
  Zn  Zn94  1  0.49537352  0.25175387  0.25151221  1
  Zn  Zn95  1  -0.00097875  0.74818105  0.75108321  1
  Zn  Zn96  1  0.62387629  0.75448627  0.87084804  1
  Zn  Zn97  1  0.50825841  0.24678175  0.75106492  1
  Zn  Zn98  1  0.61695478  0.62021344  0.49416607  1
  Zn  Zn99  1  0.37945038  0.38876678  0.50561852  1
  Zn  Zn100  1  0.12575925  0.12545438  0.49999159  1
  Zn  Zn101  1  0.25374611  0.37336353  0.62310758  1
  Zn  Zn102  1  0.87853622  0.61718900  0.75955291  1
  Zn  Zn103  1  0.50261852  0.12583099  0.62755088  1
  Zn  Zn104  1  0.62273406  0.37187603  0.24915421  1
  Zn  Zn105  1  0.75958350  0.49749721  0.74906069  1
  Zn  Zn106  1  0.62512065  0.25209553  0.37498670  1
  Zn  Zn107  1  0.19308358  0.18996511  0.18692582  1
  Zn  Zn108  1  0.18739273  0.18690736  0.68532713  1
  Zn  Zn109  1  0.18644669  0.69048996  0.18618984  1
  Zn  Zn110  1  0.18852800  0.68777311  0.68824118  1
  Zn  Zn111  1  0.68118046  0.18400989  0.19333784  1
  Zn  Zn112  1  0.68833311  0.18261867  0.69087089  1
  Zn  Zn113  1  0.68873213  0.68726341  0.18838199  1
  Zn  Zn114  1  0.68474394  0.68508425  0.69319431  1
  Zn  Zn115  1  0.32232476  0.31533124  0.30894776  1
  Zn  Zn116  1  0.30989967  0.31420298  0.81674576  1
  Zn  Zn117  1  0.31298235  0.81080815  0.31300590  1
  Zn  Zn118  1  0.31384689  0.81362737  0.80940409  1
  Zn  Zn119  1  0.81472532  0.31337517  0.30728908  1
  Zn  Zn120  1  0.80778210  0.31357190  0.81140297  1
  Zn  Zn121  1  0.81469591  0.81015979  0.31465941  1
  Zn  Zn122  1  0.80944530  0.80645140  0.81627468  1
  Zn  Zn123  1  0.19223100  0.44161304  0.43535319  1
  Zn  Zn124  1  0.16997037  0.44367821  0.93112435  1
  Zn  Zn125  1  0.18779330  0.93775320  0.43738723  1
  Zn  Zn126  1  0.18656183  0.94319760  0.94032255  1
  Zn  Zn127  1  0.68808297  0.43696170  0.44119831  1
  Zn  Zn128  1  0.68503044  0.43267245  0.94290261  1
  Zn  Zn129  1  0.68812689  0.93927923  0.44224794  1
  Zn  Zn130  1  0.68725630  0.93458055  0.93722813  1
  Zn  Zn131  1  0.30999317  0.06605654  0.06259547  1
  Zn  Zn132  1  0.31235659  0.06388217  0.55944613  1
  Zn  Zn133  1  0.31046452  0.56083171  0.06285198  1
  Zn  Zn134  1  0.31539380  0.56270209  0.55829989  1
  Zn  Zn135  1  0.80714769  0.06358060  0.06150370  1
  Zn  Zn136  1  0.81144817  0.06279511  0.56619695  1
  Zn  Zn137  1  0.81159855  0.55908880  0.06058002  1
  Zn  Zn138  1  0.81126859  0.55813586  0.56206176  1
  Zn  Zn139  1  0.43533486  0.43685881  0.19085573  1
  Zn  Zn140  1  0.44035419  0.43559199  0.69009838  1
  Zn  Zn141  1  0.43798659  0.93276039  0.18559232  1
  Zn  Zn142  1  0.43779949  0.94137245  0.68501324  1
  Zn  Zn143  1  0.93600846  0.43680893  0.18356316  1
  Zn  Zn144  1  0.93320919  0.43872864  0.68317571  1
  Zn  Zn145  1  0.93807573  0.93973312  0.18896949  1
  Zn  Zn146  1  0.90207692  0.91759557  0.70693735  1
  Zn  Zn147  1  0.06219048  0.06296810  0.31526280  1
  Zn  Zn148  1  0.05657844  0.06401881  0.81163672  1
  Zn  Zn149  1  0.06490111  0.56362506  0.31130597  1
  Zn  Zn150  1  0.06140278  0.56000065  0.81007992  1
  Zn  Zn151  1  0.56560160  0.06375796  0.31432765  1
  Zn  Zn152  1  0.56280849  0.05914006  0.81190722  1
  Zn  Zn153  1  0.56290360  0.56235382  0.30659676  1
  Zn  Zn154  1  0.56896715  0.56221172  0.81073259  1
  Zn  Zn155  1  0.43975858  0.18757542  0.43756207  1
  Zn  Zn156  1  0.43471927  0.18725501  0.94253307  1
  Zn  Zn157  1  0.43617872  0.68875254  0.43497946  1
  Zn  Zn158  1  0.43818200  0.68572152  0.93776066  1
  Zn  Zn159  1  0.94287085  0.18387222  0.43092511  1
  Zn  Zn160  1  0.93365332  0.19144314  0.93887898  1
  Zn  Zn161  1  0.93990114  0.68851334  0.43640976  1
  Zn  Zn162  1  0.93260533  0.68620179  0.94106049  1
  Zn  Zn163  1  0.06134191  0.31534504  0.05884263  1
  Zn  Zn164  1  0.06855080  0.31494223  0.55720391  1
  Zn  Zn165  1  0.06194705  0.81534641  0.06576834  1
  Zn  Zn166  1  0.05832947  0.81145064  0.55971087  1
  Zn  Zn167  1  0.55604797  0.31641276  0.06327699  1
  Zn  Zn168  1  0.56052228  0.31127677  0.56467908  1
  Zn  Zn169  1  0.57478546  0.82855668  0.02993647  1
  Zn  Zn170  1  0.55704564  0.80989385  0.56176292  1
  O  O171  1  0.13262604  0.11833703  0.11662927  1
  O  O172  1  0.11527274  0.11583660  0.62496194  1
  O  O173  1  0.11919551  0.62010366  0.12375386  1
  O  O174  1  0.12191543  0.62356461  0.61341213  1
  O  O175  1  0.61831057  0.11514247  0.11850474  1
  O  O176  1  0.62541924  0.11503001  0.61846817  1
  O  O177  1  0.62421238  0.60997549  0.12971525  1
  O  O178  1  0.61773302  0.61646364  0.62577376  1
  O  O179  1  0.38426192  0.38758401  0.37723261  1
  O  O180  1  0.38518368  0.38515683  0.86744254  1
  O  O181  1  0.38155913  0.88093384  0.38161649  1
  O  O182  1  0.36492619  0.88936659  0.88245367  1
  O  O183  1  0.88189607  0.37598327  0.38047969  1
  O  O184  1  0.87144522  0.37107721  0.88743263  1
  O  O185  1  0.88389964  0.87668730  0.38427852  1
  O  O186  1  0.88219262  0.88236809  0.88668048  1
  O  O187  1  0.25692393  0.00619411  0.37120846  1
  O  O188  1  0.25368388  0.00917477  0.86905100  1
  O  O189  1  0.25258521  0.51686907  0.37141022  1
  O  O190  1  0.25484191  0.50401816  0.86853734  1
  O  O191  1  0.75634913  0.00319300  0.36939058  1
  O  O192  1  0.75704188  0.00331843  0.87605923  1
  O  O193  1  0.75258666  0.50747602  0.37329886  1
  O  O194  1  0.74298496  0.51194985  0.87848693  1
  O  O195  1  0.24502004  0.48732312  0.12393060  1
  O  O196  1  0.24580182  0.50267587  0.63253778  1
  O  O197  1  0.24440332  0.99536301  0.13112602  1
  O  O198  1  0.24253403  0.99520945  0.62935167  1
  O  O199  1  0.73925832  0.49289623  0.12549053  1
  O  O200  1  0.74273934  0.49197255  0.62615914  1
  O  O201  1  0.74182524  0.99586228  0.13314536  1
  O  O202  1  0.73576848  0.99870654  0.62616549  1
  O  O203  1  0.00741613  0.36750993  0.25219983  1
  O  O204  1  0.01300739  0.37830231  0.74592800  1
  O  O205  1  -0.00234850  0.88164299  0.26735190  1
  O  O206  1  0.00142344  0.87388882  0.76137723  1
  O  O207  1  0.50104212  0.37607816  0.26471751  1
  O  O208  1  0.50992973  0.37348687  0.76043100  1
  O  O209  1  0.49728625  0.86570760  0.25773620  1
  O  O210  1  0.48977583  0.86250783  0.75041568  1
  O  O211  1  0.50168928  0.12196446  0.23711840  1
  O  O212  1  0.48987189  0.12617345  0.75309049  1
  O  O213  1  0.50021500  0.64180177  0.24538388  1
  O  O214  1  0.49438893  0.62994216  0.73984833  1
  O  O215  1  0.99033673  0.13319701  0.25704741  1
  O  O216  1  0.98792929  0.12601780  0.74195534  1
  O  O217  1  0.99508020  0.62336815  0.23897550  1
  O  O218  1  1.00540559  0.62603541  0.73412999  1
  O  O219  1  0.37851157  0.25264962  0.01755966  1
  O  O220  1  0.36463548  0.25019341  0.49961028  1
  O  O221  1  0.37014252  0.75995991  0.00347701  1
  O  O222  1  0.38040899  0.76112471  0.50844300  1
  O  O223  1  0.87696827  0.26326260  0.00556717  1
  O  O224  1  0.88294426  0.25862405  0.49439345  1
  O  O225  1  0.86877472  0.75598718  0.01244637  1
  O  O226  1  0.86557734  0.75329249  0.50284800  1
  O  O227  1  0.13725156  0.24931570  0.48861625  1
  O  O228  1  0.11936824  0.23901614  0.99182052  1
  O  O229  1  0.12371029  0.73813904  0.49437783  1
  O  O230  1  0.13147141  0.74649275  0.99761939  1
  O  O231  1  0.62103922  0.23486027  0.49717782  1
  O  O232  1  0.61692873  0.23638922  1.00452567  1
  O  O233  1  0.63653969  0.74815149  0.50206067  1
  O  O234  1  0.64349780  0.73663671  1.02387482  1
  O  O235  1  0.49039614  0.24241467  0.12587873  1
  O  O236  1  0.49678589  0.24410494  0.63111879  1
  O  O237  1  0.49205131  0.75366482  0.13343191  1
  O  O238  1  0.48932119  0.74670860  0.63528753  1
  O  O239  1  1.00226763  0.25077828  0.13672301  1
  O  O240  1  1.00714504  0.23725324  0.61628655  1
  O  O241  1  0.98967719  0.74474828  0.12340896  1
  O  O242  1  0.99126174  0.73974683  0.62195052  1
  O  O243  1  0.01034987  0.25552018  0.36580568  1
  O  O244  1  0.00968399  0.25425281  0.87412770  1
  O  O245  1  0.01601401  0.75668693  0.38034776  1
  O  O246  1  0.00664583  0.75667114  0.87842123  1
  O  O247  1  0.49804502  0.26291053  0.37346248  1
  O  O248  1  0.49313305  0.26180926  0.87486343  1
  O  O249  1  0.50009358  0.75680965  0.36228005  1
  O  O250  1  0.49687879  0.74361166  0.85775886  1
  O  O251  1  0.24819116  0.13071247  0.48749986  1
  O  O252  1  0.23745875  0.11834776  0.98949067  1
  O  O253  1  0.23722464  0.62431207  0.49254410  1
  O  O254  1  0.24339422  0.63239441  0.99516726  1
  O  O255  1  0.74392149  0.11773694  0.49060730  1
  O  O256  1  0.74109803  0.12147613  0.98755437  1
  O  O257  1  0.75141728  0.63091667  0.48840608  1
  O  O258  1  0.75674590  0.63195373  0.99130113  1
  O  O259  1  0.24392415  0.38002864  0.00600227  1
  O  O260  1  0.25193772  0.36647544  0.49851328  1
  O  O261  1  0.25684235  0.87441397  0.00751902  1
  O  O262  1  0.26288038  0.88127639  0.50535187  1
  O  O263  1  0.75799530  0.37416381  0.01239501  1
  O  O264  1  0.75994339  0.37529891  0.51022560  1
  O  O265  1  0.75931123  0.86832472  0.01279817  1
  O  O266  1  0.76045728  0.86485214  0.49404317  1
  O  O267  1  0.12136161  0.49212800  0.23803023  1
  O  O268  1  0.13504869  0.49459884  0.74117315  1
  O  O269  1  0.12858437  1.00595941  0.23883304  1
  O  O270  1  0.12638314  0.99458866  0.74488564  1
  O  O271  1  0.62614107  0.49423688  0.23625703  1
  O  O272  1  0.63022244  0.48770669  0.73973440  1
  O  O273  1  0.63392583  1.00320655  0.24216308  1
  O  O274  1  0.62357281  0.99681214  0.73640923  1
  O  O275  1  0.37132199  -0.00551790  0.26145151  1
  O  O276  1  0.37011148  0.00735701  0.75771567  1
  O  O277  1  0.37261103  0.50004327  0.26656788  1
  O  O278  1  0.36858710  0.50585617  0.75775765  1
  O  O279  1  0.86975266  0.00637226  0.25650796  1
  O  O280  1  0.88514879  0.01468686  0.77066691  1
  O  O281  1  0.87386720  0.51261749  0.24948472  1
  O  O282  1  0.87463963  0.50380266  0.74957605  1
  O  O283  1  0.12281039  0.37128863  0.36579648  1
  O  O284  1  0.12944696  0.36139283  0.86314416  1
  O  O285  1  0.12259922  0.86112063  0.38056565  1
  O  O286  1  0.12002598  0.87245060  0.87214849  1
  O  O287  1  0.61532620  0.37614686  0.37560250  1
  O  O288  1  0.61649727  0.37949927  0.86709378  1
  O  O289  1  0.61091807  0.87425955  0.38277822  1
  O  O290  1  0.61083409  0.85672170  0.92032162  1
  O  O291  1  0.37923430  0.13556869  0.12220825  1
  O  O292  1  0.37625874  0.12214636  0.63608874  1
  O  O293  1  0.37322460  0.64058184  0.11848182  1
  O  O294  1  0.37919909  0.63187716  0.62927293  1
  O  O295  1  0.86918825  0.12399038  0.13792676  1
  O  O296  1  0.87985872  0.11987338  0.64030500  1
  O  O297  1  0.88161631  0.63056316  0.13063799  1
  O  O298  1  0.88487297  0.63042552  0.62007541  1
  O  O299  1  0.25733150  0.26256462  0.12293117  1
  O  O300  1  0.25213911  0.24882798  0.61251840  1
  O  O301  1  0.25445215  0.75869954  0.12096599  1
  O  O302  1  0.26365281  0.75603885  0.63043184  1
  O  O303  1  0.74815888  0.25789838  0.12912420  1
  O  O304  1  0.74782383  0.26102944  0.62485854  1
  O  O305  1  0.76267151  0.75369099  0.12599119  1
  O  O306  1  0.76025297  0.73975593  0.61785910  1
  O  O307  1  0.25025138  0.24460019  0.37647459  1
  O  O308  1  0.24200451  0.23756786  0.87305004  1
  O  O309  1  0.23947536  0.74062342  0.37194386  1
  O  O310  1  0.24551175  0.74694681  0.88006789  1
  O  O311  1  0.75120308  0.23703274  0.36978766  1
  O  O312  1  0.74786678  0.23421565  0.87312787  1
  O  O313  1  0.74733802  0.74317626  0.38229283  1
  O  O314  1  0.74570875  0.74701067  0.88880275  1
  O  O315  1  0.00595368  0.11575307  -0.00410017  1
  O  O316  1  -0.00019082  0.11546711  0.50645721  1
  O  O317  1  0.00431727  0.62530689  0.01242696  1
  O  O318  1  0.00904619  0.61892058  0.50530879  1
  O  O319  1  0.50398963  0.11701241  0.00845130  1
  O  O320  1  0.50812394  0.11258746  0.49772630  1
  O  O321  1  0.49597143  0.61076418  0.00245038  1
  O  O322  1  0.50021464  0.63606001  0.51598730  1
  O  O323  1  0.49861683  0.37373918  0.48668299  1
  O  O324  1  0.50335888  0.38836336  0.98924059  1
  O  O325  1  0.49087412  0.88401908  0.49348865  1
  O  O326  1  0.47891811  0.88929086  1.01143528  1
  O  O327  1  0.99659293  0.38186662  0.49286422  1
  O  O328  1  0.98489545  0.37672101  1.00080329  1
  O  O329  1  0.99464747  0.88121883  0.49097134  1
  O  O330  1  0.99601575  0.88576596  0.99702169  1
  O  O331  1  0.49167165  0.49682453  0.37363046  1
  O  O332  1  0.49389676  0.49669211  0.87951127  1
  O  O333  1  0.49466552  0.99402347  0.37897566  1
  O  O334  1  0.48971555  1.00495065  0.88636385  1
  O  O335  1  1.00140434  0.49382860  0.38038742  1
  O  O336  1  1.02705196  0.48882018  0.88691607  1
  O  O337  1  0.99601286  0.99481881  0.38678060  1
  O  O338  1  0.99523062  0.99528784  0.88633171  1
  O  O339  1  0.00897026  -0.00347982  0.11766179  1
  O  O340  1  0.00123490  0.00286570  0.61418178  1
  O  O341  1  0.00895398  0.50788808  0.12255734  1
  O  O342  1  0.00855316  0.50628767  0.61488919  1
  O  O343  1  0.50316415  0.00574357  0.11925425  1
  O  O344  1  0.50748042  0.00251220  0.61575278  1
  O  O345  1  0.50800731  0.49800018  0.11862808  1
  O  O346  1  0.50956844  0.50879849  0.63100407  1
  O  O347  1  0.23934046  0.37091544  0.24494564  1
  O  O348  1  0.24452331  0.38684173  0.74960402  1
  O  O349  1  0.25219473  0.88233082  0.24155605  1
  O  O350  1  0.24268988  0.88188698  0.74297992  1
  O  O351  1  0.74891782  0.37665685  0.23681129  1
  O  O352  1  0.74616263  0.37563061  0.73812374  1
  O  O353  1  0.75693552  0.88716914  0.24725662  1
  O  O354  1  0.79388359  0.88700160  0.74248442  1
  O  O355  1  0.24848653  0.11948285  0.26212537  1
  O  O356  1  0.25422922  0.11821277  0.75703969  1
  O  O357  1  0.24809249  0.62707858  0.25980010  1
  O  O358  1  0.25486983  0.61534067  0.75470501  1
  O  O359  1  0.75617052  0.11380567  0.25789000  1
  O  O360  1  0.75938882  0.11714766  0.76038416  1
  O  O361  1  0.75751440  0.62448556  0.26119970  1
  O  O362  1  0.75200631  0.62309377  0.76365145  1
  O  O363  1  0.36911482  0.11445924  0.37863301  1
  O  O364  1  0.36600587  0.11719292  0.87237411  1
  O  O365  1  0.36348251  0.62150864  0.37510693  1
  O  O366  1  0.36780198  0.61797920  0.86964482  1
  O  O367  1  0.86937145  0.11717572  0.36785297  1
  O  O368  1  0.86505990  0.12107389  0.87279919  1
  O  O369  1  0.87116509  0.62392987  0.36834501  1
  O  O370  1  0.85738167  0.63254791  0.87526483  1
  O  O371  1  0.13449961  0.38059868  0.12753737  1
  O  O372  1  0.13081794  0.38171934  0.62934801  1
  O  O373  1  0.13611517  0.88663433  0.11907975  1
  O  O374  1  0.12731851  0.87898660  0.62818402  1
  O  O375  1  0.63546656  0.37994817  0.12360707  1
  O  O376  1  0.63559728  0.37896733  0.62708269  1
  O  O377  1  0.62928203  0.88940683  0.11856896  1
  O  O378  1  0.62084121  0.88860780  0.61653647  1
  O  O379  1  0.12122471  0.25588403  0.25402280  1
  O  O380  1  0.13043571  0.25838723  0.75599785  1
  O  O381  1  0.12334427  0.75129470  0.26171504  1
  O  O382  1  0.12299144  0.75821038  0.75553185  1
  O  O383  1  0.61639729  0.25165345  0.25613026  1
  O  O384  1  0.62745043  0.26414372  0.74643545  1
  O  O385  1  0.61210067  0.75328221  0.24701349  1
  O  O386  1  0.60974119  0.75541451  0.74755589  1
  O  O387  1  0.37850712  0.25637377  0.22962191  1
  O  O388  1  0.36990493  0.23676875  0.75182191  1
  O  O389  1  0.38476180  0.75681811  0.24011461  1
  O  O390  1  0.38043232  0.74366026  0.74334227  1
  O  O391  1  0.88511846  0.24085473  0.24794607  1
  O  O392  1  0.87361844  0.23576632  0.75507689  1
  O  O393  1  0.87361101  0.73699221  0.24460605  1
  O  O394  1  0.88001878  0.74080643  0.73983951  1
  O  O395  1  0.36650171  0.50226936  0.47864198  1
  O  O396  1  0.37875132  0.50246432  0.98802365  1
  O  O397  1  0.38332856  0.99476236  0.49164072  1
  O  O398  1  0.37699324  0.99744323  0.99317102  1
  O  O399  1  0.88973566  0.49522948  0.49861898  1
  O  O400  1  0.87578212  0.48106482  1.00785803  1
  O  O401  1  0.87960128  0.99083707  0.49782875  1
  O  O402  1  0.88148258  0.99896456  0.99530161  1
  O  O403  1  0.11746770  0.01013514  0.00874172  1
  O  O404  1  0.11671429  0.00084335  0.50568183  1
  O  O405  1  0.12750779  0.51086746  0.01514277  1
  O  O406  1  0.11759589  0.50907346  0.50126275  1
  O  O407  1  0.61489628  0.00808279  0.00732946  1
  O  O408  1  0.61849550  0.00623522  0.50757116  1
  O  O409  1  0.61845377  0.49750597  0.01426986  1
  O  O410  1  0.62734538  0.50262792  0.51464116  1
  O  O411  1  0.36133181  0.37249408  0.12190864  1
  O  O412  1  0.37224947  0.37436467  0.62256008  1
  O  O413  1  0.36233783  0.87001653  0.11817941  1
  O  O414  1  0.37080041  0.87002811  0.61749223  1
  O  O415  1  0.86163551  0.36997627  0.12164958  1
  O  O416  1  0.86327322  0.37395987  0.61538819  1
  O  O417  1  0.87167338  0.86830941  0.12505240  1
  O  O418  1  0.88736296  0.85898637  0.60814183  1
  O  O419  1  0.13384524  0.13301741  0.37631877  1
  O  O420  1  0.12880180  0.13055015  0.87904333  1
  O  O421  1  0.13240209  0.63388759  0.37939022  1
  O  O422  1  0.13143735  0.63340571  0.87879924  1
  O  O423  1  0.63596633  0.12255153  0.38437655  1
  O  O424  1  0.63647609  0.11788945  0.88153874  1
  O  O425  1  0.63224572  0.62813484  0.37560353  1
  O  O426  1  0.63966628  0.63372888  0.87144667  1
