# generated using pymatgen
data_V85Zn86O256
_symmetry_space_group_name_H-M   'P 1'
_cell_length_a   16.92741758
_cell_length_b   16.92123504
_cell_length_c   16.93731969
_cell_angle_alpha   90.00696642
_cell_angle_beta   90.07263970
_cell_angle_gamma   90.02758073
_symmetry_Int_Tables_number   1
_chemical_formula_structural   V85Zn86O256
_chemical_formula_sum   'V85 Zn86 O256'
_cell_volume   4851.39959981
_cell_formula_units_Z   1
loop_
 _symmetry_equiv_pos_site_id
 _symmetry_equiv_pos_as_xyz
  1  'x, y, z'
loop_
 _atom_site_type_symbol
 _atom_site_label
 _atom_site_symmetry_multiplicity
 _atom_site_fract_x
 _atom_site_fract_y
 _atom_site_fract_z
 _atom_site_occupancy
  V  V0  1  0.62477139  0.37639033  0.74964326  1
  V  V1  1  0.87995599  0.62553709  0.75954421  1
  V  V2  1  0.62258345  0.50195691  0.12555922  1
  V  V3  1  0.37065357  0.50248721  0.86873616  1
  V  V4  1  0.07190241  0.81559907  0.20341203  1
  V  V5  1  0.87590153  0.24960973  0.12326033  1
  V  V6  1  0.62294221  0.62600728  0.50243671  1
  V  V7  1  0.49582914  -0.00382427  0.00129849  1
  V  V8  1  0.24916930  0.12487332  0.87702384  1
  V  V9  1  0.62250859  0.24963759  0.37692450  1
  V  V10  1  0.24369857  0.37887150  0.12293387  1
  V  V11  1  0.00450631  0.24775874  0.24830645  1
  V  V12  1  0.01205343  0.51319242  -0.00762045  1
  V  V13  1  0.23963092  0.74412256  -0.00410585  1
  V  V14  1  0.37505033  0.13029174  0.25153276  1
  V  V15  1  0.49798906  0.50165522  -0.00088326  1
  V  V16  1  0.62226526  0.76051554  0.87596863  1
  V  V17  1  0.49661732  0.36868323  0.37337424  1
  V  V18  1  0.37310002  0.87649567  0.49908101  1
  V  V19  1  0.87846030  0.37626898  0.50757307  1
  V  V20  1  0.23991721  0.62726432  0.86802254  1
  V  V21  1  0.75788869  0.50122414  0.75515713  1
  V  V22  1  0.37566119  -0.00604942  0.87599379  1
  V  V23  1  0.36832376  0.37087296  0.49959784  1
  V  V24  1  0.07076559  0.55714218  0.17325153  1
  V  V25  1  0.87572413  0.88282941  -0.00266809  1
  V  V26  1  0.48490774  0.74533980  0.24830473  1
  V  V27  1  0.00842979  0.74923526  0.75563942  1
  V  V28  1  -0.00535280  0.24853537  0.74508783  1
  V  V29  1  0.25125184  -0.00213420  0.25378887  1
  V  V30  1  0.12959290  0.24642888  0.38946313  1
  V  V31  1  0.75096137  0.25081602  -0.00193805  1
  V  V32  1  0.75010997  0.12670478  0.37579541  1
  V  V33  1  0.62197292  0.87334297  0.25062241  1
  V  V34  1  0.75467733  0.50389731  0.25312941  1
  V  V35  1  -0.00544073  0.37805425  0.87223894  1
  V  V36  1  0.50456176  -0.00089488  0.50859967  1
  V  V37  1  0.24916681  0.87249838  0.62804347  1
  V  V38  1  0.12303743  0.75187528  0.38797701  1
  V  V39  1  0.75265461  0.36532396  0.62683082  1
  V  V40  1  0.62581390  0.50475100  0.62810141  1
  V  V41  1  0.38129173  0.62498278  0.74465756  1
  V  V42  1  0.87542091  0.38739034  -0.00321101  1
  V  V43  1  0.12252724  0.00446013  0.61347926  1
  V  V44  1  0.25674958  0.50485585  0.24606954  1
  V  V45  1  0.24839027  0.37694016  0.63379642  1
  V  V46  1  0.62678215  0.62641134  -0.00188972  1
  V  V47  1  0.12298110  0.25029769  0.87306570  1
  V  V48  1  -0.00098957  0.37709121  0.37902415  1
  V  V49  1  0.36932421  0.24704004  0.62137400  1
  V  V50  1  0.75244793  0.86904539  0.12520977  1
  V  V51  1  0.87448590  0.11850055  0.74419568  1
  V  V52  1  0.48544409  0.62888353  0.12765992  1
  V  V53  1  0.37726131  0.50740275  0.37274272  1
  V  V54  1  0.62325148  0.25113634  0.87475582  1
  V  V55  1  0.24790839  0.24932362  0.00269112  1
  V  V56  1  0.61947533  0.37195990  0.24972651  1
  V  V57  1  0.37327133  0.12433631  0.75103074  1
  V  V58  1  0.62211108  0.00050010  0.12672554  1
  V  V59  1  0.00653692  0.87751345  0.38439026  1
  V  V60  1  0.11598905  0.11843523  -0.00144906  1
  V  V61  1  0.74869397  -0.00058540  0.25224729  1
  V  V62  1  0.00762574  0.88267460  0.87463416  1
  V  V63  1  0.87579451  0.12682578  0.24989062  1
  V  V64  1  0.88346092  -0.00008728  0.38075748  1
  V  V65  1  0.12540388  0.37417721  0.24915911  1
  V  V66  1  0.74741864  0.89227774  0.63329863  1
  V  V67  1  0.24974237  0.12265144  0.38674038  1
  V  V68  1  0.49435505  0.88044272  0.37437893  1
  V  V69  1  0.12958779  0.50989540  0.61781145  1
  V  V70  1  0.62364786  0.12622090  0.00169613  1
  V  V71  1  0.62476351  0.74886658  0.37389306  1
  V  V72  1  0.25053227  0.62565921  0.38200627  1
  V  V73  1  0.50167325  0.25142066  0.74972489  1
  V  V74  1  0.37231523  0.37554707  -0.00128712  1
  V  V75  1  0.74897295  0.11834388  0.86660150  1
  V  V76  1  0.25933829  0.87009949  0.12857404  1
  V  V77  1  0.75238614  0.75268474  0.50520482  1
  V  V78  1  0.37777799  0.86323557  -0.00152391  1
  V  V79  1  0.11966372  -0.00020173  0.12707141  1
  V  V80  1  0.50544291  0.75483639  0.74249105  1
  V  V81  1  0.50084542  0.49980277  0.50521245  1
  V  V82  1  0.00026246  0.12642413  0.60994136  1
  V  V83  1  -0.00293075  0.62270180  0.60626709  1
  V  V84  1  0.74838775  0.37531054  0.12476266  1
  Zn  Zn85  1  0.62808373  0.11921235  0.50472126  1
  Zn  Zn86  1  0.89294646  0.63760624  0.24803083  1
  Zn  Zn87  1  0.38117147  0.25353094  0.12950249  1
  Zn  Zn88  1  0.12503194  0.37990101  0.74916723  1
  Zn  Zn89  1  0.37870387  0.74560736  0.62300397  1
  Zn  Zn90  1  0.87536736  0.00093383  0.87473866  1
  Zn  Zn91  1  0.25292608  0.74381252  0.50530878  1
  Zn  Zn92  1  0.50607494  0.12159830  0.62841979  1
  Zn  Zn93  1  0.75708531  0.62829522  0.37489162  1
  Zn  Zn94  1  0.12694291  0.87604477  0.75121682  1
  Zn  Zn95  1  0.24733006  -0.00055433  0.74923676  1
  Zn  Zn96  1  0.87772478  0.87807195  0.50386038  1
  Zn  Zn97  1  0.49843755  0.13030342  0.13205306  1
  Zn  Zn98  1  0.62321095  0.89294438  0.75046057  1
  Zn  Zn99  1  -0.00365926  0.11861216  0.11996239  1
  Zn  Zn100  1  0.87677932  0.75386626  0.62573538  1
  Zn  Zn101  1  0.89066194  0.74484592  0.12625302  1
  Zn  Zn102  1  0.75310120  0.62365050  0.87716680  1
  Zn  Zn103  1  0.75048343  0.24746238  0.50723764  1
  Zn  Zn104  1  0.49762020  0.37684958  0.87522655  1
  Zn  Zn105  1  0.87954847  0.50523297  0.38141276  1
  Zn  Zn106  1  0.75682415  0.74814253  -0.00331508  1
  Zn  Zn107  1  0.18969340  0.18526349  0.18824224  1
  Zn  Zn108  1  0.18478214  0.18794562  0.68510082  1
  Zn  Zn109  1  0.20913367  0.68673250  0.18838583  1
  Zn  Zn110  1  0.18689604  0.68635870  0.68792215  1
  Zn  Zn111  1  0.68511629  0.18996472  0.18987261  1
  Zn  Zn112  1  0.68020228  0.07345169  0.68546819  1
  Zn  Zn113  1  0.68293666  0.68651171  0.18654199  1
  Zn  Zn114  1  0.68932272  0.68800557  0.68842280  1
  Zn  Zn115  1  0.30870010  0.31068862  0.31428959  1
  Zn  Zn116  1  0.31215463  0.31127229  0.81305242  1
  Zn  Zn117  1  0.30981025  0.81289237  0.31502414  1
  Zn  Zn118  1  0.31496748  0.80945952  0.81161650  1
  Zn  Zn119  1  0.81263899  0.31488327  0.31486585  1
  Zn  Zn120  1  0.81336321  0.30782509  0.80947667  1
  Zn  Zn121  1  0.81688014  0.81068312  0.31194971  1
  Zn  Zn122  1  0.81470973  0.80953873  0.81146970  1
  Zn  Zn123  1  0.18726570  0.43666989  0.44063384  1
  Zn  Zn124  1  0.18476597  0.44149555  0.93267816  1
  Zn  Zn125  1  0.18947049  0.93666317  0.43789391  1
  Zn  Zn126  1  0.19035782  0.93785726  0.93966598  1
  Zn  Zn127  1  0.69037240  0.43611004  0.43892646  1
  Zn  Zn128  1  0.68699236  0.43920984  0.93586670  1
  Zn  Zn129  1  0.68866837  0.93510491  0.43971386  1
  Zn  Zn130  1  0.68772131  0.93797267  0.93924957  1
  Zn  Zn131  1  0.30869608  0.06041954  0.06653565  1
  Zn  Zn132  1  0.31697978  0.05543981  0.56377152  1
  Zn  Zn133  1  0.30741455  0.56237379  0.05819449  1
  Zn  Zn134  1  0.31338077  0.55809908  0.56458502  1
  Zn  Zn135  1  0.80936471  0.06133023  0.06149094  1
  Zn  Zn136  1  0.81932823  0.06651664  0.55897493  1
  Zn  Zn137  1  0.81673224  0.56813889  0.06883800  1
  Zn  Zn138  1  0.81237024  0.56062788  0.56511388  1
  Zn  Zn139  1  0.43586625  0.43645850  0.18578925  1
  Zn  Zn140  1  0.43680834  0.43707270  0.68677232  1
  Zn  Zn141  1  0.43387079  0.94057780  0.18982454  1
  Zn  Zn142  1  0.43670864  0.93344650  0.68881893  1
  Zn  Zn143  1  0.93476837  0.43484861  0.18622396  1
  Zn  Zn144  1  0.94114349  0.44355885  0.68455197  1
  Zn  Zn145  1  0.93270273  0.93731454  0.19057598  1
  Zn  Zn146  1  0.93877472  0.93917443  0.68602760  1
  Zn  Zn147  1  0.06814891  0.06241766  0.31304145  1
  Zn  Zn148  1  0.06333926  0.05985821  0.80475922  1
  Zn  Zn149  1  0.06677100  0.56304734  0.34045733  1
  Zn  Zn150  1  0.06275874  0.55756357  0.80475494  1
  Zn  Zn151  1  0.55914081  0.06190082  0.31709842  1
  Zn  Zn152  1  0.55631242  0.06314933  0.81810735  1
  Zn  Zn153  1  0.56228815  0.56226048  0.31317812  1
  Zn  Zn154  1  0.56040633  0.56625529  0.81324341  1
  Zn  Zn155  1  0.43267377  0.18432565  0.43549928  1
  Zn  Zn156  1  0.43736105  0.18643181  0.94118625  1
  Zn  Zn157  1  0.43998609  0.68923092  0.43949179  1
  Zn  Zn158  1  0.44112547  0.68601394  0.93096421  1
  Zn  Zn159  1  0.93377526  0.19702317  0.43690210  1
  Zn  Zn160  1  0.93496015  0.18980229  0.93375225  1
  Zn  Zn161  1  0.93460153  0.69382213  0.42978926  1
  Zn  Zn162  1  0.93834366  0.69563647  0.93783165  1
  Zn  Zn163  1  0.06180747  0.31436615  0.06002311  1
  Zn  Zn164  1  0.06259632  0.31415458  0.56483255  1
  Zn  Zn165  1  0.06642199  0.81606157  0.04008705  1
  Zn  Zn166  1  0.06289904  0.81140559  0.56686507  1
  Zn  Zn167  1  0.55762836  0.31159971  0.06335264  1
  Zn  Zn168  1  0.56277238  0.30898181  0.56445753  1
  Zn  Zn169  1  0.56060073  0.81154044  0.06353745  1
  Zn  Zn170  1  0.56666123  0.81634157  0.56549609  1
  O  O171  1  0.12440561  0.11618754  0.11647326  1
  O  O172  1  0.11601678  0.11506623  0.62569648  1
  O  O173  1  0.13149631  0.62093312  0.12768451  1
  O  O174  1  0.11699734  0.61760564  0.62346128  1
  O  O175  1  0.62708323  0.11393234  0.12246626  1
  O  O176  1  0.61816883  0.13538018  0.61599265  1
  O  O177  1  0.61807103  0.62011743  0.11358332  1
  O  O178  1  0.62933400  0.61259289  0.61846291  1
  O  O179  1  0.37947686  0.37950941  0.38119787  1
  O  O180  1  0.37181554  0.38475162  0.88042209  1
  O  O181  1  0.38365069  0.86884399  0.38421763  1
  O  O182  1  0.36940217  0.88455207  0.88341607  1
  O  O183  1  0.88344619  0.37721409  0.38217707  1
  O  O184  1  0.88559545  0.36882338  0.88272018  1
  O  O185  1  0.88623613  0.88430608  0.37478457  1
  O  O186  1  0.87949263  0.87842122  0.88091380  1
  O  O187  1  0.24304454  0.01108337  0.36701026  1
  O  O188  1  0.25937493  0.00664402  0.87443510  1
  O  O189  1  0.25668740  0.50398639  0.36999609  1
  O  O190  1  0.25844663  0.51527938  0.88008441  1
  O  O191  1  0.75498457  0.00670298  0.37009145  1
  O  O192  1  0.75058285  0.01579367  0.88272812  1
  O  O193  1  0.74887856  0.50034860  0.36227152  1
  O  O194  1  0.74435071  0.50263495  0.85935954  1
  O  O195  1  0.25447473  0.49329934  0.13396124  1
  O  O196  1  0.23929765  0.49373846  0.62396244  1
  O  O197  1  0.24001088  0.98713129  0.12881749  1
  O  O198  1  0.24137623  0.99397595  0.62641461  1
  O  O199  1  0.74251939  0.49415524  0.13417809  1
  O  O200  1  0.74209916  0.49368356  0.63583306  1
  O  O201  1  0.74163502  0.99163961  0.13114296  1
  O  O202  1  0.75164228  0.99611809  0.62271540  1
  O  O203  1  0.00441410  0.36667898  0.25551371  1
  O  O204  1  -0.00335338  0.36816119  0.75552779  1
  O  O205  1  0.00802378  0.87466908  0.25800281  1
  O  O206  1  -0.00120363  0.86826885  0.75818258  1
  O  O207  1  0.50772956  0.38149226  0.26011653  1
  O  O208  1  0.50476842  0.36893769  0.75271914  1
  O  O209  1  0.50229277  0.86959883  0.25628656  1
  O  O210  1  0.50462789  0.86083101  0.74846527  1
  O  O211  1  0.47934552  0.11563786  0.25439276  1
  O  O212  1  0.48702349  0.13361452  0.75226673  1
  O  O213  1  0.50612112  0.63284652  0.24061250  1
  O  O214  1  0.49298204  0.63759156  0.75336071  1
  O  O215  1  0.99667353  0.13572246  0.24887648  1
  O  O216  1  0.99363133  0.13217807  0.74377277  1
  O  O217  1  1.01418678  0.60625302  0.24304337  1
  O  O218  1  0.99447826  0.63229422  0.74809063  1
  O  O219  1  0.36509008  0.25937577  -0.00265331  1
  O  O220  1  0.38207417  0.25814828  0.50958316  1
  O  O221  1  0.37534784  0.76090227  -0.00752667  1
  O  O222  1  0.37762658  0.76005416  0.50429200  1
  O  O223  1  0.86941730  0.25798544  0.00504611  1
  O  O224  1  0.86630083  0.26901889  0.49468780  1
  O  O225  1  0.87528587  0.76401507  0.00760090  1
  O  O226  1  0.86522658  0.75449300  0.50065392  1
  O  O227  1  0.12377139  0.25421008  0.48798815  1
  O  O228  1  0.12980694  0.24354067  0.99332820  1
  O  O229  1  0.13063453  0.75294962  0.49041937  1
  O  O230  1  0.14081304  0.74692726  0.99267351  1
  O  O231  1  0.62789094  0.25307716  0.48603020  1
  O  O232  1  0.63088639  0.24821935  0.99396324  1
  O  O233  1  0.62787079  0.74330943  0.49488275  1
  O  O234  1  0.62393071  0.74530603  0.98975704  1
  O  O235  1  0.49522155  0.24365388  0.12329979  1
  O  O236  1  0.48766328  0.25212663  0.63451583  1
  O  O237  1  0.50508383  0.74154739  0.13607877  1
  O  O238  1  0.50359485  0.74934653  0.63801736  1
  O  O239  1  0.99512248  0.24928505  0.13248088  1
  O  O240  1  1.00873261  0.23626893  0.63240871  1
  O  O241  1  1.01718543  0.76414620  0.13422340  1
  O  O242  1  0.99979997  0.73727680  0.63012883  1
  O  O243  1  0.00747623  0.25736346  0.36688848  1
  O  O244  1  0.00490125  0.25778119  0.86818678  1
  O  O245  1  0.01576586  0.75683825  0.37329981  1
  O  O246  1  -0.00323647  0.76535135  0.86628019  1
  O  O247  1  0.50451920  0.26074036  0.37835509  1
  O  O248  1  0.50413068  0.25209551  0.86957053  1
  O  O249  1  0.50726142  0.75651740  0.36866100  1
  O  O250  1  0.51552978  0.74757754  0.86568585  1
  O  O251  1  0.25976595  0.11864506  0.48535513  1
  O  O252  1  0.24108615  0.13024847  0.99660048  1
  O  O253  1  0.25973776  0.62389831  0.48699087  1
  O  O254  1  0.25718992  0.63764002  0.98810476  1
  O  O255  1  0.75056257  0.12756913  0.48727206  1
  O  O256  1  0.74250236  0.13254117  0.99527798  1
  O  O257  1  0.74023842  0.63101892  0.49811649  1
  O  O258  1  0.74137345  0.62619332  0.99957811  1
  O  O259  1  0.25072019  0.37288482  0.00594611  1
  O  O260  1  0.26417473  0.37899887  0.50779478  1
  O  O261  1  0.25656757  0.86328826  0.00431165  1
  O  O262  1  0.25866989  0.87396651  0.50864926  1
  O  O263  1  0.75697384  0.37289284  0.00344058  1
  O  O264  1  0.75623308  0.37409850  0.51038544  1
  O  O265  1  0.75631358  0.87403796  0.00836585  1
  O  O266  1  0.75131584  0.86967326  0.51118570  1
  O  O267  1  0.12931646  0.49833378  0.24430873  1
  O  O268  1  0.11786200  0.49422037  0.72779912  1
  O  O269  1  0.13985152  1.00633080  0.24009420  1
  O  O270  1  0.12938345  0.99629310  0.73721321  1
  O  O271  1  0.63110685  0.48962140  0.24770214  1
  O  O272  1  0.62803877  0.49748880  0.74332704  1
  O  O273  1  0.62660974  0.99503588  0.24474192  1
  O  O274  1  0.62677275  1.00538960  0.75735909  1
  O  O275  1  0.35968728  0.00967244  0.24574038  1
  O  O276  1  0.37514931  0.00704359  0.75819712  1
  O  O277  1  0.36739014  0.49212566  0.26100547  1
  O  O278  1  0.38266957  0.50727229  0.76099138  1
  O  O279  1  0.86861038  0.00762829  0.25839098  1
  O  O280  1  0.87882335  0.01460807  0.75163670  1
  O  O281  1  0.85978134  0.49525429  0.25027503  1
  O  O282  1  0.86834723  0.50978763  0.74573481  1
  O  O283  1  0.12079769  0.36826672  0.36919403  1
  O  O284  1  0.11421167  0.37002572  0.87166328  1
  O  O285  1  0.12251423  0.86405841  0.37491059  1
  O  O286  1  0.11249977  0.88045696  0.87452600  1
  O  O287  1  0.61734153  0.37045487  0.36963426  1
  O  O288  1  0.62398529  0.36747775  0.86821607  1
  O  O289  1  0.61807963  0.86470655  0.37237120  1
  O  O290  1  0.62886014  0.86356288  0.87304982  1
  O  O291  1  0.37073982  0.12648371  0.13861093  1
  O  O292  1  0.37817363  0.13042082  0.63311284  1
  O  O293  1  0.38633188  0.62015475  0.12091395  1
  O  O294  1  0.37031187  0.62385357  0.64007621  1
  O  O295  1  0.87550268  0.13007502  0.13066218  1
  O  O296  1  0.89032135  0.12302366  0.62917287  1
  O  O297  1  0.87871518  0.63024483  0.13455769  1
  O  O298  1  0.88767840  0.62509950  0.62973889  1
  O  O299  1  0.25129270  0.25860052  0.11759511  1
  O  O300  1  0.26226650  0.25604361  0.62888987  1
  O  O301  1  0.25233338  0.75674252  0.10969904  1
  O  O302  1  0.25202816  0.75745069  0.62319929  1
  O  O303  1  0.75344682  0.25703725  0.11989170  1
  O  O304  1  0.74622965  0.26669622  0.62778319  1
  O  O305  1  0.73855286  0.76498232  0.12243326  1
  O  O306  1  0.75101323  0.75271236  0.61411220  1
  O  O307  1  0.24117600  0.23702705  0.37259925  1
  O  O308  1  0.24259129  0.24520208  0.88124047  1
  O  O309  1  0.24241590  0.74303009  0.37764614  1
  O  O310  1  0.25568225  0.73958754  0.88464148  1
  O  O311  1  0.74161127  0.24194668  0.37294490  1
  O  O312  1  0.74319628  0.24240517  0.87859095  1
  O  O313  1  0.74152803  0.75338921  0.38671604  1
  O  O314  1  0.73665814  0.74537393  0.87458406  1
  O  O315  1  0.01195392  0.13041064  -0.00028785  1
  O  O316  1  -0.00469032  0.13229428  0.51126970  1
  O  O317  1  -0.00320271  0.61168502  -0.00759874  1
  O  O318  1  -0.00482691  0.62923458  0.50799012  1
  O  O319  1  0.50561522  0.11348553  0.00320464  1
  O  O320  1  0.49470526  0.10603024  0.49463014  1
  O  O321  1  0.50568614  0.62069127  0.00603135  1
  O  O322  1  0.51367787  0.61578281  0.49488840  1
  O  O323  1  0.49312557  0.38113933  0.49294992  1
  O  O324  1  0.49130283  0.38423116  0.99820803  1
  O  O325  1  0.49680318  0.88091622  0.49517654  1
  O  O326  1  0.49243615  0.88711282  1.00704204  1
  O  O327  1  0.98752652  0.36863166  0.49484199  1
  O  O328  1  0.99335554  0.38145784  0.99190538  1
  O  O329  1  0.99924648  0.87143892  0.48832333  1
  O  O330  1  0.99285255  0.87714266  0.98370228  1
  O  O331  1  0.49513992  0.49129410  0.38294810  1
  O  O332  1  0.49126192  0.50067607  0.88280818  1
  O  O333  1  0.50133129  0.98463605  0.38144866  1
  O  O334  1  0.48500459  1.00453804  0.88730798  1
  O  O335  1  0.99956598  0.48232474  0.37525183  1
  O  O336  1  1.00273790  0.49201113  0.88334826  1
  O  O337  1  0.99551149  0.99164106  0.36744647  1
  O  O338  1  0.99625390  0.98690954  0.86766913  1
  O  O339  1  0.01447800  -0.00169923  0.13348376  1
  O  O340  1  0.01146476  0.01214783  0.62561948  1
  O  O341  1  0.00635588  0.49692696  0.11549621  1
  O  O342  1  0.00705998  0.51670602  0.62205873  1
  O  O343  1  0.50672205  0.00437486  0.12136703  1
  O  O344  1  0.49750150  -0.00172032  0.61225340  1
  O  O345  1  0.50474217  0.50597026  0.11968205  1
  O  O346  1  0.50816805  0.49325481  0.61249012  1
  O  O347  1  0.24453489  0.38444177  0.24496887  1
  O  O348  1  0.25051690  0.37288259  0.73794108  1
  O  O349  1  0.25656730  0.88168612  0.23987246  1
  O  O350  1  0.25079176  0.87493212  0.74002019  1
  O  O351  1  0.74216856  0.38331927  0.24570459  1
  O  O352  1  0.74647607  0.38118837  0.74568958  1
  O  O353  1  0.74176854  0.88140056  0.24508505  1
  O  O354  1  0.75081659  0.87246219  0.73499397  1
  O  O355  1  0.25686965  0.11750417  0.25580807  1
  O  O356  1  0.26085327  0.12691555  0.75527480  1
  O  O357  1  0.25279919  0.61208251  0.26295910  1
  O  O358  1  0.26105223  0.63523233  0.76303543  1
  O  O359  1  0.75318635  0.12087729  0.25901472  1
  O  O360  1  0.76005211  0.12928463  0.75644637  1
  O  O361  1  0.73944614  0.60883196  0.25133099  1
  O  O362  1  0.76057151  0.61794858  0.74821116  1
  O  O363  1  0.36054439  0.12838261  0.36440165  1
  O  O364  1  0.36847849  0.11961094  0.87004478  1
  O  O365  1  0.37480516  0.61217614  0.37824214  1
  O  O366  1  0.37040196  0.61900498  0.86594282  1
  O  O367  1  0.86948453  0.12248525  0.36899576  1
  O  O368  1  0.86604506  0.12495157  0.86731760  1
  O  O369  1  0.87517978  0.62158583  0.36415079  1
  O  O370  1  0.87332796  0.63078006  0.86362644  1
  O  O371  1  0.13612723  0.37112726  0.13085673  1
  O  O372  1  0.13451915  0.37894397  0.62585411  1
  O  O373  1  0.12932578  0.87432673  0.13178377  1
  O  O374  1  0.13138423  0.88470674  0.62516072  1
  O  O375  1  0.62776555  0.38078766  0.13215005  1
  O  O376  1  0.63068563  0.38454762  0.63026782  1
  O  O377  1  0.62847141  0.88579684  0.12860395  1
  O  O378  1  0.64294637  0.87500190  0.62832548  1
  O  O379  1  0.11819766  0.25391120  0.25419848  1
  O  O380  1  0.11435024  0.25090843  0.75688839  1
  O  O381  1  0.13278758  0.75227458  0.25541887  1
  O  O382  1  0.11235351  0.75422415  0.74556816  1
  O  O383  1  0.62813085  0.26322140  0.26036522  1
  O  O384  1  0.60945107  0.25566820  0.75681704  1
  O  O385  1  0.62020022  0.75580359  0.25874966  1
  O  O386  1  0.61754393  0.74797668  0.75857586  1
  O  O387  1  0.36701471  0.23539536  0.24899746  1
  O  O388  1  0.38260263  0.24435046  0.74620250  1
  O  O389  1  0.38554239  0.74973083  0.25384714  1
  O  O390  1  0.39051220  0.74462281  0.75012080  1
  O  O391  1  0.88283031  0.24718801  0.24497340  1
  O  O392  1  0.88830502  0.24032418  0.75300371  1
  O  O393  1  0.87578695  0.75189566  0.24045667  1
  O  O394  1  0.88453483  0.74167354  0.74517454  1
  O  O395  1  0.38432470  0.49266761  0.49484622  1
  O  O396  1  0.37763562  0.49465443  0.99047550  1
  O  O397  1  0.38696120  0.98501571  0.50145864  1
  O  O398  1  0.37853834  0.99340996  0.99588292  1
  O  O399  1  0.86617492  0.48354600  0.49658404  1
  O  O400  1  0.88240825  0.48967556  1.00472088  1
  O  O401  1  0.87478804  0.99974793  0.48383179  1
  O  O402  1  0.87265472  0.98845238  1.00004539  1
  O  O403  1  0.13065263  0.00803822  0.01031772  1
  O  O404  1  0.12787150  -0.00160302  0.51421381  1
  O  O405  1  0.11119155  0.50058188  -0.00030609  1
  O  O406  1  0.12314372  0.49228860  0.51721844  1
  O  O407  1  0.61611956  0.00307248  0.00751420  1
  O  O408  1  0.60899794  -0.00103817  0.49375735  1
  O  O409  1  0.61908970  0.50714721  0.00373529  1
  O  O410  1  0.62098529  0.50526964  0.50565774  1
  O  O411  1  0.36297469  0.37499466  0.11728002  1
  O  O412  1  0.36882175  0.36960639  0.61887757  1
  O  O413  1  0.36579347  0.88083139  0.11464843  1
  O  O414  1  0.36614544  0.87229672  0.61930180  1
  O  O415  1  0.86885343  0.36906431  0.11619497  1
  O  O416  1  0.87017726  0.37958397  0.61587282  1
  O  O417  1  0.86608589  0.87621470  0.11926579  1
  O  O418  1  0.86401904  0.87635847  0.62274925  1
  O  O419  1  0.13836805  0.13298007  0.37274441  1
  O  O420  1  0.12922847  0.12717142  0.88052209  1
  O  O421  1  0.13630567  0.63973363  0.37714809  1
  O  O422  1  0.14126746  0.61996329  0.86558891  1
  O  O423  1  0.63107200  0.13295519  0.37583109  1
  O  O424  1  0.62943015  0.13460493  0.88206360  1
  O  O425  1  0.62667533  0.63609552  0.38136781  1
  O  O426  1  0.62514884  0.63055773  0.88755795  1
