# generated using pymatgen
data_V85Zn86O256
_symmetry_space_group_name_H-M   'P 1'
_cell_length_a   16.95721717
_cell_length_b   16.97454213
_cell_length_c   16.96403406
_cell_angle_alpha   89.98767143
_cell_angle_beta   89.98662846
_cell_angle_gamma   89.90949063
_symmetry_Int_Tables_number   1
_chemical_formula_structural   V85Zn86O256
_chemical_formula_sum   'V85 Zn86 O256'
_cell_volume   4882.93814270
_cell_formula_units_Z   1
loop_
 _symmetry_equiv_pos_site_id
 _symmetry_equiv_pos_as_xyz
  1  'x, y, z'
loop_
 _atom_site_type_symbol
 _atom_site_label
 _atom_site_symmetry_multiplicity
 _atom_site_fract_x
 _atom_site_fract_y
 _atom_site_fract_z
 _atom_site_occupancy
  V  V0  1  -0.01023913  0.49838794  0.00516860  1
  V  V1  1  0.74960835  0.87704864  0.62664657  1
  V  V2  1  0.35065058  0.87340147  0.01161383  1
  V  V3  1  0.37763708  0.74718442  0.62917499  1
  V  V4  1  0.75017374  0.00328633  0.74850201  1
  V  V5  1  0.50149869  0.37619835  0.87360816  1
  V  V6  1  0.12423624  0.61938811  0.00730569  1
  V  V7  1  0.12461066  0.12833073  0.50019765  1
  V  V8  1  0.50683058  0.86252101  0.37940049  1
  V  V9  1  0.49649538  0.12484518  0.62421130  1
  V  V10  1  0.12599551  -0.00099363  0.62454756  1
  V  V11  1  0.74129592  0.75053276  0.49302320  1
  V  V12  1  0.37925666  0.62493593  0.25686829  1
  V  V13  1  0.38413936  0.24741064  0.12869369  1
  V  V14  1  0.50515239  0.74858821  0.76113548  1
  V  V15  1  0.50226951  0.24988162  0.25811350  1
  V  V16  1  0.37546048  0.62167422  0.75315844  1
  V  V17  1  0.88410058  0.24787427  0.12764877  1
  V  V18  1  0.87539324  0.87663352  0.50170810  1
  V  V19  1  0.61432054  0.11744831  0.01387197  1
  V  V20  1  0.25179291  0.75073181  0.50393368  1
  V  V21  1  0.25132349  0.87310706  0.62949221  1
  V  V22  1  0.24777908  0.37348408  0.13101188  1
  V  V23  1  0.00520512  0.87501391  0.37140801  1
  V  V24  1  0.12095895  0.50052780  0.62804410  1
  V  V25  1  0.62571280  0.25071184  0.87577145  1
  V  V26  1  0.24782474  0.37473980  0.62789879  1
  V  V27  1  0.11429429  0.12285098  0.01129801  1
  V  V28  1  0.87540214  0.74506183  0.62748310  1
  V  V29  1  0.48955807  0.89193118  0.88327969  1
  V  V30  1  0.62249789  0.49880821  0.12129908  1
  V  V31  1  -0.00091932  0.50107868  0.49705889  1
  V  V32  1  0.63402854  0.37754114  0.73450497  1
  V  V33  1  -0.00212525  0.87454314  0.88080421  1
  V  V34  1  0.37161994  0.38487880  0.49176536  1
  V  V35  1  0.37497202  0.12132701  0.75430577  1
  V  V36  1  0.62227952  0.13658421  0.49571842  1
  V  V37  1  0.49402366  0.63279250  0.12271839  1
  V  V38  1  0.00286659  0.37809422  0.35466892  1
  V  V39  1  0.12364003  0.37470171  0.75370349  1
  V  V40  1  -0.00460699  0.74245163  0.75385768  1
  V  V41  1  0.12452176  0.87377204  0.75364260  1
  V  V42  1  0.12794606  -0.00452393  0.14917853  1
  V  V43  1  0.75493525  0.51114131  0.24339211  1
  V  V44  1  0.75054505  0.63114350  0.86599754  1
  V  V45  1  0.12368879  0.24911520  0.87904790  1
  V  V46  1  0.87132245  0.00002387  0.36524481  1
  V  V47  1  0.87711878  0.00334051  0.87509750  1
  V  V48  1  0.37771778  0.87294363  0.50274864  1
  V  V49  1  0.62320650  0.63226339  -0.00672540  1
  V  V50  1  0.50030027  0.00005683  0.49977979  1
  V  V51  1  0.37715708  0.37367481  0.00072925  1
  V  V52  1  0.87121272  0.87151357  0.00017007  1
  V  V53  1  0.12793172  0.75261547  0.37155213  1
  V  V54  1  0.62845711  0.37242243  0.25472451  1
  V  V55  1  0.75286122  0.25394384  0.00069353  1
  V  V56  1  0.00044179  0.00066002  0.50266662  1
  V  V57  1  0.25190694  -0.00096353  0.75322703  1
  V  V58  1  -0.00196439  0.12587591  0.62441326  1
  V  V59  1  0.43405419  0.07540494  0.19232019  1
  V  V60  1  0.87634268  0.51258682  0.36468562  1
  V  V61  1  -0.00221220  0.24964910  0.75191704  1
  V  V62  1  0.62187113  0.87365548  0.24287083  1
  V  V63  1  0.74611683  0.88183527  0.12233158  1
  V  V64  1  0.11907263  0.49448207  0.13340204  1
  V  V65  1  0.75740144  0.25698203  0.49552360  1
  V  V66  1  0.24297510  0.24999847  0.50031129  1
  V  V67  1  -0.00699941  0.37478636  0.88056895  1
  V  V68  1  0.25169220  0.62463661  0.88353154  1
  V  V69  1  0.62460015  0.87416539  0.75989076  1
  V  V70  1  0.75931106  0.37572849  0.11945909  1
  V  V71  1  0.49926750  0.25070061  0.74760006  1
  V  V72  1  0.12716119  0.74818960  0.88309946  1
  V  V73  1  0.74810252  0.12712664  0.87421793  1
  V  V74  1  0.25122084  0.11993963  0.87841716  1
  V  V75  1  0.87307419  0.50112070  0.86499511  1
  V  V76  1  0.25744601  0.49376825  0.25892016  1
  V  V77  1  0.51288364  0.61599524  0.62481435  1
  V  V78  1  0.12586688  0.62718876  0.50404553  1
  V  V79  1  0.74696669  0.12695444  0.37339503  1
  V  V80  1  0.25145858  0.12451276  0.36488072  1
  V  V81  1  0.37006866  0.00327110  0.37682068  1
  V  V82  1  0.25053038  0.24800258  0.00212061  1
  V  V83  1  0.12175605  0.25655944  0.35811318  1
  V  V84  1  0.62487433  0.00207582  0.62402977  1
  Zn  Zn85  1  0.87320283  0.37920134  0.49613531  1
  Zn  Zn86  1  0.74631661  0.75113209  -0.00244596  1
  Zn  Zn87  1  0.62973909  0.61652444  0.48761933  1
  Zn  Zn88  1  0.49946714  0.50089972  -0.00069694  1
  Zn  Zn89  1  0.24719306  0.84669009  0.15215935  1
  Zn  Zn90  1  0.73946544  0.00493410  0.24319411  1
  Zn  Zn91  1  -0.00601857  0.73542183  0.24930444  1
  Zn  Zn92  1  -0.00328032  0.62408294  0.62945951  1
  Zn  Zn93  1  0.88295048  0.12450050  0.23658819  1
  Zn  Zn94  1  0.24772141  0.49948080  0.75454944  1
  Zn  Zn95  1  0.74785843  0.64192648  0.35574149  1
  Zn  Zn96  1  0.37323157  0.49770902  0.87684246  1
  Zn  Zn97  1  0.49713787  0.37981665  0.37116075  1
  Zn  Zn98  1  0.86754470  0.25492045  0.62567005  1
  Zn  Zn99  1  0.50769014  0.74100628  0.25635451  1
  Zn  Zn100  1  0.37257546  0.25040550  0.62323535  1
  Zn  Zn101  1  0.87291533  0.12669568  0.74746149  1
  Zn  Zn102  1  0.87348054  0.73733294  0.13523527  1
  Zn  Zn103  1  0.51499023  0.49354645  0.49792507  1
  Zn  Zn104  1  -0.00699653  0.00692892  0.01702709  1
  Zn  Zn105  1  0.74619804  0.50475146  0.73297538  1
  Zn  Zn106  1  0.25797245  0.61554558  0.38382724  1
  Zn  Zn107  1  0.19114389  0.18344293  0.18385829  1
  Zn  Zn108  1  0.18506186  0.18804232  0.68913408  1
  Zn  Zn109  1  0.18846284  0.67336868  0.19452838  1
  Zn  Zn110  1  0.18697502  0.68657417  0.69404831  1
  Zn  Zn111  1  0.68883753  0.18808368  0.18888397  1
  Zn  Zn112  1  0.68724406  0.19218716  0.68227010  1
  Zn  Zn113  1  0.68389463  0.69538115  0.17890774  1
  Zn  Zn114  1  0.68941650  0.69283173  0.68868899  1
  Zn  Zn115  1  0.31310015  0.30559900  0.31116973  1
  Zn  Zn116  1  0.31283287  0.30761117  0.81336030  1
  Zn  Zn117  1  0.32178303  0.80271213  0.32117095  1
  Zn  Zn118  1  0.31457036  0.80789459  0.82075904  1
  Zn  Zn119  1  0.81534072  0.31785753  0.31010691  1
  Zn  Zn120  1  0.81382753  0.31503538  0.81287341  1
  Zn  Zn121  1  0.81478939  0.81829148  0.30595407  1
  Zn  Zn122  1  0.81220213  0.81226731  0.81251960  1
  Zn  Zn123  1  0.18090787  0.43389083  0.43821033  1
  Zn  Zn124  1  0.18746875  0.43807925  0.94104301  1
  Zn  Zn125  1  0.19171228  0.93311892  0.31932062  1
  Zn  Zn126  1  0.18409806  0.94120586  0.94158140  1
  Zn  Zn127  1  0.68720160  0.44565599  0.43261922  1
  Zn  Zn128  1  0.68902901  0.44111771  0.93433884  1
  Zn  Zn129  1  0.68560042  0.93760865  0.43603326  1
  Zn  Zn130  1  0.68580491  0.94125844  0.93749608  1
  Zn  Zn131  1  0.30818918  0.05074761  0.05587515  1
  Zn  Zn132  1  0.31090454  0.06269288  0.56163263  1
  Zn  Zn133  1  0.31274031  0.55989382  0.06667932  1
  Zn  Zn134  1  0.31220571  0.56110189  0.57109391  1
  Zn  Zn135  1  0.80650004  0.06514183  0.06019867  1
  Zn  Zn136  1  0.81256845  0.06814871  0.55840115  1
  Zn  Zn137  1  0.80873929  0.56278459  0.05371481  1
  Zn  Zn138  1  0.80875182  0.56285195  0.55779369  1
  Zn  Zn139  1  0.43955955  0.43837117  0.18800215  1
  Zn  Zn140  1  0.43579792  0.43726784  0.68682769  1
  Zn  Zn141  1  0.42028910  0.91268402  0.19792890  1
  Zn  Zn142  1  0.43854387  0.93791579  0.69270823  1
  Zn  Zn143  1  0.93911688  0.56953107  0.18165021  1
  Zn  Zn144  1  0.90393939  0.44883432  0.66243589  1
  Zn  Zn145  1  0.96985605  0.89547505  0.16099700  1
  Zn  Zn146  1  0.93731937  0.93528377  0.69114326  1
  Zn  Zn147  1  0.05441084  0.07103100  0.31557228  1
  Zn  Zn148  1  0.06394162  0.06368170  0.81454910  1
  Zn  Zn149  1  0.07289814  0.56229190  0.31605785  1
  Zn  Zn150  1  0.06137979  0.56068777  0.81711138  1
  Zn  Zn151  1  0.56509794  0.05472819  0.31746484  1
  Zn  Zn152  1  0.56402332  0.06417683  0.81418379  1
  Zn  Zn153  1  0.56703264  0.55779891  0.32030946  1
  Zn  Zn154  1  0.56635524  0.55704383  0.81066912  1
  Zn  Zn155  1  0.43201766  0.19256729  0.43781395  1
  Zn  Zn156  1  0.43804435  0.18577584  0.93739292  1
  Zn  Zn157  1  0.43835891  0.67917703  0.44030694  1
  Zn  Zn158  1  0.43604558  0.69305717  0.94037526  1
  Zn  Zn159  1  0.94047817  0.18415035  0.41040591  1
  Zn  Zn160  1  0.93268588  0.18974107  0.94027402  1
  Zn  Zn161  1  0.93616649  0.68917244  0.43556767  1
  Zn  Zn162  1  0.93486814  0.68175015  0.94732700  1
  Zn  Zn163  1  0.06223126  0.31554759  0.06498204  1
  Zn  Zn164  1  0.04187011  0.32314307  0.56926997  1
  Zn  Zn165  1  0.09695867  0.78411376  0.09340196  1
  Zn  Zn166  1  0.06256261  0.81292712  0.56349074  1
  Zn  Zn167  1  0.56599679  0.30970094  0.06403203  1
  Zn  Zn168  1  0.55927861  0.31028693  0.55890882  1
  Zn  Zn169  1  0.55980368  0.81381654  0.06035381  1
  Zn  Zn170  1  0.56232111  0.81098819  0.57149983  1
  O  O171  1  0.11921388  0.12621839  0.11406506  1
  O  O172  1  0.12021090  0.11798882  0.62141297  1
  O  O173  1  0.12815210  0.60927057  0.11283392  1
  O  O174  1  0.12289507  0.62265792  0.61855122  1
  O  O175  1  0.62906767  0.12620353  0.11272102  1
  O  O176  1  0.61633154  0.12130831  0.61710590  1
  O  O177  1  0.61799283  0.61694456  0.11532288  1
  O  O178  1  0.61328713  0.62829804  0.62932415  1
  O  O179  1  0.36898485  0.37107898  0.39028042  1
  O  O180  1  0.38267640  0.37193051  0.88198295  1
  O  O181  1  0.38537204  0.88133319  0.38656103  1
  O  O182  1  0.38783273  0.87953335  0.86890841  1
  O  O183  1  0.88900053  0.38492213  0.37383499  1
  O  O184  1  0.88465916  0.38207399  0.87348809  1
  O  O185  1  0.87985271  0.88364364  0.38590883  1
  O  O186  1  0.87838030  0.88402144  0.87759865  1
  O  O187  1  0.26249235  0.00784237  0.37959316  1
  O  O188  1  0.24167470  0.01313689  0.86886797  1
  O  O189  1  0.24287332  0.49631958  0.36217055  1
  O  O190  1  0.25191975  0.50789115  0.87334450  1
  O  O191  1  0.75558148  0.00326692  0.37285382  1
  O  O192  1  0.75951609  0.00579756  0.86861588  1
  O  O193  1  0.76248517  0.49757108  0.35766685  1
  O  O194  1  0.75891598  0.50507272  0.86733393  1
  O  O195  1  0.24443776  0.48863390  0.13161721  1
  O  O196  1  0.24056700  0.49108523  0.63179221  1
  O  O197  1  0.22572962  1.01965318  0.12883957  1
  O  O198  1  0.24560458  0.99299039  0.63197881  1
  O  O199  1  0.74442743  0.49314598  0.12445933  1
  O  O200  1  0.79690240  0.48516866  0.63454839  1
  O  O201  1  0.75165109  0.98758481  0.12461991  1
  O  O202  1  0.74583781  0.99712185  0.62883644  1
  O  O203  1  0.00160047  0.37857342  0.25958844  1
  O  O204  1  0.00848552  0.36317847  0.76279844  1
  O  O205  1  -0.00054539  0.87883585  0.27195770  1
  O  O206  1  0.00572560  0.86891093  0.76137011  1
  O  O207  1  0.50855584  0.36680254  0.24850299  1
  O  O208  1  0.50468662  0.36957944  0.75537075  1
  O  O209  1  0.50506059  0.86692691  0.26029939  1
  O  O210  1  0.50655397  0.86824184  0.75590110  1
  O  O211  1  0.50373252  0.13000275  0.24929782  1
  O  O212  1  0.49227458  0.12946017  0.74657299  1
  O  O213  1  0.49171955  0.61989399  0.24285488  1
  O  O214  1  0.49702565  0.62893548  0.74544768  1
  O  O215  1  0.97129451  0.14047457  0.30370397  1
  O  O216  1  0.99943139  0.13228762  0.74484711  1
  O  O217  1  1.01086831  0.62267220  0.24783201  1
  O  O218  1  1.00520553  0.63936805  0.75194556  1
  O  O219  1  0.37137515  0.25706925  0.00587771  1
  O  O220  1  0.35878212  0.25891973  0.50316151  1
  O  O221  1  0.37806047  0.77688828  -0.01415854  1
  O  O222  1  0.36976445  0.75060664  0.50846682  1
  O  O223  1  0.85945572  0.24795987  0.00610605  1
  O  O224  1  0.86220408  0.24608434  0.49204913  1
  O  O225  1  0.87326086  0.76557772  -0.00576771  1
  O  O226  1  0.87050207  0.76232389  0.50703029  1
  O  O227  1  0.13418480  0.25071675  0.49851562  1
  O  O228  1  0.12928277  0.23984598  0.99890342  1
  O  O229  1  0.13391865  0.74412304  0.50103784  1
  O  O230  1  0.10884453  0.73464998  0.98583189  1
  O  O231  1  0.63071129  0.24063386  0.49878890  1
  O  O232  1  0.63212438  0.24425607  0.99132088  1
  O  O233  1  0.64049827  0.75344272  0.50781201  1
  O  O234  1  0.62377247  0.73548418  1.00052264  1
  O  O235  1  0.48853997  0.25225123  0.13080005  1
  O  O236  1  0.49616571  0.24150228  0.63039009  1
  O  O237  1  0.50477909  0.73519733  0.12773540  1
  O  O238  1  0.49423316  0.74108462  0.63686188  1
  O  O239  1  0.98246861  0.25529441  0.11742107  1
  O  O240  1  1.01253439  0.23415322  0.63714299  1
  O  O241  1  0.99565389  0.78279724  0.13804548  1
  O  O242  1  0.99340580  0.75251132  0.63592794  1
  O  O243  1  0.01144060  0.27241144  0.38544722  1
  O  O244  1  0.00171930  0.25506266  0.87126810  1
  O  O245  1  0.01111452  0.75909929  0.38273969  1
  O  O246  1  0.00055163  0.75724976  0.87032944  1
  O  O247  1  0.49395451  0.25530050  0.36212523  1
  O  O248  1  0.50648902  0.25840568  0.86847715  1
  O  O249  1  0.49433070  0.75956048  0.37884894  1
  O  O250  1  0.50037417  0.75529544  0.86263648  1
  O  O251  1  0.24333785  0.13399744  0.49730077  1
  O  O252  1  0.24132011  0.12895639  0.99369185  1
  O  O253  1  0.24656358  0.63373112  0.50637471  1
  O  O254  1  0.24290994  0.61676784  0.99061530  1
  O  O255  1  0.73755046  0.13181412  0.49520453  1
  O  O256  1  0.74036823  0.13438882  0.99018337  1
  O  O257  1  0.75144087  0.64455850  0.50311405  1
  O  O258  1  0.73884202  0.62632046  0.98636224  1
  O  O259  1  0.25805973  0.36745475  0.00744948  1
  O  O260  1  0.25370149  0.37061664  0.50777407  1
  O  O261  1  0.24924884  0.87063732  -0.00071008  1
  O  O262  1  0.25885044  0.85923392  0.51303243  1
  O  O263  1  0.73942234  0.36564400  0.00617304  1
  O  O264  1  0.75256542  0.35902047  0.48623744  1
  O  O265  1  0.75351230  0.87444304  0.00154817  1
  O  O266  1  0.75571669  0.86927461  0.50618288  1
  O  O267  1  0.13924936  0.50305902  0.23746514  1
  O  O268  1  0.12306676  0.49300518  0.74519407  1
  O  O269  1  0.12469862  1.00586305  0.25508789  1
  O  O270  1  0.13078628  0.99351015  0.74603174  1
  O  O271  1  0.63303771  0.49205349  0.23596292  1
  O  O272  1  0.62821556  0.48194318  0.74850888  1
  O  O273  1  0.62266637  0.98100215  0.25330539  1
  O  O274  1  0.63111934  0.99647351  0.74375732  1
  O  O275  1  0.38337326  0.01160674  0.25940253  1
  O  O276  1  0.36800159  0.01375140  0.74578260  1
  O  O277  1  0.36648778  0.50686984  0.24508231  1
  O  O278  1  0.37444078  0.51160093  0.75359904  1
  O  O279  1  0.87240141  0.00326344  0.26396453  1
  O  O280  1  0.86720577  0.00196875  0.75621301  1
  O  O281  1  0.86693474  0.50326544  0.25124224  1
  O  O282  1  0.88896590  0.50080163  0.76552748  1
  O  O283  1  0.11777493  0.36917330  0.36885226  1
  O  O284  1  0.12109676  0.36711644  0.87277263  1
  O  O285  1  0.11894786  0.86559725  0.38298085  1
  O  O286  1  0.11642284  0.86734137  0.87510766  1
  O  O287  1  0.62940570  0.37599472  0.35663445  1
  O  O288  1  0.61834214  0.36554920  0.87018058  1
  O  O289  1  0.61268347  0.87896863  0.36909555  1
  O  O290  1  0.61724146  0.88221937  0.86321938  1
  O  O291  1  0.37205129  0.12857502  0.12514077  1
  O  O292  1  0.37991460  0.12642152  0.63201258  1
  O  O293  1  0.38437705  0.61806392  0.13470870  1
  O  O294  1  0.38186004  0.62919835  0.63624337  1
  O  O295  1  0.86980252  0.14064612  0.12138762  1
  O  O296  1  0.88563038  0.13009441  0.62602423  1
  O  O297  1  0.88416366  0.62813831  0.10206057  1
  O  O298  1  0.87854399  0.64296722  0.61834499  1
  O  O299  1  0.26046703  0.25474091  0.12130847  1
  O  O300  1  0.24664728  0.25820890  0.61922183  1
  O  O301  1  0.20309466  0.74979708  0.11689897  1
  O  O302  1  0.25718564  0.75258046  0.62563910  1
  O  O303  1  0.74822695  0.25829157  0.11516945  1
  O  O304  1  0.75256091  0.24526823  0.60348957  1
  O  O305  1  0.75317946  0.76494643  0.11738063  1
  O  O306  1  0.75808875  0.75956803  0.62030419  1
  O  O307  1  0.24154080  0.24583741  0.38231127  1
  O  O308  1  0.24398363  0.24092237  0.88225455  1
  O  O309  1  0.24624545  0.74523710  0.39037599  1
  O  O310  1  0.23765465  0.73919351  0.87177449  1
  O  O311  1  0.75423159  0.23825116  0.38120417  1
  O  O312  1  0.74367620  0.24856141  0.88022133  1
  O  O313  1  0.75641024  0.75747140  0.39110959  1
  O  O314  1  0.75182321  0.73507405  0.87356726  1
  O  O315  1  0.01157473  0.12497390  -0.00601104  1
  O  O316  1  0.00451522  0.12257524  0.50783663  1
  O  O317  1  0.01315549  0.60861037  -0.01095994  1
  O  O318  1  0.00946469  0.61865563  0.49910334  1
  O  O319  1  0.51499404  0.13306229  -0.00120571  1
  O  O320  1  0.50475930  0.12356893  0.50288894  1
  O  O321  1  0.50294115  0.62237416  0.00426322  1
  O  O322  1  0.50375031  0.62693435  0.51728157  1
  O  O323  1  0.48088610  0.37209210  0.50300305  1
  O  O324  1  0.49384768  0.37176094  0.99136621  1
  O  O325  1  0.49811252  0.87833198  0.49777242  1
  O  O326  1  0.50449943  0.87647011  0.98307279  1
  O  O327  1  1.01486796  0.39728560  0.48584331  1
  O  O328  1  1.00776740  0.38281696  0.98752999  1
  O  O329  1  0.99213493  0.88031650  0.49870962  1
  O  O330  1  0.99006311  0.88454781  0.98566871  1
  O  O331  1  0.50262322  0.49163076  0.38320521  1
  O  O332  1  0.49837975  0.48575719  0.87616293  1
  O  O333  1  0.48857862  0.99418996  0.38420063  1
  O  O334  1  0.49830001  0.99011293  0.86867067  1
  O  O335  1  0.99662344  0.49581055  0.37584126  1
  O  O336  1  0.99614639  0.49122004  0.88285726  1
  O  O337  1  0.99161808  0.99302625  0.38835112  1
  O  O338  1  0.98718110  0.99462517  0.86935198  1
  O  O339  1  0.01860845  -0.00281764  0.12987123  1
  O  O340  1  0.00323159  0.00964984  0.62534218  1
  O  O341  1  0.00916161  0.49208302  0.11574542  1
  O  O342  1  0.00287572  0.50551053  0.61454800  1
  O  O343  1  0.48010534  0.00666812  0.14050517  1
  O  O344  1  0.50356880  0.00607865  0.61997949  1
  O  O345  1  0.50941372  0.50604720  0.12170412  1
  O  O346  1  0.49539263  0.51412923  0.62419653  1
  O  O347  1  0.25993072  0.37865324  0.23851665  1
  O  O348  1  0.24348566  0.37266309  0.74446628  1
  O  O349  1  0.26815451  0.87792246  0.25885895  1
  O  O350  1  0.24544895  0.87798931  0.74926007  1
  O  O351  1  0.74473091  0.38224293  0.23777608  1
  O  O352  1  0.73606177  0.36979300  0.74916251  1
  O  O353  1  0.73784490  0.87913416  0.24166123  1
  O  O354  1  0.74213803  0.88115023  0.74692844  1
  O  O355  1  0.25217413  0.13172608  0.26576375  1
  O  O356  1  0.25565041  0.12220875  0.75773658  1
  O  O357  1  0.26368451  0.61305910  0.25468350  1
  O  O358  1  0.25938911  0.62389895  0.76111125  1
  O  O359  1  0.75381253  0.12256109  0.25952843  1
  O  O360  1  0.74970327  0.12290051  0.75527658  1
  O  O361  1  0.74483609  0.61403962  0.23809556  1
  O  O362  1  0.74388390  0.62175220  0.76105870  1
  O  O363  1  0.36446349  0.11519534  0.38627990  1
  O  O364  1  0.36387105  0.13062054  0.86744171  1
  O  O365  1  0.37567320  0.62075428  0.36324804  1
  O  O366  1  0.36893454  0.62358628  0.87185558  1
  O  O367  1  0.85367718  0.10678453  0.39963931  1
  O  O368  1  0.86817042  0.11857024  0.87279909  1
  O  O369  1  0.86791498  0.61585169  0.37746490  1
  O  O370  1  0.85901074  0.61678186  0.88111783  1
  O  O371  1  0.13803593  0.38011856  0.12062177  1
  O  O372  1  0.13094410  0.37888229  0.63173389  1
  O  O373  1  0.13596515  0.89501207  0.13361487  1
  O  O374  1  0.13080691  0.87904290  0.63293818  1
  O  O375  1  0.63055866  0.38367474  0.12827406  1
  O  O376  1  0.62086616  0.36689853  0.63712554  1
  O  O377  1  0.62814935  0.87354173  0.13325740  1
  O  O378  1  0.62972180  0.88391947  0.63499092  1
  O  O379  1  0.12652243  0.24358739  0.25970333  1
  O  O380  1  0.11600740  0.25190250  0.75970141  1
  O  O381  1  0.12673471  0.74094203  0.27093244  1
  O  O382  1  0.11711859  0.75534731  0.76202326  1
  O  O383  1  0.61436975  0.26012529  0.23944474  1
  O  O384  1  0.61920199  0.25716367  0.75606550  1
  O  O385  1  0.62423043  0.76574595  0.25043437  1
  O  O386  1  0.61722702  0.76321250  0.74440818  1
  O  O387  1  0.38578484  0.24956778  0.24097277  1
  O  O388  1  0.37986117  0.23853980  0.74704767  1
  O  O389  1  0.38055556  0.72916370  0.25178352  1
  O  O390  1  0.38267908  0.73818421  0.74944887  1
  O  O391  1  0.86691456  0.25235193  0.22960016  1
  O  O392  1  0.88696621  0.24994634  0.74729177  1
  O  O393  1  0.87896087  0.74987222  0.24972867  1
  O  O394  1  0.88427225  0.75841009  0.74088744  1
  O  O395  1  0.36952574  0.48534737  0.50546070  1
  O  O396  1  0.37643463  0.48398703  0.99996658  1
  O  O397  1  0.37971100  0.99295611  0.49607415  1
  O  O398  1  0.36860607  0.97535516  0.99894559  1
  O  O399  1  0.88508060  0.50049457  0.48590896  1
  O  O400  1  0.88676452  0.49822568  0.98890994  1
  O  O401  1  0.87926235  0.98786496  0.50300801  1
  O  O402  1  0.87580235  0.99570126  0.99058695  1
  O  O403  1  0.11912316  0.01657112  -0.00025707  1
  O  O404  1  0.11348223  0.00817198  0.51190955  1
  O  O405  1  0.11877732  0.50298035  0.00850977  1
  O  O406  1  0.12347044  0.51070587  0.50753288  1
  O  O407  1  0.62672072  0.01984216  -0.00793618  1
  O  O408  1  0.61822035  0.00774452  0.50616118  1
  O  O409  1  0.62337957  0.50697925  0.00777111  1
  O  O410  1  0.63005811  0.50311645  0.50669949  1
  O  O411  1  0.37109906  0.36626505  0.11767097  1
  O  O412  1  0.36036409  0.37339145  0.62156413  1
  O  O413  1  0.35825903  0.86657200  0.11764540  1
  O  O414  1  0.37281294  0.86768162  0.62352458  1
  O  O415  1  0.85915624  0.36309297  0.11740894  1
  O  O416  1  0.91944190  0.35440167  0.60160588  1
  O  O417  1  0.86527133  0.88026795  0.10982565  1
  O  O418  1  0.86999693  0.87007179  0.61967191  1
  O  O419  1  0.13251641  0.13416341  0.38503662  1
  O  O420  1  0.13102844  0.13199225  0.88280389  1
  O  O421  1  0.13379326  0.63058581  0.39267221  1
  O  O422  1  0.13373727  0.62879791  0.88100187  1
  O  O423  1  0.63453090  0.11795647  0.38465722  1
  O  O424  1  0.62889741  0.13973241  0.87314887  1
  O  O425  1  0.63656737  0.62673026  0.37354428  1
  O  O426  1  0.63709555  0.61511021  0.88073370  1
