# generated using pymatgen
data_V85Zn86O256
_symmetry_space_group_name_H-M   'P 1'
_cell_length_a   16.95060395
_cell_length_b   16.96474211
_cell_length_c   16.96990704
_cell_angle_alpha   89.97215163
_cell_angle_beta   90.00965757
_cell_angle_gamma   89.90719861
_symmetry_Int_Tables_number   1
_chemical_formula_structural   V85Zn86O256
_chemical_formula_sum   'V85 Zn86 O256'
_cell_volume   4879.90395969
_cell_formula_units_Z   1
loop_
 _symmetry_equiv_pos_site_id
 _symmetry_equiv_pos_as_xyz
  1  'x, y, z'
loop_
 _atom_site_type_symbol
 _atom_site_label
 _atom_site_symmetry_multiplicity
 _atom_site_fract_x
 _atom_site_fract_y
 _atom_site_fract_z
 _atom_site_occupancy
  V  V0  1  0.87632926  0.00190911  0.37463820  1
  V  V1  1  0.74943076  -0.00290143  0.72929811  1
  V  V2  1  -0.00194281  0.75869843  0.75383733  1
  V  V3  1  0.37587593  0.49537537  0.87424757  1
  V  V4  1  0.24729460  0.74827864  0.50247909  1
  V  V5  1  0.24393637  0.50199025  0.74015987  1
  V  V6  1  0.00417210  0.61909674  0.12852344  1
  V  V7  1  0.62806164  0.75109669  0.37758219  1
  V  V8  1  0.50105929  0.62129949  0.62722855  1
  V  V9  1  0.62292523  0.25947679  0.87829112  1
  V  V10  1  0.24147660  0.88518936  0.62972404  1
  V  V11  1  0.23802642  0.37832085  0.12615627  1
  V  V12  1  0.87505139  0.25803444  0.61880629  1
  V  V13  1  0.74197381  0.38826024  0.12351164  1
  V  V14  1  0.36688823  0.25164909  0.12451436  1
  V  V15  1  0.75233253  0.74926531  0.49861470  1
  V  V16  1  0.74927263  -0.00186879  0.25069317  1
  V  V17  1  0.14107530  0.25383413  0.88353695  1
  V  V18  1  0.23426024  0.49723924  0.24843909  1
  V  V19  1  0.37984207  0.49768360  0.37057670  1
  V  V20  1  0.00784145  0.00133956  0.50446984  1
  V  V21  1  0.00032344  0.87680558  0.37559321  1
  V  V22  1  0.50050879  0.87590457  0.37406192  1
  V  V23  1  0.37165391  0.37478620  0.00044022  1
  V  V24  1  0.12490390  0.87549321  0.25052855  1
  V  V25  1  0.62140296  0.37922248  0.74225144  1
  V  V26  1  0.62950033  0.62467448  0.50814928  1
  V  V27  1  0.13245578  0.25214506  0.36972322  1
  V  V28  1  0.55005631  0.56828521  0.17122930  1
  V  V29  1  0.62317106  0.00305511  0.12178002  1
  V  V30  1  0.86470004  0.61083056  0.26117350  1
  V  V31  1  0.12425554  0.37726349  0.74038776  1
  V  V32  1  0.74559258  0.50095734  0.74354005  1
  V  V33  1  0.37201636  0.00409458  0.37829214  1
  V  V34  1  0.00351201  0.12629613  0.11929880  1
  V  V35  1  0.75042380  0.75097173  -0.00369119  1
  V  V36  1  0.37271442  0.74991351  0.62592225  1
  V  V37  1  0.50334772  0.49632527  0.50443530  1
  V  V38  1  0.00766307  0.49895534  0.00391151  1
  V  V39  1  0.39012177  0.88316965  -0.00914523  1
  V  V40  1  -0.00443653  0.74864189  0.24942170  1
  V  V41  1  0.49847834  0.25544174  0.75427069  1
  V  V42  1  -0.01812920  0.48966417  0.49906587  1
  V  V43  1  0.62048580  0.62449492  -0.00168610  1
  V  V44  1  0.12487653  0.60950467  0.50155351  1
  V  V45  1  0.50173675  0.12508053  0.12290010  1
  V  V46  1  0.62412758  0.87980194  0.73780102  1
  V  V47  1  0.74977363  0.25558012  0.49650643  1
  V  V48  1  0.87742436  0.12708302  0.24629753  1
  V  V49  1  0.49992878  0.12557926  0.62728740  1
  V  V50  1  0.12712750  0.00472613  0.12430248  1
  V  V51  1  0.24677860  0.62476942  0.87753941  1
  V  V52  1  0.00413997  0.62056776  0.62472367  1
  V  V53  1  0.37397526  0.62532684  0.75137742  1
  V  V54  1  0.50859983  0.36794247  0.37606082  1
  V  V55  1  0.25089591  0.00135979  0.25407826  1
  V  V56  1  0.50945099  0.25238513  0.25382406  1
  V  V57  1  0.74773607  0.24712015  0.00198916  1
  V  V58  1  0.62564161  0.12640452  0.50363818  1
  V  V59  1  0.50578699  -0.00131219  0.50883468  1
  V  V60  1  -0.00312321  -0.00282248  -0.00694830  1
  V  V61  1  0.36989002  0.12786302  0.25364630  1
  V  V62  1  -0.01229870  0.37517151  0.36538642  1
  V  V63  1  -0.00050848  0.37204080  0.87586117  1
  V  V64  1  0.12504940  0.74875666  0.37749248  1
  V  V65  1  0.37461725  0.87499925  0.50269797  1
  V  V66  1  0.38564190  0.74540465  0.12372088  1
  V  V67  1  0.50042563  0.75436472  0.75796193  1
  V  V68  1  0.74222817  0.13134590  0.37242956  1
  V  V69  1  0.87353207  0.49956323  0.87650769  1
  V  V70  1  0.37018706  0.11786256  0.76356377  1
  V  V71  1  0.86980203  0.87872812  0.50344317  1
  V  V72  1  0.87094600  -0.00734008  0.87250295  1
  V  V73  1  0.87470005  0.62565869  0.75097056  1
  V  V74  1  0.50327360  0.49741009  -0.00585887  1
  V  V75  1  0.74579815  0.12395758  0.87543816  1
  V  V76  1  0.25164289  0.62282833  0.37523936  1
  V  V77  1  0.00910095  0.12577312  0.62326338  1
  V  V78  1  0.25423364  0.87134339  0.12624107  1
  V  V79  1  0.87192662  0.12756510  0.74765173  1
  V  V80  1  0.18358970  0.08014801  -0.05713276  1
  V  V81  1  0.11893675  0.75061051  0.87721779  1
  V  V82  1  -0.00089564  0.25125290  0.75020081  1
  V  V83  1  0.87210907  0.75405116  0.62673802  1
  V  V84  1  0.75286696  0.87616548  0.11888401  1
  Zn  Zn85  1  0.37229654  0.37121856  0.50198680  1
  Zn  Zn86  1  0.13572168  0.12381516  0.49365011  1
  Zn  Zn87  1  0.75062755  0.37956854  0.62183168  1
  Zn  Zn88  1  0.57678937  0.08388159  -0.03781131  1
  Zn  Zn89  1  0.62548640  0.87356240  0.24984907  1
  Zn  Zn90  1  0.87548009  0.74734891  0.12485185  1
  Zn  Zn91  1  0.00531177  0.25725772  0.24387261  1
  Zn  Zn92  1  0.25061064  0.74588664  0.00396630  1
  Zn  Zn93  1  0.11845912  0.88452456  0.75223879  1
  Zn  Zn94  1  0.24923733  0.37507775  0.61796853  1
  Zn  Zn95  1  0.87448368  0.25176685  0.12172417  1
  Zn  Zn96  1  0.74819455  0.62363230  0.87591978  1
  Zn  Zn97  1  0.66890869  0.41657999  0.27884915  1
  Zn  Zn98  1  0.87968636  0.87035637  -0.00508436  1
  Zn  Zn99  1  0.50277858  0.74779490  0.25061950  1
  Zn  Zn100  1  0.37545310  0.62446301  0.24627888  1
  Zn  Zn101  1  0.62063242  0.75149240  0.87481918  1
  Zn  Zn102  1  0.25307237  0.24477167  0.50177551  1
  Zn  Zn103  1  0.24569428  0.00675123  0.76028746  1
  Zn  Zn104  1  0.12654275  0.62379868  0.00754170  1
  Zn  Zn105  1  0.87310574  0.37370167  0.00086524  1
  Zn  Zn106  1  0.37078846  0.25277106  0.62612237  1
  Zn  Zn107  1  0.18644148  0.18978632  0.19005405  1
  Zn  Zn108  1  0.18895365  0.19085068  0.68972816  1
  Zn  Zn109  1  0.18723312  0.68585219  0.18965589  1
  Zn  Zn110  1  0.18381981  0.68987811  0.68829637  1
  Zn  Zn111  1  0.68695405  0.18815301  0.18584042  1
  Zn  Zn112  1  0.68497415  0.18933595  0.68524996  1
  Zn  Zn113  1  0.69161503  0.69306455  0.18862917  1
  Zn  Zn114  1  0.68854066  0.69003746  0.68645877  1
  Zn  Zn115  1  0.31465238  0.31733459  0.31299596  1
  Zn  Zn116  1  0.31429993  0.31541230  0.80629645  1
  Zn  Zn117  1  0.31585990  0.81068274  0.31141371  1
  Zn  Zn118  1  0.31094848  0.81156579  0.81411563  1
  Zn  Zn119  1  0.81756384  0.31153647  0.31003990  1
  Zn  Zn120  1  0.80989012  0.31460717  0.81128402  1
  Zn  Zn121  1  0.81278608  0.81159925  0.31425223  1
  Zn  Zn122  1  0.80224619  0.81672636  0.81025577  1
  Zn  Zn123  1  0.18462803  0.42794869  0.43163111  1
  Zn  Zn124  1  0.18948068  0.43670795  0.93508597  1
  Zn  Zn125  1  0.18941312  0.93777926  0.43991161  1
  Zn  Zn126  1  0.19175288  0.91800993  0.93854084  1
  Zn  Zn127  1  0.69215441  0.44035025  0.44491832  1
  Zn  Zn128  1  0.68748547  0.43623365  0.93681379  1
  Zn  Zn129  1  0.68816402  0.93941562  0.44090125  1
  Zn  Zn130  1  0.65917484  0.94571343  0.91820278  1
  Zn  Zn131  1  0.31991098  0.05829633  0.06731151  1
  Zn  Zn132  1  0.31360080  0.06971924  0.56500447  1
  Zn  Zn133  1  0.31264531  0.56049382  0.06386423  1
  Zn  Zn134  1  0.31668135  0.55943468  0.56020603  1
  Zn  Zn135  1  0.81135496  0.06362236  0.05955468  1
  Zn  Zn136  1  0.82146877  0.07307909  0.55768983  1
  Zn  Zn137  1  0.81671507  0.56620900  0.06594027  1
  Zn  Zn138  1  0.81371147  0.56720485  0.56394869  1
  Zn  Zn139  1  0.43158579  0.43059934  0.19007143  1
  Zn  Zn140  1  0.43562573  0.43644811  0.68808484  1
  Zn  Zn141  1  0.43889605  0.93693202  0.18600010  1
  Zn  Zn142  1  0.43365555  0.93842256  0.69095627  1
  Zn  Zn143  1  0.92767256  0.43763028  0.18418566  1
  Zn  Zn144  1  0.93746706  0.43947018  0.68674664  1
  Zn  Zn145  1  0.93777721  0.93943059  0.18399548  1
  Zn  Zn146  1  0.93523971  0.94008754  0.68533276  1
  Zn  Zn147  1  0.06359470  0.06739869  0.31199365  1
  Zn  Zn148  1  0.05852990  0.06018350  0.80583095  1
  Zn  Zn149  1  0.05501553  0.56110703  0.31844215  1
  Zn  Zn150  1  0.06153964  0.56301437  0.81325958  1
  Zn  Zn151  1  0.56103707  0.06288695  0.31122874  1
  Zn  Zn152  1  0.56235535  0.05867972  0.79878750  1
  Zn  Zn153  1  0.59632691  0.54752273  0.34094987  1
  Zn  Zn154  1  0.56315517  0.56334449  0.81511802  1
  Zn  Zn155  1  0.43373965  0.18667835  0.43958831  1
  Zn  Zn156  1  0.43217819  0.19624025  0.93658938  1
  Zn  Zn157  1  0.43864285  0.68604684  0.43762766  1
  Zn  Zn158  1  0.43580210  0.68666143  0.94162271  1
  Zn  Zn159  1  0.93889925  0.19056801  0.43528364  1
  Zn  Zn160  1  0.93434487  0.18465691  0.93706112  1
  Zn  Zn161  1  0.93806144  0.68543515  0.43725280  1
  Zn  Zn162  1  0.93649444  0.68507346  0.93955125  1
  Zn  Zn163  1  0.06050429  0.31034984  0.05970557  1
  Zn  Zn164  1  0.06536862  0.31042456  0.55603691  1
  Zn  Zn165  1  0.06343698  0.81232683  0.06351891  1
  Zn  Zn166  1  0.06054165  0.80990099  0.56312437  1
  Zn  Zn167  1  0.56053086  0.31424282  0.06393641  1
  Zn  Zn168  1  0.56274870  0.30888158  0.56465199  1
  Zn  Zn169  1  0.56646293  0.81457971  0.06237130  1
  Zn  Zn170  1  0.56106619  0.81024816  0.56696327  1
  O  O171  1  0.11665114  0.11772434  0.12972596  1
  O  O172  1  0.11108851  0.13190611  0.62430642  1
  O  O173  1  0.11014234  0.62816961  0.12694282  1
  O  O174  1  0.11172359  0.63076259  0.61665594  1
  O  O175  1  0.61380652  0.11760530  0.13146101  1
  O  O176  1  0.61190935  0.12585913  0.61834626  1
  O  O177  1  0.61980610  0.62747089  0.12097427  1
  O  O178  1  0.61560103  0.63171935  0.61604289  1
  O  O179  1  0.38700474  0.38355898  0.37697374  1
  O  O180  1  0.36686802  0.38824251  0.88230855  1
  O  O181  1  0.38256976  0.88115348  0.38201431  1
  O  O182  1  0.36669765  0.87063379  0.89298052  1
  O  O183  1  0.88791639  0.37209453  0.37770917  1
  O  O184  1  0.88266423  0.38243512  0.87466144  1
  O  O185  1  0.88184807  0.88117322  0.38221512  1
  O  O186  1  0.86838320  0.88945470  0.87357196  1
  O  O187  1  0.26266224  -0.00936948  0.36822514  1
  O  O188  1  0.23909535  0.01334092  0.88893244  1
  O  O189  1  0.25873111  0.50103687  0.36528285  1
  O  O190  1  0.25455866  0.51031638  0.86745901  1
  O  O191  1  0.75488499  0.00517792  0.36547859  1
  O  O192  1  0.75251874  0.01013626  0.86533805  1
  O  O193  1  0.69930308  0.49840037  0.35297449  1
  O  O194  1  0.75900356  0.50055026  0.86737038  1
  O  O195  1  0.25403859  0.49588670  0.14096106  1
  O  O196  1  0.25161867  0.50345246  0.63762951  1
  O  O197  1  0.24642158  0.99178822  0.13406500  1
  O  O198  1  0.25598131  0.98521886  0.62511188  1
  O  O199  1  0.75043467  0.48745634  0.11870109  1
  O  O200  1  0.75785322  0.49961377  0.63913525  1
  O  O201  1  0.74841381  0.99694937  0.13629773  1
  O  O202  1  0.76001396  1.00996518  0.63174621  1
  O  O203  1  -0.00739573  0.37742722  0.26103542  1
  O  O204  1  0.00578543  0.37307935  0.75772343  1
  O  O205  1  0.00474294  0.86953254  0.25362519  1
  O  O206  1  -0.00171342  0.86195010  0.74390440  1
  O  O207  1  0.49539887  0.35980039  0.25622733  1
  O  O208  1  0.50692940  0.36707296  0.74904606  1
  O  O209  1  0.50294961  0.87601021  0.26346281  1
  O  O210  1  0.51128897  0.86797411  0.74183165  1
  O  O211  1  0.49016259  0.13329697  0.24479147  1
  O  O212  1  0.49547560  0.13006019  0.74322898  1
  O  O213  1  0.50166578  0.62403255  0.24311399  1
  O  O214  1  0.49543982  0.63041580  0.74351748  1
  O  O215  1  0.99111678  0.12058897  0.23627136  1
  O  O216  1  0.99249380  0.13288224  0.74286885  1
  O  O217  1  0.99538982  0.63152976  0.24701511  1
  O  O218  1  0.99458783  0.62981416  0.74122570  1
  O  O219  1  0.37666445  0.26317049  0.01008845  1
  O  O220  1  0.37529558  0.25258207  0.50550607  1
  O  O221  1  0.37346094  0.75598012  0.01223739  1
  O  O222  1  0.36813267  0.75517980  0.50500378  1
  O  O223  1  0.86277917  0.25150678  -0.00238123  1
  O  O224  1  0.86336013  0.24166692  0.50846374  1
  O  O225  1  0.86805092  0.75201648  0.00370058  1
  O  O226  1  0.87133576  0.75648945  0.50528810  1
  O  O227  1  0.12521472  0.24593676  0.48582722  1
  O  O228  1  0.12325267  0.25332141  0.98182407  1
  O  O229  1  0.12886468  0.74116734  0.49509208  1
  O  O230  1  0.12661217  0.74629901  0.99267348  1
  O  O231  1  0.63210399  0.23491766  0.50346373  1
  O  O232  1  0.62987415  0.25536453  0.98935332  1
  O  O233  1  0.63515789  0.74777710  0.50017260  1
  O  O234  1  0.63102657  0.74286056  0.99768475  1
  O  O235  1  0.49013602  0.24712127  0.13696137  1
  O  O236  1  0.50023760  0.24179440  0.63814246  1
  O  O237  1  0.48878742  0.75581373  0.12923416  1
  O  O238  1  0.49042585  0.73950627  0.63056556  1
  O  O239  1  0.99693069  0.24121249  0.12463379  1
  O  O240  1  0.99340598  0.24590770  0.62822001  1
  O  O241  1  0.99884354  0.74471679  0.13456913  1
  O  O242  1  0.99045095  0.74237504  0.63030664  1
  O  O243  1  0.00062761  0.26325980  0.37195943  1
  O  O244  1  -0.00042861  0.26070007  0.87114887  1
  O  O245  1  0.00595946  0.75716025  0.37033166  1
  O  O246  1  0.00546885  0.74176957  0.86504452  1
  O  O247  1  0.49283789  0.25291318  0.36168475  1
  O  O248  1  0.50908365  0.24700059  0.86386907  1
  O  O249  1  0.50511346  0.76217970  0.37761092  1
  O  O250  1  0.49666678  0.74465822  0.86047093  1
  O  O251  1  0.24911406  0.12703476  0.49828120  1
  O  O252  1  0.24567940  0.12494732  1.00570040  1
  O  O253  1  0.24263360  0.62657257  0.49618434  1
  O  O254  1  0.24672730  0.62401132  0.99210716  1
  O  O255  1  0.74350657  0.13057609  0.49159227  1
  O  O256  1  0.75219273  0.13186261  0.98651745  1
  O  O257  1  0.74111810  0.63425852  0.50483213  1
  O  O258  1  0.73914796  0.63141142  1.00374369  1
  O  O259  1  0.26303952  0.38957054  0.01084695  1
  O  O260  1  0.25280452  0.37269600  0.50056770  1
  O  O261  1  0.25645341  0.86897056  0.01695648  1
  O  O262  1  0.25358899  0.86943513  0.51110287  1
  O  O263  1  0.75052726  0.36687883  0.00694009  1
  O  O264  1  0.74116062  0.36091023  0.50428619  1
  O  O265  1  0.74877615  0.86706545  0.00630757  1
  O  O266  1  0.76359588  0.87092933  0.49751477  1
  O  O267  1  0.13630953  0.50199222  0.25726656  1
  O  O268  1  0.13261963  0.49074263  0.75710525  1
  O  O269  1  0.13141364  0.99432316  0.24783418  1
  O  O270  1  0.13201914  0.99647011  0.75558772  1
  O  O271  1  0.59867717  0.50117707  0.22861752  1
  O  O272  1  0.63384467  0.49290454  0.75696570  1
  O  O273  1  0.63468181  0.99868290  0.24437530  1
  O  O274  1  0.63413321  0.98766199  0.73720792  1
  O  O275  1  0.37184942  0.00612436  0.25742561  1
  O  O276  1  0.37123151  0.01227663  0.75366491  1
  O  O277  1  0.37589126  0.50362250  0.26207427  1
  O  O278  1  0.36778968  0.50615169  0.75831006  1
  O  O279  1  0.86859664  0.00813846  0.25321742  1
  O  O280  1  0.86745472  0.00637194  0.75430828  1
  O  O281  1  0.87398103  0.51158549  0.25250478  1
  O  O282  1  0.87033986  0.50453711  0.75936600  1
  O  O283  1  0.10823694  0.36156569  0.37726301  1
  O  O284  1  0.11903369  0.36704312  0.86897620  1
  O  O285  1  0.12033858  0.86970968  0.37024141  1
  O  O286  1  0.12870072  0.85581882  0.87039251  1
  O  O287  1  0.61071064  0.36736011  0.37332551  1
  O  O288  1  0.63085020  0.36470696  0.86333670  1
  O  O289  1  0.61843987  0.86697691  0.37880987  1
  O  O290  1  0.64168661  0.86067490  0.84543756  1
  O  O291  1  0.38055279  0.13245445  0.13387077  1
  O  O292  1  0.38912260  0.12508674  0.63525955  1
  O  O293  1  0.37002649  0.64184834  0.12509989  1
  O  O294  1  0.38010332  0.63002330  0.63162374  1
  O  O295  1  0.88141034  0.12350793  0.13158858  1
  O  O296  1  0.88363857  0.13729392  0.63146304  1
  O  O297  1  0.88733071  0.62759059  0.13619720  1
  O  O298  1  0.88587332  0.63310231  0.62998135  1
  O  O299  1  0.26105057  0.25921206  0.13340545  1
  O  O300  1  0.25181433  0.25619045  0.62489367  1
  O  O301  1  0.25833379  0.75685725  0.12879433  1
  O  O302  1  0.25542013  0.75435737  0.62047927  1
  O  O303  1  0.74971268  0.24456928  0.10947960  1
  O  O304  1  0.75781064  0.24841798  0.61552385  1
  O  O305  1  0.75162929  0.75992820  0.11505123  1
  O  O306  1  0.76487241  0.74513946  0.61546990  1
  O  O307  1  0.23564467  0.25828031  0.37068467  1
  O  O308  1  0.23980783  0.25631559  0.87390456  1
  O  O309  1  0.24589356  0.74449898  0.38149089  1
  O  O310  1  0.24327476  0.73672023  0.87516594  1
  O  O311  1  0.75586904  0.24073864  0.38180298  1
  O  O312  1  0.74435934  0.24627737  0.88178950  1
  O  O313  1  0.74335276  0.75636575  0.38949794  1
  O  O314  1  0.75429145  0.74564458  0.88787251  1
  O  O315  1  -0.00620770  0.11455683  0.01121942  1
  O  O316  1  -0.00272616  0.11669210  0.50761000  1
  O  O317  1  -0.00004862  0.61623748  0.01010650  1
  O  O318  1  0.00531792  0.61574473  0.50501386  1
  O  O319  1  0.49534557  0.13812351  0.01720362  1
  O  O320  1  0.50700930  0.11850666  0.50581534  1
  O  O321  1  0.51176779  0.61847956  -0.00126407  1
  O  O322  1  0.50451091  0.62021049  0.50986406  1
  O  O323  1  0.50252889  0.38188383  0.49569879  1
  O  O324  1  0.48681983  0.38697556  1.00702178  1
  O  O325  1  0.49695137  0.88145262  0.49674153  1
  O  O326  1  0.48963825  0.86919059  0.99912340  1
  O  O327  1  0.99793035  0.38744277  0.49917709  1
  O  O328  1  0.99606969  0.38115141  0.99193766  1
  O  O329  1  0.99204714  0.88164086  0.49707813  1
  O  O330  1  1.00023128  0.89225976  1.00555824  1
  O  O331  1  0.49802970  0.49187586  0.38344680  1
  O  O332  1  0.48815355  0.50431637  0.88281350  1
  O  O333  1  0.49566485  0.99184599  0.38361095  1
  O  O334  1  0.55773890  0.99987889  0.89077548  1
  O  O335  1  1.00249285  0.48707038  0.38861599  1
  O  O336  1  0.99346973  0.48964480  0.87805835  1
  O  O337  1  0.99452343  0.99543852  0.38032773  1
  O  O338  1  0.98464370  1.01185903  0.88236734  1
  O  O339  1  0.00818444  0.00550919  0.11684995  1
  O  O340  1  -0.00771785  0.01158018  0.61523184  1
  O  O341  1  -0.00526270  0.50517112  0.11508036  1
  O  O342  1  -0.00559894  0.50798841  0.61197935  1
  O  O343  1  0.51008582  0.01039045  0.13189345  1
  O  O344  1  0.49558894  0.00429161  0.61379138  1
  O  O345  1  0.48569977  0.50867857  0.11582240  1
  O  O346  1  0.49355946  0.51343051  0.61970073  1
  O  O347  1  0.25507328  0.39047554  0.24268186  1
  O  O348  1  0.24031903  0.38609267  0.75021800  1
  O  O349  1  0.24737621  0.87882533  0.24259211  1
  O  O350  1  0.25101737  0.87486936  0.73725689  1
  O  O351  1  0.75237155  0.36173394  0.22979718  1
  O  O352  1  0.74177218  0.38359247  0.74714527  1
  O  O353  1  0.75053601  0.88366628  0.24443468  1
  O  O354  1  0.74640715  0.88812981  0.73999396  1
  O  O355  1  0.26315340  0.11834079  0.24638658  1
  O  O356  1  0.26651997  0.12570117  0.74855692  1
  O  O357  1  0.25110379  0.61350962  0.25694031  1
  O  O358  1  0.25235468  0.62021741  0.75614862  1
  O  O359  1  0.75548519  0.11960195  0.25527506  1
  O  O360  1  0.75225677  0.11988363  0.75376412  1
  O  O361  1  0.76718933  0.63304204  0.24592783  1
  O  O362  1  0.75612008  0.61926974  0.75118600  1
  O  O363  1  0.38359754  0.11100882  0.36728949  1
  O  O364  1  0.38208012  0.12608459  0.86210143  1
  O  O365  1  0.36899685  0.61776672  0.37383405  1
  O  O366  1  0.36632571  0.61831305  0.87104921  1
  O  O367  1  0.86772636  0.11898858  0.36689402  1
  O  O368  1  0.86317515  0.12056023  0.86550441  1
  O  O369  1  0.87973220  0.62934607  0.36015358  1
  O  O370  1  0.87446795  0.61600227  0.86769617  1
  O  O371  1  0.13905943  0.36878580  0.11819122  1
  O  O372  1  0.12126719  0.37227347  0.63827185  1
  O  O373  1  0.13388932  0.88093828  0.13157957  1
  O  O374  1  0.13879713  0.86842962  0.62601210  1
  O  O375  1  0.64109309  0.37104458  0.12192755  1
  O  O376  1  0.62762322  0.37227516  0.63837435  1
  O  O377  1  0.63636976  0.88179028  0.12900696  1
  O  O378  1  0.63196692  0.86221990  0.63816180  1
  O  O379  1  0.11959787  0.24758950  0.26212143  1
  O  O380  1  0.11730819  0.25751705  0.76110234  1
  O  O381  1  0.11543147  0.75490586  0.25697263  1
  O  O382  1  0.11270485  0.75000244  0.75673312  1
  O  O383  1  0.60822956  0.24406475  0.24900358  1
  O  O384  1  0.61890656  0.25863683  0.75538826  1
  O  O385  1  0.62401469  0.75271933  0.26279343  1
  O  O386  1  0.61418870  0.75237467  0.74759029  1
  O  O387  1  0.37910231  0.24273780  0.24547108  1
  O  O388  1  0.38449221  0.24208822  0.75147964  1
  O  O389  1  0.38032682  0.74672444  0.24008049  1
  O  O390  1  0.38023307  0.74490276  0.74497814  1
  O  O391  1  0.87932680  0.23511450  0.24654706  1
  O  O392  1  0.87977770  0.24612316  0.74472169  1
  O  O393  1  0.88829667  0.75205174  0.24990864  1
  O  O394  1  0.87752921  0.74710414  0.74413914  1
  O  O395  1  0.38828593  0.50188528  0.48881337  1
  O  O396  1  0.38220470  0.49857485  0.99202544  1
  O  O397  1  0.38358306  0.99455298  0.49349958  1
  O  O398  1  0.37748991  0.98208248  1.00868624  1
  O  O399  1  0.88336504  0.50274696  0.49836884  1
  O  O400  1  0.88224139  0.50199090  0.98726933  1
  O  O401  1  0.88177488  0.99424760  0.49402737  1
  O  O402  1  0.88006748  0.99799942  0.99015012  1
  O  O403  1  0.12295775  0.00758717  -0.00296079  1
  O  O404  1  0.11124615  0.00151737  0.49436986  1
  O  O405  1  0.11057091  0.50190721  -0.00938696  1
  O  O406  1  0.12039972  0.50845585  0.49562648  1
  O  O407  1  0.64401317  0.00352789  0.02083759  1
  O  O408  1  0.61772027  0.01145053  0.49672953  1
  O  O409  1  0.61268410  0.50574955  -0.00635352  1
  O  O410  1  0.61220277  0.51081825  0.50340368  1
  O  O411  1  0.36652491  0.36812033  0.11922897  1
  O  O412  1  0.37100232  0.37439674  0.62251045  1
  O  O413  1  0.37043624  0.86465203  0.12316484  1
  O  O414  1  0.36739036  0.86849772  0.62050235  1
  O  O415  1  0.86197837  0.37007055  0.11895494  1
  O  O416  1  0.87297272  0.36164605  0.63108893  1
  O  O417  1  0.86255001  0.87654292  0.12209604  1
  O  O418  1  0.88107009  0.86588139  0.61497291  1
  O  O419  1  0.11325723  0.14450717  0.37677061  1
  O  O420  1  0.12546400  0.13770490  0.87614534  1
  O  O421  1  0.12963066  0.62918698  0.38389201  1
  O  O422  1  0.13130183  0.63239852  0.87599030  1
  O  O423  1  0.63718698  0.11956984  0.37993239  1
  O  O424  1  0.63559663  0.14205673  0.86967117  1
  O  O425  1  0.61348559  0.64591409  0.39532300  1
  O  O426  1  0.62849872  0.63053993  0.88406864  1
