# generated using pymatgen
data_V85Zn86O256
_symmetry_space_group_name_H-M   'P 1'
_cell_length_a   16.97560391
_cell_length_b   17.00917796
_cell_length_c   16.99515982
_cell_angle_alpha   89.99744859
_cell_angle_beta   90.01029880
_cell_angle_gamma   89.83291949
_symmetry_Int_Tables_number   1
_chemical_formula_structural   V85Zn86O256
_chemical_formula_sum   'V85 Zn86 O256'
_cell_volume   4907.17964765
_cell_formula_units_Z   1
loop_
 _symmetry_equiv_pos_site_id
 _symmetry_equiv_pos_as_xyz
  1  'x, y, z'
loop_
 _atom_site_type_symbol
 _atom_site_label
 _atom_site_symmetry_multiplicity
 _atom_site_fract_x
 _atom_site_fract_y
 _atom_site_fract_z
 _atom_site_occupancy
  V  V0  1  0.87960569  0.50821481  0.37249345  1
  V  V1  1  0.44640145  0.42793471  0.82429126  1
  V  V2  1  0.13160899  0.24228633  0.37250914  1
  V  V3  1  0.50645608  0.85998672  0.37073663  1
  V  V4  1  0.62389415  -0.00127037  0.62455061  1
  V  V5  1  0.50360075  0.63141120  0.13255341  1
  V  V6  1  0.75318484  0.74698292  0.48986872  1
  V  V7  1  0.75035430  0.49440119  0.25202818  1
  V  V8  1  0.62140234  0.37432819  0.25183990  1
  V  V9  1  0.36810340  0.25239520  0.12311703  1
  V  V10  1  0.62552097  0.12569897  -0.00076865  1
  V  V11  1  -0.00252543  0.36860455  0.37210129  1
  V  V12  1  0.50220139  0.00004680  0.00052477  1
  V  V13  1  0.92674262  0.33852166  -0.04882057  1
  V  V14  1  0.75921320  0.74808033  0.00125179  1
  V  V15  1  0.25931802  0.60922554  0.87321732  1
  V  V16  1  0.87738759  0.88019611  0.49592022  1
  V  V17  1  0.24784314  0.13089364  0.87663241  1
  V  V18  1  0.74853796  0.25460146  -0.00340033  1
  V  V19  1  0.25389201  0.87003584  0.62198369  1
  V  V20  1  0.62636919  0.85821101  0.25313927  1
  V  V21  1  0.37773322  0.87409929  0.00413433  1
  V  V22  1  0.89068324  0.12412978  0.74578400  1
  V  V23  1  0.12014371  0.00226705  0.62438309  1
  V  V24  1  0.87101255  0.36802169  0.49866215  1
  V  V25  1  0.49647129  0.12554452  0.62333734  1
  V  V26  1  0.50020347  0.24692526  0.75626445  1
  V  V27  1  0.75545311  0.87066967  0.12839158  1
  V  V28  1  0.02709492  0.72727591  0.25062933  1
  V  V29  1  0.74820515  0.12535376  0.87181490  1
  V  V30  1  0.00260691  0.87127831  0.87857542  1
  V  V31  1  0.62675620  0.74808820  0.87264738  1
  V  V32  1  0.37451406  0.62391887  0.26158818  1
  V  V33  1  0.87224176  0.62843302  0.22673896  1
  V  V34  1  0.25030476  0.74877260  0.00152921  1
  V  V35  1  0.87618054  0.75287459  0.62152951  1
  V  V36  1  0.00166897  0.50753770  0.01645573  1
  V  V37  1  0.62271965  0.25154305  0.37881926  1
  V  V38  1  0.36254467  0.12179775  0.25182123  1
  V  V39  1  -0.00049542  0.50058496  0.50833561  1
  V  V40  1  0.61884123  0.50581746  0.62080869  1
  V  V41  1  0.50053989  -0.00213619  0.49429630  1
  V  V42  1  0.74944081  0.12240184  0.37440081  1
  V  V43  1  0.24033435  0.88872486  0.12905664  1
  V  V44  1  0.12591943  0.38294041  0.24666605  1
  V  V45  1  0.49756322  0.73784020  0.74547505  1
  V  V46  1  0.12641279  0.62320585  0.01863822  1
  V  V47  1  0.49941043  0.12634342  0.12579646  1
  V  V48  1  0.37472308  0.12438070  0.74681578  1
  V  V49  1  0.49617462  0.49695880  0.00079406  1
  V  V50  1  0.37584381  -0.00244270  0.87407176  1
  V  V51  1  0.50113220  0.87262872  0.87420894  1
  V  V52  1  0.87534143  -0.00410698  0.87521371  1
  V  V53  1  0.00326831  0.74702720  0.74826690  1
  V  V54  1  0.38100413  0.75336650  0.13207252  1
  V  V55  1  0.49824714  0.24969692  0.24984715  1
  V  V56  1  0.37826222  0.73600883  0.62529890  1
  V  V57  1  0.62479317  0.87345781  0.74809093  1
  V  V58  1  0.37371517  0.37560293  -0.00209836  1
  V  V59  1  0.11982818  0.12655049  0.50193191  1
  V  V60  1  0.36673416  0.00281384  0.37159071  1
  V  V61  1  0.26046192  0.24145626  0.49775917  1
  V  V62  1  0.61830624  0.62674258  0.49561870  1
  V  V63  1  0.75457879  0.62145432  0.87239234  1
  V  V64  1  0.37353375  0.86891503  0.49761454  1
  V  V65  1  0.49083518  0.38620619  0.38422363  1
  V  V66  1  0.12143802  0.89320691  0.26402099  1
  V  V67  1  0.89026863  0.50244695  0.87558965  1
  V  V68  1  0.25135284  0.39081239  0.12617036  1
  V  V69  1  0.62430826  0.49851844  0.12479384  1
  V  V70  1  0.88696586  0.24889190  0.62870069  1
  V  V71  1  0.01657848  -0.00728597  0.00683665  1
  V  V72  1  0.74984991  -0.00020113  0.75004802  1
  V  V73  1  0.74774670  -0.00224698  0.24825650  1
  V  V74  1  0.74935991  0.37087904  0.12222981  1
  V  V75  1  0.62564894  0.62408464  0.00022647  1
  V  V76  1  0.13227849  0.13503410  0.00513141  1
  V  V77  1  0.12903990  0.87290093  0.75189963  1
  V  V78  1  0.62408608  0.12417815  0.50007939  1
  V  V79  1  0.62865187  0.37690888  0.75163877  1
  V  V80  1  0.87674219  0.12439830  0.24783831  1
  V  V81  1  0.87757163  0.87330671  0.00321308  1
  V  V82  1  0.62529794  -0.00158439  0.12633995  1
  V  V83  1  0.88035333  0.62442849  0.74093972  1
  V  V84  1  0.87838425  0.25162531  0.12484009  1
  Zn  Zn85  1  0.12302119  0.38437502  0.74594377  1
  Zn  Zn86  1  0.00952825  0.11882520  0.12829050  1
  Zn  Zn87  1  0.00471890  0.24631492  0.24668666  1
  Zn  Zn88  1  0.25217375  -0.00286566  0.74935413  1
  Zn  Zn89  1  0.37356728  0.26712071  0.63179168  1
  Zn  Zn90  1  0.16312179  0.71256744  0.41324352  1
  Zn  Zn91  1  0.75840441  0.49700378  0.74274007  1
  Zn  Zn92  1  0.26229824  0.50088820  0.27524682  1
  Zn  Zn93  1  0.36769999  0.39978046  0.50211723  1
  Zn  Zn94  1  0.23750172  0.36996958  0.61658866  1
  Zn  Zn95  1  0.62165076  0.25821706  0.87622327  1
  Zn  Zn96  1  0.74984387  0.37278473  0.62374273  1
  Zn  Zn97  1  0.88050582  -0.00378422  0.36881655  1
  Zn  Zn98  1  -0.00007873  0.00372288  0.49782200  1
  Zn  Zn99  1  0.12800926  0.74642910  0.88016412  1
  Zn  Zn100  1  0.74971257  0.24616718  0.50477892  1
  Zn  Zn101  1  0.74782200  0.62499420  0.37326432  1
  Zn  Zn102  1  0.13201712  0.50857783  0.63557812  1
  Zn  Zn103  1  0.05786300  0.28017157  0.82580673  1
  Zn  Zn104  1  0.74831714  0.87335994  0.62366336  1
  Zn  Zn105  1  0.44504317  0.55807430  0.55186296  1
  Zn  Zn106  1  0.05700204  0.66147911  0.56401344  1
  Zn  Zn107  1  0.18878652  0.19179742  0.18490963  1
  Zn  Zn108  1  0.18715904  0.18635843  0.68413204  1
  Zn  Zn109  1  0.19875725  0.69453831  0.19285147  1
  Zn  Zn110  1  0.19758589  0.68428187  0.69021636  1
  Zn  Zn111  1  0.68725550  0.18740816  0.18755402  1
  Zn  Zn112  1  0.69006888  0.18981480  0.68562121  1
  Zn  Zn113  1  0.69876232  0.68573724  0.18738169  1
  Zn  Zn114  1  0.69158355  0.68516004  0.68401843  1
  Zn  Zn115  1  0.31062183  0.31116294  0.31306328  1
  Zn  Zn116  1  0.23468491  0.30896513  0.82082302  1
  Zn  Zn117  1  0.31302386  0.82169962  0.30471920  1
  Zn  Zn118  1  0.31392200  0.80584508  0.81247821  1
  Zn  Zn119  1  0.81148316  0.30918923  0.31291426  1
  Zn  Zn120  1  0.81431867  0.30983528  0.80428046  1
  Zn  Zn121  1  0.84782793  0.79430334  0.32186862  1
  Zn  Zn122  1  0.81395756  0.81102070  0.81200729  1
  Zn  Zn123  1  0.18122231  0.42716880  0.43995762  1
  Zn  Zn124  1  0.17981890  0.43716621  0.93881227  1
  Zn  Zn125  1  0.18897131  0.93484909  0.43851402  1
  Zn  Zn126  1  0.19280386  0.93430435  0.93816679  1
  Zn  Zn127  1  0.68709797  0.43928153  0.43862850  1
  Zn  Zn128  1  0.68851867  0.43910538  0.93297205  1
  Zn  Zn129  1  0.69083208  0.93377770  0.43626006  1
  Zn  Zn130  1  0.68856646  0.93542750  0.93731742  1
  Zn  Zn131  1  0.31550578  0.06458854  0.06159915  1
  Zn  Zn132  1  0.30700330  0.05948640  0.56043817  1
  Zn  Zn133  1  0.31673107  0.56606672  0.06384451  1
  Zn  Zn134  1  0.26991055  0.55761969  0.52399217  1
  Zn  Zn135  1  0.81436426  0.06078070  0.06205014  1
  Zn  Zn136  1  0.81032249  0.06515622  0.56694677  1
  Zn  Zn137  1  0.81012377  0.55035475  0.05403731  1
  Zn  Zn138  1  0.81120604  0.55767035  0.56063940  1
  Zn  Zn139  1  0.43702047  0.44115551  0.19083238  1
  Zn  Zn140  1  0.32157956  0.46070376  0.69247585  1
  Zn  Zn141  1  0.43978367  0.93719739  0.19139368  1
  Zn  Zn142  1  0.43977793  0.93433209  0.68530675  1
  Zn  Zn143  1  0.93721978  0.43297699  0.18979911  1
  Zn  Zn144  1  0.97307600  0.44616746  0.71111978  1
  Zn  Zn145  1  0.93932380  0.93665535  0.18737334  1
  Zn  Zn146  1  0.93937092  0.93482010  0.68655948  1
  Zn  Zn147  1  0.06187237  0.05839778  0.31615186  1
  Zn  Zn148  1  0.06746076  0.05683886  0.81870557  1
  Zn  Zn149  1  0.09918031  0.54895658  0.33854571  1
  Zn  Zn150  1  0.07605072  0.56937342  0.82008255  1
  Zn  Zn151  1  0.56009317  0.06070957  0.31049303  1
  Zn  Zn152  1  0.56287577  0.06284231  0.81323911  1
  Zn  Zn153  1  0.56159969  0.56637166  0.31533629  1
  Zn  Zn154  1  0.56852456  0.56155049  0.80920975  1
  Zn  Zn155  1  0.43929949  0.18512191  0.43232878  1
  Zn  Zn156  1  0.43161388  0.18959220  0.93678128  1
  Zn  Zn157  1  0.32597629  0.69343998  0.43517179  1
  Zn  Zn158  1  0.43822485  0.68683745  0.94037764  1
  Zn  Zn159  1  0.93996416  0.18324896  0.43713722  1
  Zn  Zn160  1  0.93359915  0.16397870  0.94583428  1
  Zn  Zn161  1  0.98803669  0.69010831  0.41425007  1
  Zn  Zn162  1  0.94219808  0.68448578  0.93917676  1
  Zn  Zn163  1  0.07009087  0.30893170  0.06570537  1
  Zn  Zn164  1  0.06154344  0.31371934  0.56401383  1
  Zn  Zn165  1  0.06316701  0.80493246  0.07730900  1
  Zn  Zn166  1  0.06129820  0.82372318  0.55956563  1
  Zn  Zn167  1  0.55922021  0.31283664  0.06187899  1
  Zn  Zn168  1  0.55742503  0.31593234  0.56760743  1
  Zn  Zn169  1  0.56874339  0.81102663  0.06228752  1
  Zn  Zn170  1  0.56300115  0.80699475  0.55942034  1
  O  O171  1  0.12845559  0.12730991  0.11057126  1
  O  O172  1  0.13268864  0.11204475  0.61745975  1
  O  O173  1  0.13545784  0.63075736  0.11775757  1
  O  O174  1  0.12224284  0.62340360  0.63967957  1
  O  O175  1  0.62083934  0.11972370  0.11825726  1
  O  O176  1  0.61775643  0.11875639  0.61943648  1
  O  O177  1  0.62200116  0.61970748  0.11963705  1
  O  O178  1  0.63396692  0.61214767  0.61790295  1
  O  O179  1  0.38850497  0.37091563  0.37519240  1
  O  O180  1  0.38063448  0.37632303  0.88299667  1
  O  O181  1  0.39027662  0.88325431  0.37845832  1
  O  O182  1  0.38177663  0.88006887  0.88100766  1
  O  O183  1  0.88114413  0.37634761  0.37657340  1
  O  O184  1  0.86911739  0.38579009  0.87597776  1
  O  O185  1  0.86234094  0.88170194  0.39171676  1
  O  O186  1  0.88166727  0.87782439  0.88138193  1
  O  O187  1  0.26846185  -0.00505448  0.38019460  1
  O  O188  1  0.26545018  0.00226035  0.87491878  1
  O  O189  1  0.20409260  0.51181928  0.37109913  1
  O  O190  1  0.24926942  0.51029624  0.88149024  1
  O  O191  1  0.74975964  0.01147346  0.36839800  1
  O  O192  1  0.75474830  0.00364474  0.86912778  1
  O  O193  1  0.75979312  0.49538715  0.36502295  1
  O  O194  1  0.76130279  0.51215219  0.87646072  1
  O  O195  1  0.25887449  0.49152742  0.13259037  1
  O  O196  1  0.24573930  0.49889224  0.61696719  1
  O  O197  1  0.26028247  0.98515700  0.11986689  1
  O  O198  1  0.24288687  0.98653509  0.62893207  1
  O  O199  1  0.74354095  0.48830088  0.12822232  1
  O  O200  1  0.74367536  0.49225113  0.62589925  1
  O  O201  1  0.74378164  0.99156035  0.12652438  1
  O  O202  1  0.74100963  0.99897821  0.63494157  1
  O  O203  1  0.00361840  0.36650133  0.25634615  1
  O  O204  1  0.00509506  0.34940299  0.75153107  1
  O  O205  1  0.02098302  0.88265221  0.24168254  1
  O  O206  1  0.00651380  0.86561888  0.75648576  1
  O  O207  1  0.50399132  0.36796657  0.25723207  1
  O  O208  1  0.50405831  0.36503077  0.75998430  1
  O  O209  1  0.51152835  0.87856947  0.26214219  1
  O  O210  1  0.50948325  0.87030264  0.75708841  1
  O  O211  1  0.49709245  0.13210814  0.24172493  1
  O  O212  1  0.49687994  0.12781653  0.74279649  1
  O  O213  1  0.49830838  0.62185507  0.23667160  1
  O  O214  1  0.50612582  0.64013008  0.75432549  1
  O  O215  1  0.98715425  0.12551274  0.24615281  1
  O  O216  1  0.98921997  0.11878069  0.76134088  1
  O  O217  1  0.97592314  0.62803718  0.23897425  1
  O  O218  1  0.99245462  0.64260465  0.76263406  1
  O  O219  1  0.38624029  0.26282312  0.01193521  1
  O  O220  1  0.36362403  0.24038531  0.49748966  1
  O  O221  1  0.37188118  0.75685239  0.01016892  1
  O  O222  1  0.38584635  0.76521818  0.51022608  1
  O  O223  1  0.86852103  0.25425749  0.00507524  1
  O  O224  1  0.87255456  0.25158095  0.50492777  1
  O  O225  1  0.86544684  0.75414514  -0.00520941  1
  O  O226  1  0.87037718  0.76337151  0.50774177  1
  O  O227  1  0.13223924  0.24329186  0.49338289  1
  O  O228  1  0.12446546  0.23299968  0.99631336  1
  O  O229  1  0.07310126  0.74127734  0.48390400  1
  O  O230  1  0.13383946  0.74390264  1.00515813  1
  O  O231  1  0.62358934  0.24358436  0.49307346  1
  O  O232  1  0.63062986  0.24408483  0.99748874  1
  O  O233  1  0.63925167  0.73503689  0.51091555  1
  O  O234  1  0.63495108  0.74417003  0.98977676  1
  O  O235  1  0.49330612  0.24614163  0.13257052  1
  O  O236  1  0.49551896  0.24370452  0.63602309  1
  O  O237  1  0.49546313  0.74104633  0.11634694  1
  O  O238  1  0.49457307  0.75680319  0.63910759  1
  O  O239  1  0.99072609  0.24355335  0.12349380  1
  O  O240  1  0.98484372  0.24467870  0.61598187  1
  O  O241  1  1.00003078  0.74928565  0.15517645  1
  O  O242  1  0.98962554  0.75226324  0.63337400  1
  O  O243  1  0.00482566  0.25770305  0.37377767  1
  O  O244  1  -0.02233143  0.25824928  0.90099758  1
  O  O245  1  -0.03535927  0.76306605  0.32795164  1
  O  O246  1  0.00365751  0.75724615  0.87050057  1
  O  O247  1  0.51054376  0.25344989  0.36902265  1
  O  O248  1  0.50388755  0.23759147  0.86060957  1
  O  O249  1  0.50367534  0.76591093  0.37656585  1
  O  O250  1  0.50525731  0.75355465  0.86683790  1
  O  O251  1  0.24005256  0.13417956  0.49918338  1
  O  O252  1  0.23968775  0.11521654  0.99193647  1
  O  O253  1  0.23345790  0.65288346  0.48660036  1
  O  O254  1  0.24520915  0.63281965  1.00140362  1
  O  O255  1  0.74239858  0.12421288  0.49001271  1
  O  O256  1  0.74729024  0.13495521  0.99376258  1
  O  O257  1  0.74976487  0.63304564  0.49720429  1
  O  O258  1  0.74650810  0.63022244  0.99322284  1
  O  O259  1  0.26659411  0.38492340  0.00971795  1
  O  O260  1  0.25108797  0.35551841  0.49507853  1
  O  O261  1  0.25905273  0.86933140  0.00908540  1
  O  O262  1  0.26228231  0.87917637  0.51052394  1
  O  O263  1  0.74287375  0.36153528  0.00227986  1
  O  O264  1  0.76174712  0.36924600  0.49421214  1
  O  O265  1  0.75539814  0.86637784  0.00497783  1
  O  O266  1  0.75318321  0.86466382  0.50443151  1
  O  O267  1  0.11135041  0.48144014  0.24231159  1
  O  O268  1  0.08202669  0.49457519  0.74079998  1
  O  O269  1  0.13009936  0.99341414  0.25268737  1
  O  O270  1  0.12610580  0.98693818  0.74509723  1
  O  O271  1  0.63124153  0.49322135  0.24540924  1
  O  O272  1  0.62936913  0.49457547  0.73885283  1
  O  O273  1  0.63107072  0.99625538  0.24269201  1
  O  O274  1  0.62835415  0.99246812  0.74608793  1
  O  O275  1  0.38339513  0.00999991  0.25928076  1
  O  O276  1  0.38036112  0.00619867  0.75832655  1
  O  O277  1  0.37795258  0.51764243  0.25268732  1
  O  O278  1  0.39960853  0.49308009  0.76657302  1
  O  O279  1  0.86603487  0.00833791  0.24726973  1
  O  O280  1  0.87032560  0.00388259  0.75364770  1
  O  O281  1  0.86669849  0.50172034  0.25234071  1
  O  O282  1  0.88166458  0.50949689  0.75827835  1
  O  O283  1  0.11453518  0.36096155  0.36663849  1
  O  O284  1  0.13930980  0.36163784  0.86908745  1
  O  O285  1  0.12575748  0.87945268  0.36375527  1
  O  O286  1  0.12118646  0.87296788  0.86785275  1
  O  O287  1  0.61959477  0.36635244  0.37213589  1
  O  O288  1  0.62952975  0.37588124  0.85846483  1
  O  O289  1  0.61584411  0.87995578  0.36617591  1
  O  O290  1  0.62134160  0.86715690  0.86921288  1
  O  O291  1  0.38105633  0.13341099  0.12819359  1
  O  O292  1  0.38087443  0.11688844  0.63349672  1
  O  O293  1  0.38668616  0.63492946  0.13007385  1
  O  O294  1  0.37972354  0.63740079  0.61652503  1
  O  O295  1  0.87171361  0.13540849  0.13085285  1
  O  O296  1  0.87193276  0.13367969  0.63490920  1
  O  O297  1  0.86297075  0.61583350  0.12915757  1
  O  O298  1  0.87239041  0.63002017  0.63748990  1
  O  O299  1  0.26568198  0.26040550  0.12873604  1
  O  O300  1  0.25529913  0.24531221  0.60861304  1
  O  O301  1  0.26228350  0.76125439  0.11662993  1
  O  O302  1  0.26471149  0.76297889  0.63605530  1
  O  O303  1  0.75418956  0.25201144  0.11533746  1
  O  O304  1  0.75910607  0.25232557  0.62141075  1
  O  O305  1  0.74007256  0.75996932  0.10961262  1
  O  O306  1  0.76490343  0.74989031  0.62198143  1
  O  O307  1  0.24210980  0.24914939  0.38298698  1
  O  O308  1  0.27302721  0.22601012  0.88792282  1
  O  O309  1  0.25650688  0.76568179  0.37935606  1
  O  O310  1  0.25100622  0.75512612  0.89404155  1
  O  O311  1  0.73706502  0.23918222  0.37356008  1
  O  O312  1  0.74973466  0.24361099  0.88118022  1
  O  O313  1  0.75885205  0.74672236  0.38743770  1
  O  O314  1  0.74857121  0.73889429  0.87973371  1
  O  O315  1  0.01807835  0.11122676  -0.00018109  1
  O  O316  1  0.01556690  0.12642676  0.50312788  1
  O  O317  1  0.00840309  0.61605577  0.00414899  1
  O  O318  1  -0.01718960  0.60482520  0.49300910  1
  O  O319  1  0.50503302  0.11996009  0.00576659  1
  O  O320  1  0.50454515  0.11748088  0.50397774  1
  O  O321  1  0.50825098  0.61769671  0.00694425  1
  O  O322  1  0.52035387  0.63235669  0.50207057  1
  O  O323  1  0.49713642  0.37025874  0.48656152  1
  O  O324  1  0.49036217  0.38517387  1.00500220  1
  O  O325  1  0.49951354  0.88102890  0.48992750  1
  O  O326  1  0.49846232  0.87954703  0.99383986  1
  O  O327  1  0.98645295  0.37772210  0.49056163  1
  O  O328  1  1.00334795  0.38517893  1.00518601  1
  O  O329  1  0.97967507  0.88269411  0.50358379  1
  O  O330  1  0.99733922  0.87607524  1.00064460  1
  O  O331  1  0.50704059  0.48287990  0.37184160  1
  O  O332  1  0.50645231  0.49299957  0.88193496  1
  O  O333  1  0.49728310  0.99963536  0.38669595  1
  O  O334  1  0.49322887  0.99459158  0.88002296  1
  O  O335  1  0.99450804  0.48492722  0.38002687  1
  O  O336  1  0.99166805  0.50668271  0.88756361  1
  O  O337  1  0.98919361  1.01284396  0.38546701  1
  O  O338  1  0.99568342  0.98992655  0.88611837  1
  O  O339  1  -0.00898086  0.00368968  0.10882391  1
  O  O340  1  0.01639536  -0.00872616  0.62214922  1
  O  O341  1  -0.00868752  0.49826799  0.11370119  1
  O  O342  1  -0.02083277  0.49491934  0.60546099  1
  O  O343  1  0.50610601  0.00501643  0.11955567  1
  O  O344  1  0.50495872  0.00246826  0.61238543  1
  O  O345  1  0.50726669  0.50701934  0.11842837  1
  O  O346  1  0.51927920  0.50294328  0.62186741  1
  O  O347  1  0.24492887  0.38190726  0.24674706  1
  O  O348  1  0.24789630  0.38172316  0.73719094  1
  O  O349  1  0.24074816  0.87770414  0.23455432  1
  O  O350  1  0.24335000  0.87552876  0.74715846  1
  O  O351  1  0.74335094  0.37960580  0.24556508  1
  O  O352  1  0.74197890  0.37739287  0.74670562  1
  O  O353  1  0.74388190  0.88037867  0.24163008  1
  O  O354  1  0.74117166  0.87988612  0.75079508  1
  O  O355  1  0.26423584  0.12757232  0.24294762  1
  O  O356  1  0.26023782  0.11681021  0.76165923  1
  O  O357  1  0.27041236  0.62621129  0.25000947  1
  O  O358  1  0.25273682  0.63240449  0.77482176  1
  O  O359  1  0.75593338  0.11982428  0.25471523  1
  O  O360  1  0.75263877  0.11741487  0.75724292  1
  O  O361  1  0.75000352  0.60435472  0.25067069  1
  O  O362  1  0.76148315  0.62353767  0.75823767  1
  O  O363  1  0.38140425  0.11538100  0.36290857  1
  O  O364  1  0.37276871  0.11253409  0.87020042  1
  O  O365  1  0.39290939  0.63920109  0.35713492  1
  O  O366  1  0.35844870  0.62702809  0.89070018  1
  O  O367  1  0.86306873  0.12943570  0.36469868  1
  O  O368  1  0.86549114  0.11490685  0.86764973  1
  O  O369  1  0.87319807  0.60995630  0.36162052  1
  O  O370  1  0.87105756  0.61989338  0.86866233  1
  O  O371  1  0.14156856  0.36422278  0.13417264  1
  O  O372  1  0.12206116  0.38319930  0.62423718  1
  O  O373  1  0.13935793  0.88051477  0.12050787  1
  O  O374  1  0.13439224  0.87635631  0.63101460  1
  O  O375  1  0.62897943  0.37786652  0.13204226  1
  O  O376  1  0.62451845  0.38414995  0.63381678  1
  O  O377  1  0.63298330  0.87957240  0.13157837  1
  O  O378  1  0.62496849  0.88023791  0.63159859  1
  O  O379  1  0.12491129  0.25377102  0.25758663  1
  O  O380  1  0.14785296  0.24440073  0.76755026  1
  O  O381  1  0.12580062  0.76772187  0.24249573  1
  O  O382  1  0.11946849  0.76104530  0.75255813  1
  O  O383  1  0.61942708  0.25448891  0.25701886  1
  O  O384  1  0.61747875  0.25876948  0.74865495  1
  O  O385  1  0.63191782  0.75937569  0.24669724  1
  O  O386  1  0.61934762  0.75392627  0.75248336  1
  O  O387  1  0.38146323  0.24313737  0.24459624  1
  O  O388  1  0.38370613  0.23124964  0.74810538  1
  O  O389  1  0.37664567  0.74661547  0.23616058  1
  O  O390  1  0.39073546  0.75543747  0.74267491  1
  O  O391  1  0.87303634  0.23988865  0.24126455  1
  O  O392  1  0.87313775  0.23828854  0.73692736  1
  O  O393  1  0.83881364  0.72477748  0.23419191  1
  O  O394  1  0.88254216  0.74607046  0.74351172  1
  O  O395  1  0.36829868  0.51246309  0.48788726  1
  O  O396  1  0.39015324  0.49516230  1.00639158  1
  O  O397  1  0.38398624  0.99132477  0.49482413  1
  O  O398  1  0.38426442  0.99497280  0.99301815  1
  O  O399  1  0.87522909  0.48760747  0.48669462  1
  O  O400  1  0.88898641  0.49713271  0.99192978  1
  O  O401  1  0.86654297  0.98660664  0.50602912  1
  O  O402  1  0.87920805  0.99256107  0.99182871  1
  O  O403  1  0.11889590  0.00138050  -0.00396109  1
  O  O404  1  0.12796667  0.00751384  0.50773212  1
  O  O405  1  0.11009269  0.50740591  0.00256075  1
  O  O406  1  0.10153646  0.49341596  0.50337507  1
  O  O407  1  0.62117149  0.00434192  0.00527857  1
  O  O408  1  0.61936481  0.00398390  0.50343923  1
  O  O409  1  0.61802636  0.50342551  0.00441098  1
  O  O410  1  0.63322311  0.51203117  0.51033642  1
  O  O411  1  0.37149175  0.37050437  0.12205020  1
  O  O412  1  0.36599296  0.37891231  0.61648672  1
  O  O413  1  0.37541259  0.86962057  0.12235444  1
  O  O414  1  0.37042542  0.87402521  0.61606473  1
  O  O415  1  0.86649539  0.35918354  0.13050692  1
  O  O416  1  0.87319372  0.35797083  0.61319770  1
  O  O417  1  0.86170780  0.87823491  0.12029514  1
  O  O418  1  0.87052021  0.86793915  0.61960128  1
  O  O419  1  0.12081889  0.13759638  0.38133664  1
  O  O420  1  0.14147113  0.11635089  0.88386146  1
  O  O421  1  0.08148473  0.65975567  0.34055708  1
  O  O422  1  0.13882988  0.62936752  0.89215572  1
  O  O423  1  0.62925955  0.13141448  0.37821339  1
  O  O424  1  0.63367308  0.12432168  0.88216726  1
  O  O425  1  0.63028356  0.61856935  0.39047180  1
  O  O426  1  0.63598420  0.62792313  0.87885960  1
