# generated using pymatgen
data_V85Zn86O256
_symmetry_space_group_name_H-M   'P 1'
_cell_length_a   16.94498281
_cell_length_b   16.94307216
_cell_length_c   16.93410971
_cell_angle_alpha   89.93644670
_cell_angle_beta   89.94061092
_cell_angle_gamma   90.01267503
_symmetry_Int_Tables_number   1
_chemical_formula_structural   V85Zn86O256
_chemical_formula_sum   'V85 Zn86 O256'
_cell_volume   4861.77830199
_cell_formula_units_Z   1
loop_
 _symmetry_equiv_pos_site_id
 _symmetry_equiv_pos_as_xyz
  1  'x, y, z'
loop_
 _atom_site_type_symbol
 _atom_site_label
 _atom_site_symmetry_multiplicity
 _atom_site_fract_x
 _atom_site_fract_y
 _atom_site_fract_z
 _atom_site_occupancy
  V  V0  1  0.12082019  0.63040416  0.50509082  1
  V  V1  1  0.62388110  0.87351682  0.24890920  1
  V  V2  1  0.00079514  0.37379716  0.37750165  1
  V  V3  1  0.13148596  0.24317845  0.37472722  1
  V  V4  1  0.75004859  0.25036674  0.50286086  1
  V  V5  1  0.12412543  0.75644253  0.37456161  1
  V  V6  1  0.74723358  -0.00095314  0.26195953  1
  V  V7  1  0.87368128  0.37332796  0.50196293  1
  V  V8  1  -0.00148178  0.75404402  0.25186392  1
  V  V9  1  0.74954969  -0.01324916  0.74001444  1
  V  V10  1  0.62904415  0.63160608  -0.00246543  1
  V  V11  1  0.37392342  0.24057258  0.12763677  1
  V  V12  1  0.11956338  0.37494995  0.75252686  1
  V  V13  1  0.37221947  0.74850666  0.11745737  1
  V  V14  1  0.62448793  0.12359818  0.51133103  1
  V  V15  1  0.48961422  0.49895772  0.49516983  1
  V  V16  1  0.62911513  0.49657452  0.12247089  1
  V  V17  1  0.50274190  0.50123505  -0.00238416  1
  V  V18  1  0.25225136  0.62044733  0.37666995  1
  V  V19  1  0.12140621  0.50451955  0.62656305  1
  V  V20  1  0.12374536  -0.00056350  0.12291604  1
  V  V21  1  0.49737534  0.23871076  0.25010943  1
  V  V22  1  -0.00983874  0.49746127  -0.00338794  1
  V  V23  1  0.62601380  0.37182061  0.24532045  1
  V  V24  1  0.62206816  0.12358239  0.00194675  1
  V  V25  1  -0.01255407  0.37792372  0.87640546  1
  V  V26  1  0.25101996  0.63339235  0.87931225  1
  V  V27  1  0.75200547  0.12227708  0.38114430  1
  V  V28  1  0.75336135  0.50183834  0.75285970  1
  V  V29  1  0.76890368  0.75657495  0.00472038  1
  V  V30  1  0.50297366  -0.00173048  0.51051781  1
  V  V31  1  -0.00332952  0.62943394  0.12380039  1
  V  V32  1  0.89188277  0.75411063  0.62379556  1
  V  V33  1  0.37537483  0.61881575  0.25175550  1
  V  V34  1  0.76134189  0.12439292  0.87081403  1
  V  V35  1  0.37695028  0.62838782  0.75069995  1
  V  V36  1  0.24897340  0.24966377  -0.00119869  1
  V  V37  1  0.75558392  0.75026483  0.50203807  1
  V  V38  1  0.88724071  0.62644162  0.74311199  1
  V  V39  1  0.49355801  0.24329160  0.75079885  1
  V  V40  1  0.88243491  0.24330982  0.63818973  1
  V  V41  1  0.62555212  0.49719661  0.62375145  1
  V  V42  1  0.19884407  0.19696530  0.54884340  1
  V  V43  1  0.49076385  0.37745698  0.37076852  1
  V  V44  1  0.50132719  0.62599912  0.12330546  1
  V  V45  1  0.62111524  -0.00260431  0.12187367  1
  V  V46  1  -0.00226911  0.50547834  0.50468370  1
  V  V47  1  0.38247008  0.00674210  0.87133625  1
  V  V48  1  -0.01320373  -0.01361324  0.00967846  1
  V  V49  1  0.25110763  0.37772928  0.61895025  1
  V  V50  1  0.50786672  0.76057875  0.75195505  1
  V  V51  1  0.37693962  0.00817225  0.37012387  1
  V  V52  1  0.49835245  0.62427965  0.62603870  1
  V  V53  1  -0.00153061  0.24950104  0.25140597  1
  V  V54  1  0.37238194  0.87358698  0.50108635  1
  V  V55  1  0.38253132  0.87957502  -0.00244677  1
  V  V56  1  0.25523161  0.00770276  0.24682627  1
  V  V57  1  0.37423244  0.37460766  -0.00107043  1
  V  V58  1  -0.00627291  0.87055419  0.86208445  1
  V  V59  1  0.87490510  0.62585302  0.24828483  1
  V  V60  1  0.25082643  0.87173831  0.11987728  1
  V  V61  1  0.24906833  0.12413141  0.86852396  1
  V  V62  1  0.37551384  0.50167376  0.87481776  1
  V  V63  1  0.87268736  0.12467943  0.25197188  1
  V  V64  1  0.12579861  0.75870525  0.86318305  1
  V  V65  1  0.75238810  0.26275696  0.00475867  1
  V  V66  1  0.11770635  0.25330373  0.87799801  1
  V  V67  1  0.12734097  0.63369646  -0.00011033  1
  V  V68  1  0.75304218  0.49245941  0.24595976  1
  V  V69  1  0.23750599  -0.00553694  0.75153823  1
  V  V70  1  0.87055767  0.26423861  0.12421088  1
  V  V71  1  -0.00407202  0.12427103  0.12274059  1
  V  V72  1  0.62603612  0.25026243  0.87441722  1
  V  V73  1  0.12832953  0.50136840  0.12324800  1
  V  V74  1  0.49853771  0.87449243  0.37519753  1
  V  V75  1  0.23600432  0.87634388  0.62879593  1
  V  V76  1  0.49945427  0.37512360  0.87311678  1
  V  V77  1  0.76655528  0.87636886  0.12555971  1
  V  V78  1  0.00754569  0.00351579  0.49151582  1
  V  V79  1  0.37607210  0.24125155  0.62066502  1
  V  V80  1  0.62403403  0.74621176  0.37281405  1
  V  V81  1  0.12609635  0.37707478  0.25056349  1
  V  V82  1  0.62517105  0.62151592  0.49670638  1
  V  V83  1  0.25045335  0.50198366  0.75148544  1
  V  V84  1  0.75943786  0.62530527  0.87497911  1
  Zn  Zn85  1  0.12161759  0.12223728  -0.00118558  1
  Zn  Zn86  1  0.87404517  0.49954234  0.37609429  1
  Zn  Zn87  1  0.36780313  0.37253539  0.49315641  1
  Zn  Zn88  1  0.74338121  0.86846089  0.63057513  1
  Zn  Zn89  1  0.62227598  0.25055292  0.37625957  1
  Zn  Zn90  1  0.50989754  0.88532882  0.87672190  1
  Zn  Zn91  1  0.87992492  0.90207451  0.44782352  1
  Zn  Zn92  1  0.37413370  0.75361842  0.62652553  1
  Zn  Zn93  1  0.49961847  0.11932535  0.63281409  1
  Zn  Zn94  1  0.49878812  0.74862402  0.24740918  1
  Zn  Zn95  1  -0.00383353  0.11267580  0.62834276  1
  Zn  Zn96  1  0.63600006  0.76031670  0.86796990  1
  Zn  Zn97  1  0.62477511  0.37494816  0.74860399  1
  Zn  Zn98  1  0.75055255  0.37517020  0.62757102  1
  Zn  Zn99  1  0.25128194  0.37426720  0.12529514  1
  Zn  Zn100  1  0.24868833  0.75240826  0.50017384  1
  Zn  Zn101  1  0.12857950  0.87569601  0.25192935  1
  Zn  Zn102  1  0.49543977  0.11677906  0.12403337  1
  Zn  Zn103  1  0.87309458  -0.00482203  0.87682830  1
  Zn  Zn104  1  0.25462719  0.49770415  0.25376906  1
  Zn  Zn105  1  0.75041240  0.61885474  0.37284971  1
  Zn  Zn106  1  0.25595778  0.13048792  0.37387304  1
  Zn  Zn107  1  0.18575432  0.18600885  0.18652442  1
  Zn  Zn108  1  0.13504087  0.15995476  0.72320069  1
  Zn  Zn109  1  0.18955243  0.68769679  0.18877210  1
  Zn  Zn110  1  0.18770706  0.69260807  0.68616858  1
  Zn  Zn111  1  0.68703474  0.18771083  0.18613318  1
  Zn  Zn112  1  0.69052240  0.18799047  0.68974537  1
  Zn  Zn113  1  0.69148372  0.68714623  0.18378121  1
  Zn  Zn114  1  0.68829295  0.68434834  0.68499798  1
  Zn  Zn115  1  0.31244184  0.31119849  0.30947326  1
  Zn  Zn116  1  0.30969728  0.31142352  0.80805986  1
  Zn  Zn117  1  0.31127506  0.81111085  0.30807127  1
  Zn  Zn118  1  0.31509564  0.81478473  0.81275048  1
  Zn  Zn119  1  0.81089256  0.31119767  0.31602594  1
  Zn  Zn120  1  0.80791017  0.31495213  0.81429217  1
  Zn  Zn121  1  0.80445323  0.80164839  0.30760504  1
  Zn  Zn122  1  0.81685200  0.81068674  0.80949481  1
  Zn  Zn123  1  0.18358171  0.44045156  0.43673427  1
  Zn  Zn124  1  0.18539207  0.44054315  0.93898365  1
  Zn  Zn125  1  0.18755180  0.94221219  0.43794283  1
  Zn  Zn126  1  0.18889065  0.93579916  0.94027748  1
  Zn  Zn127  1  0.68355257  0.43485621  0.43212937  1
  Zn  Zn128  1  0.68981189  0.43948656  0.93396441  1
  Zn  Zn129  1  0.67515518  0.91894794  0.46785985  1
  Zn  Zn130  1  0.68941492  0.93741372  0.93881765  1
  Zn  Zn131  1  0.31090925  0.06123449  0.05439590  1
  Zn  Zn132  1  0.31548929  0.05367588  0.56711605  1
  Zn  Zn133  1  0.31174548  0.56322531  0.06133305  1
  Zn  Zn134  1  0.31029057  0.56505021  0.56293451  1
  Zn  Zn135  1  0.80651814  0.06755711  0.06543269  1
  Zn  Zn136  1  0.82321976  0.05818596  0.56425675  1
  Zn  Zn137  1  0.81200452  0.56121554  0.06488499  1
  Zn  Zn138  1  0.81277995  0.56602256  0.56468741  1
  Zn  Zn139  1  0.43867413  0.43403529  0.18335423  1
  Zn  Zn140  1  0.43687626  0.43400389  0.68711383  1
  Zn  Zn141  1  0.43809101  0.93580549  0.18812920  1
  Zn  Zn142  1  0.42806196  0.93837931  0.69043618  1
  Zn  Zn143  1  0.94224342  0.44203658  0.18685282  1
  Zn  Zn144  1  0.93521723  0.43744942  0.68783102  1
  Zn  Zn145  1  0.91986200  0.92005729  0.24677844  1
  Zn  Zn146  1  0.93000949  0.94300135  0.68399741  1
  Zn  Zn147  1  0.06439587  0.06086309  0.31148071  1
  Zn  Zn148  1  0.05122011  0.05384451  0.81750699  1
  Zn  Zn149  1  0.06330514  0.56466076  0.31658092  1
  Zn  Zn150  1  0.06438554  0.56213797  0.81674192  1
  Zn  Zn151  1  0.56707663  0.06172973  0.31997913  1
  Zn  Zn152  1  0.57048044  0.06420171  0.81183613  1
  Zn  Zn153  1  0.56097406  0.55917079  0.30963019  1
  Zn  Zn154  1  0.56779508  0.56804742  0.81250576  1
  Zn  Zn155  1  0.43873496  0.18848240  0.44089012  1
  Zn  Zn156  1  0.43760606  0.18428819  0.93799590  1
  Zn  Zn157  1  0.43668738  0.68700462  0.43610478  1
  Zn  Zn158  1  0.43960530  0.69293127  0.93689855  1
  Zn  Zn159  1  0.93903870  0.17795357  0.44277809  1
  Zn  Zn160  1  0.93744445  0.18971962  0.94388586  1
  Zn  Zn161  1  0.93755205  0.68784937  0.43438587  1
  Zn  Zn162  1  0.94128152  0.68677400  0.93227426  1
  Zn  Zn163  1  0.05944148  0.31432495  0.06372314  1
  Zn  Zn164  1  0.05755159  0.31573583  0.56691323  1
  Zn  Zn165  1  0.06271343  0.81170093  0.06467745  1
  Zn  Zn166  1  0.05550193  0.82734198  0.55178245  1
  Zn  Zn167  1  0.56138364  0.30985095  0.06311195  1
  Zn  Zn168  1  0.55915842  0.31289398  0.56148105  1
  Zn  Zn169  1  0.56576342  0.81344554  0.05994736  1
  Zn  Zn170  1  0.56393574  0.81039215  0.56609631  1
  O  O171  1  0.11549785  0.11740661  0.12368236  1
  O  O172  1  0.14340976  0.14146015  0.60912926  1
  O  O173  1  0.12226015  0.61911272  0.11805912  1
  O  O174  1  0.13115586  0.62224242  0.61271361  1
  O  O175  1  0.62533403  0.11660193  0.11840303  1
  O  O176  1  0.62385173  0.12840978  0.61475784  1
  O  O177  1  0.62181798  0.61807469  0.11725532  1
  O  O178  1  0.61835242  0.61416198  0.61796529  1
  O  O179  1  0.38564831  0.37510549  0.37286173  1
  O  O180  1  0.37876002  0.38142952  0.87877058  1
  O  O181  1  0.37893284  0.88021666  0.37972516  1
  O  O182  1  0.37867342  0.88515369  0.88184472  1
  O  O183  1  0.88064718  0.37532028  0.38657604  1
  O  O184  1  0.88826696  0.37071437  0.87304662  1
  O  O185  1  0.88514039  0.86778073  0.34163967  1
  O  O186  1  0.89008487  0.87046341  0.87703627  1
  O  O187  1  0.25886868  0.00144664  0.36531388  1
  O  O188  1  0.25637387  0.00680984  0.87413958  1
  O  O189  1  0.24450273  0.51489922  0.37312329  1
  O  O190  1  0.25483566  0.50895120  0.86995298  1
  O  O191  1  0.74268974  0.00657509  0.36557285  1
  O  O192  1  0.75453068  0.01606263  0.88210421  1
  O  O193  1  0.74951285  0.49949833  0.36038288  1
  O  O194  1  0.74714289  0.51093532  0.86503300  1
  O  O195  1  0.23779445  0.49862244  0.12429331  1
  O  O196  1  0.24382862  0.49564230  0.63246808  1
  O  O197  1  0.24435747  0.99642499  0.12763526  1
  O  O198  1  0.25288410  0.98714941  0.63608146  1
  O  O199  1  0.74337373  0.50024425  0.13557504  1
  O  O200  1  0.74063744  0.50013544  0.63035511  1
  O  O201  1  0.74087697  0.99468752  0.13457825  1
  O  O202  1  0.75643524  0.99681860  0.63714017  1
  O  O203  1  0.00967501  0.37185813  0.25596948  1
  O  O204  1  0.00933727  0.38671596  0.76140320  1
  O  O205  1  0.01252072  0.85509849  0.23102931  1
  O  O206  1  -0.00183340  0.88283503  0.76462840  1
  O  O207  1  0.50484836  0.36869829  0.25423739  1
  O  O208  1  0.50256879  0.36701946  0.75761764  1
  O  O209  1  0.50614786  0.87049860  0.25758872  1
  O  O210  1  0.49639194  0.86265490  0.74857434  1
  O  O211  1  0.50692793  0.13629563  0.25025477  1
  O  O212  1  0.50550503  0.13874653  0.75049524  1
  O  O213  1  0.49339693  0.62527846  0.24166359  1
  O  O214  1  0.49503306  0.63051827  0.74467372  1
  O  O215  1  0.99048143  0.13009354  0.24459868  1
  O  O216  1  1.02799070  0.12579516  0.73761506  1
  O  O217  1  0.99518950  0.62651040  0.24202508  1
  O  O218  1  0.98524146  0.61607125  0.75409352  1
  O  O219  1  0.36467511  0.25381697  0.00206776  1
  O  O220  1  0.38192112  0.25741512  0.51198824  1
  O  O221  1  0.37617376  0.75643980  0.01029517  1
  O  O222  1  0.37447627  0.76311097  0.49864715  1
  O  O223  1  0.86540996  0.24858352  0.01239877  1
  O  O224  1  0.86731698  0.25710648  0.50504663  1
  O  O225  1  0.86646682  0.74133569  0.00361598  1
  O  O226  1  0.86952755  0.73466980  0.51463994  1
  O  O227  1  0.13072258  0.25620925  0.49397031  1
  O  O228  1  0.13598271  0.25315265  0.99662203  1
  O  O229  1  0.12269582  0.74534780  0.49280301  1
  O  O230  1  0.12117173  0.73713113  0.99388407  1
  O  O231  1  0.63192972  0.24390051  0.50024735  1
  O  O232  1  0.63156256  0.24610911  0.99481255  1
  O  O233  1  0.63152004  0.73857209  0.49032813  1
  O  O234  1  0.63501663  0.73781536  1.00297973  1
  O  O235  1  0.49127907  0.24692525  0.13257201  1
  O  O236  1  0.49218284  0.25059895  0.63390499  1
  O  O237  1  0.49375419  0.74207453  0.12415482  1
  O  O238  1  0.49943622  0.74398199  0.63405708  1
  O  O239  1  0.99388780  0.24461856  0.13129800  1
  O  O240  1  0.98492431  0.25012042  0.62347573  1
  O  O241  1  1.00756301  0.73389044  0.13023328  1
  O  O242  1  0.99034416  0.75486527  0.61937277  1
  O  O243  1  0.00630386  0.25514171  0.37045666  1
  O  O244  1  0.01173435  0.26066329  0.88806246  1
  O  O245  1  0.01070010  0.74140919  0.36280487  1
  O  O246  1  0.01101652  0.76189693  0.87880072  1
  O  O247  1  0.50003343  0.25706509  0.36646219  1
  O  O248  1  0.50516860  0.25403945  0.87003384  1
  O  O249  1  0.51042668  0.75361727  0.37364396  1
  O  O250  1  0.50318353  0.74946312  0.85939871  1
  O  O251  1  0.25435459  0.12748479  0.49701890  1
  O  O252  1  0.24511345  0.13361036  0.98918116  1
  O  O253  1  0.24343441  0.62895166  0.49355462  1
  O  O254  1  0.24332766  0.62123458  0.98693090  1
  O  O255  1  0.74460236  0.13008946  0.49708302  1
  O  O256  1  0.74082095  0.13586229  0.99326422  1
  O  O257  1  0.74351746  0.63041514  0.49540820  1
  O  O258  1  0.74826436  0.63154950  0.99524023  1
  O  O259  1  0.25535912  0.36772777  -0.00022149  1
  O  O260  1  0.24933079  0.38667707  0.51396668  1
  O  O261  1  0.26308381  0.88034051  0.01250402  1
  O  O262  1  0.25650330  0.87713541  0.50968274  1
  O  O263  1  0.74604352  0.36255425  -0.00412075  1
  O  O264  1  0.75577608  0.36831322  0.49934269  1
  O  O265  1  0.75542877  0.86354755  0.00851508  1
  O  O266  1  0.77134115  0.85298614  0.47856522  1
  O  O267  1  0.12397010  0.49399611  0.24201249  1
  O  O268  1  0.13072669  0.49535013  0.74690153  1
  O  O269  1  0.13119730  0.99751694  0.23814533  1
  O  O270  1  0.13894817  0.99295370  0.76639743  1
  O  O271  1  0.63166271  0.49236157  0.24278021  1
  O  O272  1  0.63354249  0.50216631  0.74095837  1
  O  O273  1  0.63128903  0.99460779  0.24660088  1
  O  O274  1  0.65129366  1.00843973  0.75747531  1
  O  O275  1  0.36860229  -0.00428331  0.25782192  1
  O  O276  1  0.36199842  -0.00318400  0.76648430  1
  O  O277  1  0.37370417  0.51398899  0.23774315  1
  O  O278  1  0.37189661  0.50802067  0.75600250  1
  O  O279  1  0.86222850  0.01804188  0.24755165  1
  O  O280  1  0.85678889  -0.00266160  0.76008242  1
  O  O281  1  0.86846661  0.50346914  0.25078574  1
  O  O282  1  0.86206300  0.51207135  0.74051301  1
  O  O283  1  0.12113109  0.36833365  0.36829737  1
  O  O284  1  0.11943556  0.37215963  0.87039831  1
  O  O285  1  0.13564246  0.85999528  0.37135871  1
  O  O286  1  0.11818402  0.86269916  0.88310940  1
  O  O287  1  0.61326352  0.37258754  0.36153676  1
  O  O288  1  0.61891963  0.36398720  0.87588386  1
  O  O289  1  0.61967653  0.86394063  0.37212233  1
  O  O290  1  0.62024001  0.87012083  0.88665676  1
  O  O291  1  0.37725615  0.13613557  0.11447015  1
  O  O292  1  0.37608464  0.13693600  0.62243680  1
  O  O293  1  0.37932850  0.63198110  0.12586823  1
  O  O294  1  0.38052632  0.62811247  0.63199637  1
  O  O295  1  0.87815224  0.13350824  0.13390839  1
  O  O296  1  0.87213477  0.14094899  0.62867596  1
  O  O297  1  0.88720355  0.61528554  0.13377514  1
  O  O298  1  0.87453914  0.63293167  0.63681178  1
  O  O299  1  0.25525918  0.25003028  0.11691056  1
  O  O300  1  0.25583421  0.25750890  0.61551680  1
  O  O301  1  0.25868216  0.75890142  0.12826283  1
  O  O302  1  0.25391043  0.76239487  0.62254748  1
  O  O303  1  0.75796550  0.24846079  0.11747452  1
  O  O304  1  0.75583292  0.25340982  0.61576860  1
  O  O305  1  0.75022241  0.75897630  0.11350090  1
  O  O306  1  0.75186261  0.74758973  0.61332463  1
  O  O307  1  0.24176445  0.24899278  0.37260373  1
  O  O308  1  0.24350869  0.24551758  0.88096421  1
  O  O309  1  0.24276427  0.73918088  0.37474634  1
  O  O310  1  0.23905574  0.74569301  0.87263025  1
  O  O311  1  0.74675151  0.24453659  0.38865813  1
  O  O312  1  0.74341106  0.24431551  0.88189192  1
  O  O313  1  0.73670980  0.73924484  0.37597721  1
  O  O314  1  0.75382180  0.74511197  0.88809584  1
  O  O315  1  0.00098183  0.11458919  0.00757504  1
  O  O316  1  0.00083785  0.11565838  0.51023187  1
  O  O317  1  0.00651140  0.61703969  0.00423154  1
  O  O318  1  0.00808392  0.61562577  0.49515986  1
  O  O319  1  0.51707227  0.13220535  0.00225048  1
  O  O320  1  0.50809590  0.11736938  0.50295155  1
  O  O321  1  0.51034620  0.62200269  0.00132294  1
  O  O322  1  0.50391360  0.61779427  0.50477355  1
  O  O323  1  0.50035437  0.38329332  0.48885225  1
  O  O324  1  0.49492099  0.38019804  0.99307268  1
  O  O325  1  0.49214124  0.88110552  0.49389705  1
  O  O326  1  0.48656641  0.87167969  1.00025856  1
  O  O327  1  0.99218075  0.38141839  0.49595117  1
  O  O328  1  1.00666576  0.39040244  0.99421358  1
  O  O329  1  0.98796956  0.89201464  0.49299298  1
  O  O330  1  0.99954552  0.88468622  1.00233308  1
  O  O331  1  0.50347728  0.49163654  0.38346770  1
  O  O332  1  0.49734418  0.49733137  0.87902729  1
  O  O333  1  0.49323220  0.99299804  0.38016159  1
  O  O334  1  0.48645283  1.00425052  0.86593055  1
  O  O335  1  1.00107713  0.49159786  0.38660750  1
  O  O336  1  1.00437037  0.49482344  0.88966735  1
  O  O337  1  0.99944591  1.01061004  0.38574248  1
  O  O338  1  0.99798432  0.98534199  0.89102019  1
  O  O339  1  0.00675966  0.00325822  0.11802420  1
  O  O340  1  -0.01087386  -0.00035938  0.60864427  1
  O  O341  1  0.01138351  0.50681111  0.11605377  1
  O  O342  1  0.00624374  0.49423924  0.61310033  1
  O  O343  1  0.51518264  0.00019472  0.13189485  1
  O  O344  1  0.49217567  0.00062487  0.61498304  1
  O  O345  1  0.50724267  0.50563525  0.11570388  1
  O  O346  1  0.50610640  0.50368198  0.61903677  1
  O  O347  1  0.23856766  0.37862838  0.24745595  1
  O  O348  1  0.24291805  0.38299974  0.74160753  1
  O  O349  1  0.25104712  0.88515863  0.23658390  1
  O  O350  1  0.25374558  0.87831713  0.73694488  1
  O  O351  1  0.73960529  0.37957365  0.25402495  1
  O  O352  1  0.74548999  0.38697223  0.74923481  1
  O  O353  1  0.74034037  0.88185499  0.24458872  1
  O  O354  1  0.74604415  0.88110607  0.75033494  1
  O  O355  1  0.24885150  0.11181175  0.24887671  1
  O  O356  1  0.24025780  0.11860684  0.76371430  1
  O  O357  1  0.25767458  0.62193432  0.25690889  1
  O  O358  1  0.25627280  0.62316434  0.75953921  1
  O  O359  1  0.75219723  0.12012469  0.25842712  1
  O  O360  1  0.74969345  0.12875512  0.76930206  1
  O  O361  1  0.75943190  0.61583324  0.24682288  1
  O  O362  1  0.75563682  0.62112736  0.75766853  1
  O  O363  1  0.37749141  0.11159147  0.37846501  1
  O  O364  1  0.36623897  0.11450670  0.87941796  1
  O  O365  1  0.36728154  0.63023593  0.36384034  1
  O  O366  1  0.36815700  0.62341892  0.87235938  1
  O  O367  1  0.85911885  0.13668135  0.36690477  1
  O  O368  1  0.86336722  0.12838889  0.88056587  1
  O  O369  1  0.87417071  0.61892043  0.36328941  1
  O  O370  1  0.86694714  0.63061228  0.86241889  1
  O  O371  1  0.12489118  0.38305980  0.13311870  1
  O  O372  1  0.13009170  0.38052232  0.63400513  1
  O  O373  1  0.13579093  0.88136240  0.12310943  1
  O  O374  1  0.13807099  0.86983700  0.62133111  1
  O  O375  1  0.61708003  0.38119700  0.13653219  1
  O  O376  1  0.62468682  0.38728259  0.62488938  1
  O  O377  1  0.63140030  0.88086365  0.12987136  1
  O  O378  1  0.64560734  0.88226778  0.57589400  1
  O  O379  1  0.11984202  0.25839822  0.25462855  1
  O  O380  1  0.13148750  0.26828778  0.76437917  1
  O  O381  1  0.11822178  0.74565064  0.25842202  1
  O  O382  1  0.12336780  0.74675863  0.76486069  1
  O  O383  1  0.61703028  0.25693133  0.24915703  1
  O  O384  1  0.61980139  0.25310566  0.75926948  1
  O  O385  1  0.62475400  0.75327810  0.25589541  1
  O  O386  1  0.61194604  0.74434508  0.74856834  1
  O  O387  1  0.38331554  0.25309176  0.23850244  1
  O  O388  1  0.38347471  0.25549122  0.74005006  1
  O  O389  1  0.37650181  0.73962060  0.23699280  1
  O  O390  1  0.38607909  0.74314904  0.75023114  1
  O  O391  1  0.87697069  0.24297314  0.24556925  1
  O  O392  1  0.86970374  0.25966066  0.73529582  1
  O  O393  1  0.88319362  0.73274903  0.24699637  1
  O  O394  1  0.87334873  0.73591586  0.73753321  1
  O  O395  1  0.38708823  0.49741469  0.50549785  1
  O  O396  1  0.38155777  0.49621528  0.99384890  1
  O  O397  1  0.38208949  0.99017450  0.49173324  1
  O  O398  1  0.37382566  0.99367585  0.98479816  1
  O  O399  1  0.88055210  0.49369606  0.50059348  1
  O  O400  1  0.89135801  0.50277677  1.00474648  1
  O  O401  1  0.88193783  1.00759824  0.48712784  1
  O  O402  1  0.88515815  1.00329028  1.00361631  1
  O  O403  1  0.11867348  -0.00038051  0.01131381  1
  O  O404  1  0.11028505  -0.00354038  0.49719553  1
  O  O405  1  0.11923796  0.51101032  0.00625733  1
  O  O406  1  0.11675310  0.50853789  0.50603301  1
  O  O407  1  0.63313216  0.01056237  0.01118388  1
  O  O408  1  0.61102911  0.01292128  0.48765550  1
  O  O409  1  0.62414319  0.51058712  0.00237217  1
  O  O410  1  0.61854257  0.50386625  0.50511241  1
  O  O411  1  0.37328043  0.36397167  0.11565361  1
  O  O412  1  0.36380947  0.36821377  0.62510967  1
  O  O413  1  0.37150214  0.86852708  0.11920865  1
  O  O414  1  0.36854242  0.87417750  0.61459117  1
  O  O415  1  0.88131292  0.36310120  0.13252916  1
  O  O416  1  0.87304522  0.36937390  0.61359251  1
  O  O417  1  0.86346471  0.88324371  0.14262716  1
  O  O418  1  0.86740808  0.85517855  0.63110826  1
  O  O419  1  0.12837297  0.14065228  0.36827024  1
  O  O420  1  0.12893225  0.13723007  0.87958506  1
  O  O421  1  0.13170664  0.63197917  0.38582846  1
  O  O422  1  0.13124378  0.63478529  0.88034767  1
  O  O423  1  0.63739694  0.13062950  0.38310522  1
  O  O424  1  0.63221965  0.13653816  0.88306203  1
  O  O425  1  0.62268004  0.62962855  0.37844933  1
  O  O426  1  0.63908421  0.63109856  0.88210294  1
