# generated using pymatgen
data_V85Zn86O256
_symmetry_space_group_name_H-M   'P 1'
_cell_length_a   16.93995682
_cell_length_b   16.94106649
_cell_length_c   16.94919158
_cell_angle_alpha   90.07579738
_cell_angle_beta   90.01884760
_cell_angle_gamma   90.02131276
_symmetry_Int_Tables_number   1
_chemical_formula_structural   V85Zn86O256
_chemical_formula_sum   'V85 Zn86 O256'
_cell_volume   4864.08998884
_cell_formula_units_Z   1
loop_
 _symmetry_equiv_pos_site_id
 _symmetry_equiv_pos_as_xyz
  1  'x, y, z'
loop_
 _atom_site_type_symbol
 _atom_site_label
 _atom_site_symmetry_multiplicity
 _atom_site_fract_x
 _atom_site_fract_y
 _atom_site_fract_z
 _atom_site_occupancy
  V  V0  1  -0.00166712  -0.00687434  -0.01866619  1
  V  V1  1  0.00161676  0.37280893  0.37134419  1
  V  V2  1  0.25281404  0.62422740  0.37381793  1
  V  V3  1  0.36593252  0.38131940  0.00459483  1
  V  V4  1  0.62183934  0.25373464  0.89453049  1
  V  V5  1  0.25054988  -0.00251096  0.75602832  1
  V  V6  1  0.36327681  0.12458393  0.23911587  1
  V  V7  1  0.62878944  -0.00525015  0.63521535  1
  V  V8  1  0.50444959  0.62315092  0.10813184  1
  V  V9  1  0.25083218  0.12472157  0.88435224  1
  V  V10  1  0.00297574  0.50105154  0.49989737  1
  V  V11  1  0.25169275  0.74895598  0.50089860  1
  V  V12  1  0.87423549  0.49939329  0.37194223  1
  V  V13  1  -0.00317544  0.62611185  0.12900525  1
  V  V14  1  0.74621611  0.49892645  0.24717738  1
  V  V15  1  0.13136340  0.87908694  0.25315477  1
  V  V16  1  0.50892019  0.12778826  0.62050685  1
  V  V17  1  0.25610498  0.50170051  0.75346443  1
  V  V18  1  0.87005053  0.37023722  0.00156088  1
  V  V19  1  0.38163439  0.62606778  0.75465144  1
  V  V20  1  0.24905810  0.75245008  0.00035302  1
  V  V21  1  0.11940621  0.12509959  0.00731707  1
  V  V22  1  0.49234760  0.24951653  0.24397706  1
  V  V23  1  0.25086193  0.87341377  0.63015781  1
  V  V24  1  0.24970704  0.49986931  0.23747815  1
  V  V25  1  0.62339376  0.74713303  0.38131584  1
  V  V26  1  0.38013161  0.74928813  0.63098300  1
  V  V27  1  0.87306583  0.49653756  0.87381320  1
  V  V28  1  0.25392274  0.62529062  0.87728199  1
  V  V29  1  0.13795360  0.25382483  0.37815506  1
  V  V30  1  0.12827480  0.50128757  0.62497150  1
  V  V31  1  0.11248964  0.00006809  0.12993287  1
  V  V32  1  0.50301403  0.50212692  0.49716602  1
  V  V33  1  0.61748226  0.36761739  0.25308921  1
  V  V34  1  0.73045299  0.13407894  0.37504595  1
  V  V35  1  0.12599865  -0.00054526  0.62730747  1
  V  V36  1  0.25326790  0.37418129  0.62258182  1
  V  V37  1  0.62475688  0.50456654  0.11209276  1
  V  V38  1  0.00310640  0.49662911  0.00995583  1
  V  V39  1  0.37786726  0.87589781  0.49876182  1
  V  V40  1  0.50155891  0.25156175  0.75388136  1
  V  V41  1  0.88070929  0.62674344  0.75191678  1
  V  V42  1  0.37413647  0.37126663  0.49448186  1
  V  V43  1  0.88616790  0.24208417  0.12559191  1
  V  V44  1  -0.00103119  0.12635500  0.62344345  1
  V  V45  1  0.62793579  0.10682911  0.00375394  1
  V  V46  1  0.74456510  0.62248553  0.38111455  1
  V  V47  1  0.24988267  0.88755824  0.12447982  1
  V  V48  1  0.62649631  0.50263663  0.62517982  1
  V  V49  1  0.12605096  0.37781986  0.24030561  1
  V  V50  1  0.50136103  0.87550177  0.37151251  1
  V  V51  1  0.37495981  0.12480272  0.75105058  1
  V  V52  1  0.86596518  0.87231228  0.50066175  1
  V  V53  1  0.87116510  0.37394274  0.49692239  1
  V  V54  1  0.37870851  0.62458461  0.24747619  1
  V  V55  1  0.00332902  0.37467493  0.87737317  1
  V  V56  1  0.49393957  0.11593336  0.11493308  1
  V  V57  1  0.13094929  0.24945225  0.87943582  1
  V  V58  1  0.50852913  0.62876744  0.62493972  1
  V  V59  1  0.13552502  0.13055076  0.50125774  1
  V  V60  1  0.50251912  0.74821829  0.24744927  1
  V  V61  1  0.49042169  0.39052681  0.88288027  1
  V  V62  1  0.10535446  0.74890844  0.87425159  1
  V  V63  1  0.62391571  0.74157645  0.86786069  1
  V  V64  1  0.36771586  0.00047323  0.36734635  1
  V  V65  1  0.12564837  0.74882724  0.37879733  1
  V  V66  1  0.38536152  0.88469027  -0.00245565  1
  V  V67  1  0.86785975  0.76562092  0.13167896  1
  V  V68  1  0.63074366  0.87998351  0.23743105  1
  V  V69  1  0.00291516  0.25206358  0.74730630  1
  V  V70  1  0.87620685  0.74672357  0.62687964  1
  V  V71  1  0.50800727  0.00507274  0.49611893  1
  V  V72  1  0.38052013  0.49507330  0.37176783  1
  V  V73  1  0.12897647  0.37670031  0.75116949  1
  V  V74  1  0.86992345  0.87625918  -0.01867055  1
  V  V75  1  0.12528792  0.62292032  0.00877762  1
  V  V76  1  0.00064774  0.87373148  0.37971726  1
  V  V77  1  0.74940330  0.37289160  0.63103011  1
  V  V78  1  0.87212864  0.24860044  0.61917759  1
  V  V79  1  0.37503928  0.75062511  0.12246548  1
  V  V80  1  0.36964034  0.24810682  0.62035460  1
  V  V81  1  0.74490566  0.35689422  0.12305712  1
  V  V82  1  0.87027860  0.00757706  0.37624661  1
  V  V83  1  0.50934700  0.87537784  0.85662817  1
  V  V84  1  -0.00096893  0.00092983  0.49957442  1
  Zn  Zn85  1  0.75423982  0.12670382  0.87766451  1
  Zn  Zn86  1  0.88037232  0.11821512  0.24548099  1
  Zn  Zn87  1  0.74369857  0.74352505  0.50327411  1
  Zn  Zn88  1  0.74430369  0.62219372  0.88251711  1
  Zn  Zn89  1  0.75263529  -0.00552059  0.23987372  1
  Zn  Zn90  1  0.75084490  0.49966946  0.75143686  1
  Zn  Zn91  1  0.74187999  0.86784227  0.63075779  1
  Zn  Zn92  1  0.72221625  0.24597450  0.49986010  1
  Zn  Zn93  1  0.55987432  0.31074845  0.41513589  1
  Zn  Zn94  1  0.38599700  0.00469026  0.88068002  1
  Zn  Zn95  1  0.00101035  0.75000247  0.25178441  1
  Zn  Zn96  1  0.10483420  0.87699551  0.76902458  1
  Zn  Zn97  1  0.00395160  0.23962042  0.24912685  1
  Zn  Zn98  1  0.87223863  0.62809357  0.24983766  1
  Zn  Zn99  1  0.76712105  -0.00783765  0.77321068  1
  Zn  Zn100  1  0.00468251  0.62436951  0.63225757  1
  Zn  Zn101  1  0.74071164  0.74843830  0.00528852  1
  Zn  Zn102  1  0.12568307  0.62631398  0.50205346  1
  Zn  Zn103  1  0.25160154  0.35990965  0.12272443  1
  Zn  Zn104  1  0.62416068  0.37613342  0.75595167  1
  Zn  Zn105  1  0.25099654  0.12348433  0.37482734  1
  Zn  Zn106  1  0.87319678  0.12206400  0.75767537  1
  Zn  Zn107  1  0.17978249  0.18372140  0.19226027  1
  Zn  Zn108  1  0.18952478  0.18628195  0.69060268  1
  Zn  Zn109  1  0.18872584  0.69130154  0.18838571  1
  Zn  Zn110  1  0.18536713  0.68886667  0.69251458  1
  Zn  Zn111  1  0.70834813  0.14715627  0.16646509  1
  Zn  Zn112  1  0.68903223  0.18356611  0.69341582  1
  Zn  Zn113  1  0.68708809  0.68679023  0.19080706  1
  Zn  Zn114  1  0.69401462  0.68710645  0.69648290  1
  Zn  Zn115  1  0.31525338  0.31198468  0.30647136  1
  Zn  Zn116  1  0.31566742  0.31141653  0.81629272  1
  Zn  Zn117  1  0.31295339  0.81325374  0.30991378  1
  Zn  Zn118  1  0.31336664  0.81102908  0.81582611  1
  Zn  Zn119  1  0.80711043  0.30572520  0.30824496  1
  Zn  Zn120  1  0.82186569  0.28848320  0.82220062  1
  Zn  Zn121  1  0.80978956  0.81314322  0.31444664  1
  Zn  Zn122  1  0.80345168  0.80856236  0.80679791  1
  Zn  Zn123  1  0.19244768  0.43841221  0.43453615  1
  Zn  Zn124  1  0.19069475  0.44200414  0.94016786  1
  Zn  Zn125  1  0.18848195  0.93669643  0.44377128  1
  Zn  Zn126  1  0.18613391  0.93555169  0.94060454  1
  Zn  Zn127  1  0.68884030  0.43844769  0.44109278  1
  Zn  Zn128  1  0.68828933  0.43045718  0.93743802  1
  Zn  Zn129  1  0.68680803  0.93938014  0.43387792  1
  Zn  Zn130  1  0.68722230  0.93289075  0.93562381  1
  Zn  Zn131  1  0.31439039  0.19722183  0.06108712  1
  Zn  Zn132  1  0.31742540  0.05990948  0.56246686  1
  Zn  Zn133  1  0.31985969  0.56010519  0.05768712  1
  Zn  Zn134  1  0.31595372  0.56281374  0.56248862  1
  Zn  Zn135  1  0.80884245  0.05403697  0.04942928  1
  Zn  Zn136  1  0.80736329  0.06658499  0.55701974  1
  Zn  Zn137  1  0.81205212  0.56251021  0.06358303  1
  Zn  Zn138  1  0.81378941  0.56087205  0.56298641  1
  Zn  Zn139  1  0.43952206  0.43885135  0.17974582  1
  Zn  Zn140  1  0.43829131  0.43852535  0.69000035  1
  Zn  Zn141  1  0.43887612  0.93851648  0.18572218  1
  Zn  Zn142  1  0.43844471  0.94186280  0.68776175  1
  Zn  Zn143  1  0.93417545  0.43347313  0.18739186  1
  Zn  Zn144  1  0.93809704  0.43713678  0.68724388  1
  Zn  Zn145  1  0.94354855  0.93917852  0.19443385  1
  Zn  Zn146  1  0.93027619  0.93345188  0.69560563  1
  Zn  Zn147  1  0.06113989  0.06386716  0.31410905  1
  Zn  Zn148  1  0.06148676  0.06518607  0.80981542  1
  Zn  Zn149  1  0.06563123  0.56099276  0.31181382  1
  Zn  Zn150  1  0.06201343  0.56388541  0.81855458  1
  Zn  Zn151  1  0.55563674  0.06268007  0.30344483  1
  Zn  Zn152  1  0.56473241  0.06337089  0.81777160  1
  Zn  Zn153  1  0.56397058  0.56121480  0.30726197  1
  Zn  Zn154  1  0.56472122  0.56487037  0.81077482  1
  Zn  Zn155  1  0.43610328  0.18420409  0.43302494  1
  Zn  Zn156  1  0.43898170  0.19211351  0.93813272  1
  Zn  Zn157  1  0.43923796  0.68540060  0.43952287  1
  Zn  Zn158  1  0.43978878  0.69578345  0.93406228  1
  Zn  Zn159  1  0.94286780  0.18943337  0.43776468  1
  Zn  Zn160  1  0.94072498  0.18583789  0.94002553  1
  Zn  Zn161  1  0.93485356  0.68652067  0.43920456  1
  Zn  Zn162  1  0.91360783  0.67830744  0.95301104  1
  Zn  Zn163  1  0.06712441  0.31108393  0.06249109  1
  Zn  Zn164  1  0.06448794  0.31481183  0.55943012  1
  Zn  Zn165  1  0.05696157  0.81215369  0.06151213  1
  Zn  Zn166  1  0.04481889  0.82819137  0.59236427  1
  Zn  Zn167  1  0.54980899  0.31628950  0.06812563  1
  Zn  Zn168  1  0.55568011  0.31979592  0.57734557  1
  Zn  Zn169  1  0.56455023  0.80955941  0.05655528  1
  Zn  Zn170  1  0.56149750  0.81471488  0.56220024  1
  O  O171  1  0.12522059  0.11440371  0.11405643  1
  O  O172  1  0.12034339  0.12152081  0.62050316  1
  O  O173  1  0.11898777  0.63250422  0.11478138  1
  O  O174  1  0.12507543  0.61721902  0.62297519  1
  O  O175  1  0.60875737  0.13420596  0.10780558  1
  O  O176  1  0.61169548  0.12041511  0.62564021  1
  O  O177  1  0.62048152  0.61360737  0.12711739  1
  O  O178  1  0.61532779  0.62071013  0.63143956  1
  O  O179  1  0.37111276  0.38419250  0.38083618  1
  O  O180  1  0.38440832  0.37571341  0.88052636  1
  O  O181  1  0.38224210  0.87997267  0.37640687  1
  O  O182  1  0.38431531  0.87141994  0.88491240  1
  O  O183  1  0.88153744  0.37791856  0.37672910  1
  O  O184  1  0.88169392  0.37438880  0.88321747  1
  O  O185  1  0.87760972  0.88138884  0.38486505  1
  O  O186  1  0.87747633  0.86223520  0.88455176  1
  O  O187  1  0.26468907  -0.00266594  0.38155461  1
  O  O188  1  0.24820657  0.00541289  0.86767431  1
  O  O189  1  0.26310117  0.50674229  0.36829152  1
  O  O190  1  0.24442674  0.51591228  0.86728316  1
  O  O191  1  0.75583981  0.01049207  0.37324623  1
  O  O192  1  0.74330158  0.01236925  0.88264770  1
  O  O193  1  0.75241662  0.50329437  0.36740255  1
  O  O194  1  0.76287973  0.49549507  0.87634129  1
  O  O195  1  0.25467172  0.50143424  0.13632568  1
  O  O196  1  0.24639692  0.49663903  0.63238955  1
  O  O197  1  0.23283900  0.98579348  0.11832923  1
  O  O198  1  0.25018398  0.99398466  0.63659796  1
  O  O199  1  0.74231887  0.49487261  0.13069796  1
  O  O200  1  0.74222760  0.49238911  0.62429661  1
  O  O201  1  0.74404937  1.03967234  0.13742386  1
  O  O202  1  0.72983306  1.00527201  0.61607331  1
  O  O203  1  0.00888816  0.37812642  0.25800414  1
  O  O204  1  0.00973184  0.37228648  0.75564637  1
  O  O205  1  0.01409249  0.87226335  0.26188385  1
  O  O206  1  0.02059833  0.87101700  0.69810425  1
  O  O207  1  0.50911538  0.36961190  0.24226598  1
  O  O208  1  0.49638824  0.36808439  0.76097125  1
  O  O209  1  0.50446800  0.86670597  0.25402978  1
  O  O210  1  0.49366392  0.87123050  0.75860525  1
  O  O211  1  0.49082144  0.13143877  0.23725659  1
  O  O212  1  0.49375202  0.13185201  0.74466568  1
  O  O213  1  0.49556599  0.63115772  0.24197589  1
  O  O214  1  0.48766022  0.61851212  0.74083528  1
  O  O215  1  0.99398691  0.12673880  0.25289314  1
  O  O216  1  1.00140809  0.13507809  0.73944148  1
  O  O217  1  1.00178869  0.62315802  0.23897647  1
  O  O218  1  0.98777963  0.61415471  0.74791531  1
  O  O219  1  0.37308387  0.26608571  -0.00811698  1
  O  O220  1  0.38139696  0.25884155  0.50783258  1
  O  O221  1  0.36704974  0.75719152  0.00562240  1
  O  O222  1  0.37166103  0.75435227  0.51037207  1
  O  O223  1  0.88524711  0.26345701  0.01228762  1
  O  O224  1  0.88144371  0.25899100  0.50920398  1
  O  O225  1  0.88395953  0.76986493  0.01708371  1
  O  O226  1  0.86619533  0.75667370  0.50049930  1
  O  O227  1  0.12340374  0.24310701  0.49181420  1
  O  O228  1  0.11733681  0.23778205  0.99064266  1
  O  O229  1  0.13348136  0.75004658  0.48802920  1
  O  O230  1  0.13012964  0.74321410  0.99527790  1
  O  O231  1  0.61001391  0.26039750  0.50054045  1
  O  O232  1  0.61886229  0.25680662  0.99441640  1
  O  O233  1  0.62357322  0.75208790  0.48605510  1
  O  O234  1  0.62779840  0.75402433  0.98448720  1
  O  O235  1  0.49826540  0.24135742  0.13647141  1
  O  O236  1  0.48737689  0.24431128  0.63384706  1
  O  O237  1  0.49524633  0.74224124  0.12843479  1
  O  O238  1  0.49193435  0.74103327  0.61828799  1
  O  O239  1  0.98946754  0.25736886  0.12878634  1
  O  O240  1  0.99776877  0.24262554  0.62445266  1
  O  O241  1  0.99131221  0.74280662  0.13002578  1
  O  O242  1  0.98001407  0.73495880  0.60470813  1
  O  O243  1  0.00789550  0.26372795  0.37580239  1
  O  O244  1  0.01424231  0.25651162  0.86905074  1
  O  O245  1  0.00926160  0.75423275  0.37684722  1
  O  O246  1  0.00885374  0.73731019  0.88705896  1
  O  O247  1  0.49210546  0.24599014  0.35417673  1
  O  O248  1  0.50674679  0.25845840  0.86879693  1
  O  O249  1  0.50495294  0.75240777  0.36886373  1
  O  O250  1  0.51005750  0.76312150  0.87687865  1
  O  O251  1  0.23897899  0.12030753  0.50194358  1
  O  O252  1  0.24048121  0.12397928  0.98740402  1
  O  O253  1  0.25186544  0.63124965  0.49293231  1
  O  O254  1  0.24389490  0.62855348  0.99621402  1
  O  O255  1  0.74947817  0.13001894  0.48119315  1
  O  O256  1  0.73024327  0.12962319  0.99798822  1
  O  O257  1  0.75188063  0.61962802  0.48482747  1
  O  O258  1  0.79032741  0.64126392  0.98767349  1
  O  O259  1  0.25926401  0.37719069  0.00172082  1
  O  O260  1  0.26496267  0.38201559  0.50739277  1
  O  O261  1  0.25609107  0.86818521  0.00613854  1
  O  O262  1  0.26122996  0.86840883  0.50633414  1
  O  O263  1  0.75918967  0.37472000  0.00999074  1
  O  O264  1  0.75536353  0.37133808  0.50978852  1
  O  O265  1  0.76725188  0.87307601  -0.00047767  1
  O  O266  1  0.75589616  0.87342538  0.50246404  1
  O  O267  1  0.13880774  0.49005875  0.25881085  1
  O  O268  1  0.13594827  0.49703476  0.74693638  1
  O  O269  1  0.12282484  0.99111032  0.24353015  1
  O  O270  1  0.13339319  0.99672166  0.74504620  1
  O  O271  1  0.63326106  0.49206263  0.24119191  1
  O  O272  1  0.62833973  0.49768416  0.73897721  1
  O  O273  1  0.62150674  0.98204651  0.25421470  1
  O  O274  1  0.62033052  1.00462973  0.73469020  1
  O  O275  1  0.37977379  0.00877303  0.25707230  1
  O  O276  1  0.36605153  0.00648833  0.75394215  1
  O  O277  1  0.37223038  0.50267589  0.25537660  1
  O  O278  1  0.36298263  0.50963683  0.74442865  1
  O  O279  1  0.87245616  -0.00381565  0.26306601  1
  O  O280  1  0.88084905  0.00959306  0.75190520  1
  O  O281  1  0.86051860  0.49619133  0.25401768  1
  O  O282  1  0.87439819  0.50015499  0.75955951  1
  O  O283  1  0.12021298  0.37041914  0.37077615  1
  O  O284  1  0.12505764  0.36855523  0.87224455  1
  O  O285  1  0.12486202  0.86912299  0.37182029  1
  O  O286  1  0.12496241  0.85568580  0.88021785  1
  O  O287  1  0.62381028  0.38649512  0.35769141  1
  O  O288  1  0.61070027  0.36937780  0.87588389  1
  O  O289  1  0.61754100  0.86630624  0.36912670  1
  O  O290  1  0.61260140  0.86864749  0.87294440  1
  O  O291  1  0.38277590  0.12588047  0.12700437  1
  O  O292  1  0.38065868  0.13145548  0.63054064  1
  O  O293  1  0.38272736  0.62875315  0.12945974  1
  O  O294  1  0.38284187  0.63219819  0.63140263  1
  O  O295  1  0.87500636  0.14192107  0.11761640  1
  O  O296  1  0.88340148  0.13419228  0.61882435  1
  O  O297  1  0.88406139  0.63331520  0.13017508  1
  O  O298  1  0.87576037  0.62634801  0.63381660  1
  O  O299  1  0.23822137  0.24779336  0.12324431  1
  O  O300  1  0.26342377  0.25406516  0.63147642  1
  O  O301  1  0.25536235  0.75753696  0.11829077  1
  O  O302  1  0.25566636  0.75611567  0.62265335  1
  O  O303  1  0.75753195  0.25540936  0.13000925  1
  O  O304  1  0.75623603  0.25410780  0.62016131  1
  O  O305  1  0.76531763  0.74538945  0.12666313  1
  O  O306  1  0.75924337  0.74600270  0.62048615  1
  O  O307  1  0.24063488  0.25127428  0.37451383  1
  O  O308  1  0.23796808  0.24067737  0.86628518  1
  O  O309  1  0.24703880  0.74388870  0.37899999  1
  O  O310  1  0.24627948  0.73934158  0.88304258  1
  O  O311  1  0.74842421  0.24017193  0.38031020  1
  O  O312  1  0.72034335  0.25685501  0.86857281  1
  O  O313  1  0.74083317  0.73948658  0.37486997  1
  O  O314  1  0.73503197  0.74845492  0.87703144  1
  O  O315  1  0.00728093  0.10844351  -0.00719387  1
  O  O316  1  0.01226646  0.12257673  0.50610480  1
  O  O317  1  0.00361941  0.61763952  0.01282298  1
  O  O318  1  0.00215822  0.60835730  0.49485572  1
  O  O319  1  0.50210443  0.12659372  0.00920109  1
  O  O320  1  0.48987862  0.11619355  0.50950554  1
  O  O321  1  0.49163451  0.62635369  0.00977261  1
  O  O322  1  0.49353858  0.61126978  0.51099654  1
  O  O323  1  0.48929417  0.38688490  0.49900749  1
  O  O324  1  0.48959914  0.37567195  0.98878690  1
  O  O325  1  0.49472341  0.88213690  0.49136917  1
  O  O326  1  0.48682451  0.87456968  0.99957348  1
  O  O327  1  0.99552929  0.38448180  0.49227646  1
  O  O328  1  0.99753082  0.38173042  0.99748287  1
  O  O329  1  0.99235185  0.88225736  0.49768011  1
  O  O330  1  0.99215303  0.88743464  1.00205640  1
  O  O331  1  0.48947020  0.50793966  0.38120419  1
  O  O332  1  0.50123758  0.48767364  0.86961879  1
  O  O333  1  0.49096034  0.99704120  0.38001933  1
  O  O334  1  0.49996413  0.98305406  0.87008000  1
  O  O335  1  0.99736880  0.48992819  0.37909306  1
  O  O336  1  0.99282795  0.49213962  0.88553702  1
  O  O337  1  0.99417436  0.99227679  0.38351876  1
  O  O338  1  1.00914575  0.99294055  0.88250120  1
  O  O339  1  0.01014353  -0.00598881  0.11748018  1
  O  O340  1  0.00443400  0.01611227  0.61744819  1
  O  O341  1  -0.00672886  0.50561598  0.11626412  1
  O  O342  1  0.00905249  0.49757627  0.61537015  1
  O  O343  1  0.49833442  0.01749581  0.12784077  1
  O  O344  1  0.50490159  0.00827649  0.61732295  1
  O  O345  1  0.51616249  0.50843579  0.12758170  1
  O  O346  1  0.50617170  0.50590929  0.61908826  1
  O  O347  1  0.24446150  0.38343766  0.24696376  1
  O  O348  1  0.24951136  0.38400069  0.74626442  1
  O  O349  1  0.23933617  0.87033581  0.24130352  1
  O  O350  1  0.24850477  0.88088815  0.74499060  1
  O  O351  1  0.73836541  0.37854329  0.24163474  1
  O  O352  1  0.75265561  0.37253179  0.73694392  1
  O  O353  1  0.73506085  0.87584287  0.25297010  1
  O  O354  1  0.75730882  0.88386777  0.74055458  1
  O  O355  1  0.26003511  0.12394324  0.25221810  1
  O  O356  1  0.25328100  0.11579273  0.75949734  1
  O  O357  1  0.25689337  0.61925758  0.25386034  1
  O  O358  1  0.25800445  0.62053857  0.75756786  1
  O  O359  1  0.76329050  0.12940137  0.26907337  1
  O  O360  1  0.75332723  0.11859628  0.75561790  1
  O  O361  1  0.74975833  0.61387917  0.25854675  1
  O  O362  1  0.76534479  0.61795003  0.75915171  1
  O  O363  1  0.37073061  0.11597455  0.36505103  1
  O  O364  1  0.36714858  0.12397312  0.87105718  1
  O  O365  1  0.37119562  0.61961006  0.36749147  1
  O  O366  1  0.36799147  0.63294474  0.86567296  1
  O  O367  1  0.87995014  0.11155015  0.38185773  1
  O  O368  1  0.86140142  0.17766771  0.86264049  1
  O  O369  1  0.86856288  0.61605296  0.36982498  1
  O  O370  1  0.88345814  0.60870847  0.86655641  1
  O  O371  1  0.12488984  0.37632859  0.13747045  1
  O  O372  1  0.13376722  0.38053847  0.62970781  1
  O  O373  1  0.12799308  0.87649138  0.13460695  1
  O  O374  1  0.14687581  0.88407439  0.60863090  1
  O  O375  1  0.62906249  0.38343819  0.13074864  1
  O  O376  1  0.63211774  0.38488764  0.63268697  1
  O  O377  1  0.61966416  0.86815850  0.13947119  1
  O  O378  1  0.62220771  0.89020737  0.62213898  1
  O  O379  1  0.12201834  0.26003984  0.26154027  1
  O  O380  1  0.12177882  0.25730790  0.75513144  1
  O  O381  1  0.12607825  0.75627097  0.26389136  1
  O  O382  1  0.12290720  0.74583010  0.77042035  1
  O  O383  1  0.61795658  0.26718263  0.24668960  1
  O  O384  1  0.60894315  0.25247390  0.74787670  1
  O  O385  1  0.61942333  0.75697806  0.25813532  1
  O  O386  1  0.62479288  0.74630047  0.76591944  1
  O  O387  1  0.37911632  0.23878624  0.24767054  1
  O  O388  1  0.38307396  0.24481013  0.74504581  1
  O  O389  1  0.38149583  0.74578356  0.24186346  1
  O  O390  1  0.36869482  0.74157229  0.73814788  1
  O  O391  1  0.87982846  0.25461938  0.23466568  1
  O  O392  1  0.88671836  0.25864558  0.72806659  1
  O  O393  1  0.87854177  0.75058442  0.24351800  1
  O  O394  1  0.87449090  0.73879384  0.74004665  1
  O  O395  1  0.38146698  0.49403297  0.49145970  1
  O  O396  1  0.37358287  0.48295195  0.99463895  1
  O  O397  1  0.38413926  0.99284604  0.49396021  1
  O  O398  1  0.36867319  0.98229461  0.99650087  1
  O  O399  1  0.88266997  0.49230991  0.49292443  1
  O  O400  1  0.88317275  0.48719284  0.99524908  1
  O  O401  1  0.87807621  0.99227780  0.49624061  1
  O  O402  1  0.88721045  0.98875449  0.99784855  1
  O  O403  1  0.11416903  0.00305328  0.00498919  1
  O  O404  1  0.11994333  0.00837747  0.50657284  1
  O  O405  1  0.11464633  0.51007092  -0.00375290  1
  O  O406  1  0.11993538  0.49901974  0.50465434  1
  O  O407  1  0.62182014  0.00903204  0.00127876  1
  O  O408  1  0.61059435  -0.00236821  0.50300343  1
  O  O409  1  0.63212803  0.49755265  0.01368537  1
  O  O410  1  0.61560783  0.49476725  0.51260417  1
  O  O411  1  0.37324593  0.37644425  0.11080636  1
  O  O412  1  0.37301570  0.36780769  0.61819170  1
  O  O413  1  0.36849470  0.87272882  0.11657260  1
  O  O414  1  0.36870342  0.86892401  0.62253383  1
  O  O415  1  0.86410537  0.36897762  0.11916075  1
  O  O416  1  0.86823370  0.37189078  0.61652991  1
  O  O417  1  0.87765461  0.86620066  0.13161521  1
  O  O418  1  0.87360406  0.86427118  0.61203849  1
  O  O419  1  0.12943287  0.13388644  0.38371914  1
  O  O420  1  0.13020842  0.13116987  0.88112968  1
  O  O421  1  0.13374328  0.63228458  0.37619033  1
  O  O422  1  0.13064889  0.63226396  0.88765480  1
  O  O423  1  0.63220948  0.12341484  0.36647034  1
  O  O424  1  0.61223464  0.13910623  0.89206898  1
  O  O425  1  0.63200727  0.63302662  0.36820769  1
  O  O426  1  0.62481450  0.63404047  0.87651535  1
