# generated using pymatgen
data_V85Zn86O256
_symmetry_space_group_name_H-M   'P 1'
_cell_length_a   16.94476456
_cell_length_b   16.94268133
_cell_length_c   16.94226147
_cell_angle_alpha   89.98748110
_cell_angle_beta   89.97450034
_cell_angle_gamma   89.91704942
_symmetry_Int_Tables_number   1
_chemical_formula_structural   V85Zn86O256
_chemical_formula_sum   'V85 Zn86 O256'
_cell_volume   4863.94385053
_cell_formula_units_Z   1
loop_
 _symmetry_equiv_pos_site_id
 _symmetry_equiv_pos_as_xyz
  1  'x, y, z'
loop_
 _atom_site_type_symbol
 _atom_site_label
 _atom_site_symmetry_multiplicity
 _atom_site_fract_x
 _atom_site_fract_y
 _atom_site_fract_z
 _atom_site_occupancy
  V  V0  1  0.74636398  0.38878432  0.12527845  1
  V  V1  1  0.62675674  -0.00963478  0.12297961  1
  V  V2  1  -0.00354758  0.12202169  0.62759566  1
  V  V3  1  0.50119795  0.12399703  0.62416915  1
  V  V4  1  0.24975791  0.25854713  -0.00858497  1
  V  V5  1  0.00938302  0.37169281  0.87378328  1
  V  V6  1  0.50011253  0.75485048  0.75982266  1
  V  V7  1  0.86400811  0.87284706  0.00309676  1
  V  V8  1  0.87848282  0.64221693  0.75018711  1
  V  V9  1  0.62497939  0.12383721  0.00061252  1
  V  V10  1  0.37311915  0.24757236  0.62513368  1
  V  V11  1  0.62745606  -0.00552666  0.62143876  1
  V  V12  1  0.62578355  0.62930325  0.00556385  1
  V  V13  1  0.75324643  0.00553332  0.74468717  1
  V  V14  1  0.37207793  0.37756055  0.49674484  1
  V  V15  1  0.25028862  0.49914810  0.74961260  1
  V  V16  1  0.25385140  -0.00480763  0.75215498  1
  V  V17  1  0.00039338  0.87177627  0.85751631  1
  V  V18  1  0.75164551  0.25006879  0.00016963  1
  V  V19  1  0.30481311  0.80806283  -0.04618688  1
  V  V20  1  0.75041675  0.37659136  0.62648688  1
  V  V21  1  0.12659782  0.12214710  0.49423608  1
  V  V22  1  0.36449562  0.75993620  0.13219688  1
  V  V23  1  0.12704142  0.37773555  0.24830760  1
  V  V24  1  0.75200882  0.50083004  0.75307253  1
  V  V25  1  0.38417813  0.62099368  0.74147177  1
  V  V26  1  0.75405177  0.12279208  0.37185124  1
  V  V27  1  0.12257884  0.76054036  0.37676994  1
  V  V28  1  0.37473696  0.61751403  0.25303524  1
  V  V29  1  0.25199812  0.62013688  0.37582808  1
  V  V30  1  0.49480781  0.50243060  0.50609727  1
  V  V31  1  0.87807724  0.37612214  -0.00040525  1
  V  V32  1  0.37223712  0.25574621  0.12125742  1
  V  V33  1  0.75287450  0.85450920  0.62835424  1
  V  V34  1  0.48867310  -0.01262565  -0.01208768  1
  V  V35  1  0.49824077  0.24684645  0.25184685  1
  V  V36  1  0.62612984  0.25138081  0.87448234  1
  V  V37  1  0.49541468  -0.00854538  0.50100474  1
  V  V38  1  0.87534698  0.37566662  0.50118974  1
  V  V39  1  0.50207476  0.62604705  0.12742150  1
  V  V40  1  0.37743126  0.49303057  0.88184362  1
  V  V41  1  0.75395430  0.12577974  0.87145050  1
  V  V42  1  -0.00528403  0.62987534  0.12754167  1
  V  V43  1  0.12412224  0.62737879  0.49908702  1
  V  V44  1  0.87790825  0.12008863  0.25274381  1
  V  V45  1  0.00142700  -0.00438304  -0.00191871  1
  V  V46  1  0.25246476  0.62397067  0.88113535  1
  V  V47  1  0.75098717  0.24975333  0.50010327  1
  V  V48  1  0.25077966  -0.00586321  0.24615544  1
  V  V49  1  0.62481880  0.37657443  0.75197401  1
  V  V50  1  -0.00347590  0.75744182  0.25327694  1
  V  V51  1  0.00905248  0.24698009  0.75147407  1
  V  V52  1  0.86996096  0.50310179  0.37071714  1
  V  V53  1  0.62277987  0.62677387  0.48706681  1
  V  V54  1  0.36415283  0.12414033  0.25537401  1
  V  V55  1  0.87495224  0.24736602  0.63322026  1
  V  V56  1  0.12150192  0.50017972  0.62578116  1
  V  V57  1  0.62554522  0.12205462  0.49830662  1
  V  V58  1  0.12769518  0.87260209  0.23951144  1
  V  V59  1  0.74898382  0.63353945  0.88234384  1
  V  V60  1  0.00531536  0.12314292  0.12294164  1
  V  V61  1  0.49922400  0.38000206  0.37625711  1
  V  V62  1  0.62388200  0.25054543  0.37538196  1
  V  V63  1  0.12699280  0.12911606  -0.01229632  1
  V  V64  1  0.49949036  0.24986564  0.75125104  1
  V  V65  1  0.87725695  0.50247817  0.87441891  1
  V  V66  1  0.87549022  0.25016635  0.12383122  1
  V  V67  1  0.36935540  -0.00757894  0.37827830  1
  V  V68  1  0.12641583  0.63583813  0.00118950  1
  V  V69  1  0.00178562  0.24942280  0.25019011  1
  V  V70  1  0.75254353  0.73987346  0.48102466  1
  V  V71  1  0.49896323  0.12271593  0.12389127  1
  V  V72  1  0.38381896  0.75485003  0.61654925  1
  V  V73  1  0.50210496  0.49183978  0.00874433  1
  V  V74  1  0.12272935  -0.00846810  0.62872190  1
  V  V75  1  0.62244184  0.50871762  0.62735021  1
  V  V76  1  0.00116124  0.37389053  0.37669978  1
  V  V77  1  0.87711039  0.00471713  0.86778506  1
  V  V78  1  -0.00748559  -0.00460408  0.48592677  1
  V  V79  1  0.75167389  -0.00556409  0.24368480  1
  V  V80  1  0.00329044  0.50259314  0.00147469  1
  V  V81  1  -0.00219641  0.64139623  0.63079135  1
  V  V82  1  0.25053969  0.24393681  0.49269167  1
  V  V83  1  0.12075899  0.75331946  0.86123053  1
  V  V84  1  0.51382454  0.87208355  0.37429733  1
  Zn  Zn85  1  0.88138909  0.86575606  0.49521453  1
  Zn  Zn86  1  0.25185394  0.49813259  0.25137768  1
  Zn  Zn87  1  0.86840251  0.63423961  0.25932776  1
  Zn  Zn88  1  0.25660445  0.75652163  0.49701173  1
  Zn  Zn89  1  0.25432083  0.12496008  0.87158343  1
  Zn  Zn90  1  0.13087272  0.24573235  0.37198931  1
  Zn  Zn91  1  0.13491563  -0.00544575  0.11787574  1
  Zn  Zn92  1  0.61842592  0.88075846  0.75723570  1
  Zn  Zn93  1  0.24641430  0.37317278  0.62357689  1
  Zn  Zn94  1  0.62159478  0.75845597  0.88554882  1
  Zn  Zn95  1  0.12922428  0.50451280  0.12769622  1
  Zn  Zn96  1  0.12933522  0.37081108  0.75066974  1
  Zn  Zn97  1  0.50268287  0.74921423  0.25438524  1
  Zn  Zn98  1  -0.00229284  0.50165209  0.50267581  1
  Zn  Zn99  1  0.49690408  0.37168165  0.88082346  1
  Zn  Zn100  1  0.63244751  0.86855132  0.24953155  1
  Zn  Zn101  1  0.73192558  0.50831175  0.26019495  1
  Zn  Zn102  1  0.85579887  0.76810553  0.13194949  1
  Zn  Zn103  1  0.25423619  0.37996327  0.12350703  1
  Zn  Zn104  1  0.37721865  0.11818194  0.75601998  1
  Zn  Zn105  1  0.62206166  0.37474558  0.24248888  1
  Zn  Zn106  1  0.25236678  0.87516569  0.61597428  1
  Zn  Zn107  1  0.18787550  0.18902299  0.18366756  1
  Zn  Zn108  1  0.18771234  0.18010063  0.68211299  1
  Zn  Zn109  1  0.18740297  0.68691570  0.18907551  1
  Zn  Zn110  1  0.19557042  0.68452397  0.68381991  1
  Zn  Zn111  1  0.68729685  0.18882559  0.18622615  1
  Zn  Zn112  1  0.68664614  0.18570833  0.68692754  1
  Zn  Zn113  1  0.68670203  0.69674983  0.19779670  1
  Zn  Zn114  1  0.68238322  0.68026479  0.69593406  1
  Zn  Zn115  1  0.31402815  0.31334915  0.31315012  1
  Zn  Zn116  1  0.31354715  0.31176830  0.81233288  1
  Zn  Zn117  1  0.31270553  0.81157814  0.31516751  1
  Zn  Zn118  1  0.30646713  0.81137038  0.78965406  1
  Zn  Zn119  1  0.81358421  0.31309969  0.30964116  1
  Zn  Zn120  1  0.81730838  0.31386935  0.81300792  1
  Zn  Zn121  1  0.81694109  0.81846723  0.31911277  1
  Zn  Zn122  1  0.80551875  0.82031776  0.81871700  1
  Zn  Zn123  1  0.18626410  0.43790378  0.43751944  1
  Zn  Zn124  1  0.18660109  0.44020227  0.93875483  1
  Zn  Zn125  1  0.18883729  0.93775338  0.43628896  1
  Zn  Zn126  1  0.18111380  0.93819229  0.93140906  1
  Zn  Zn127  1  0.68512949  0.43852519  0.43817635  1
  Zn  Zn128  1  0.68674084  0.44208787  0.94179321  1
  Zn  Zn129  1  0.71705311  0.92247587  0.42680414  1
  Zn  Zn130  1  0.68337074  0.93980823  0.93567579  1
  Zn  Zn131  1  0.31338540  0.06502285  0.06119333  1
  Zn  Zn132  1  0.31132305  0.06167049  0.56346170  1
  Zn  Zn133  1  0.31499815  0.56311118  0.06630575  1
  Zn  Zn134  1  0.30963481  0.56490049  0.56246073  1
  Zn  Zn135  1  0.81523830  0.06088842  0.06102727  1
  Zn  Zn136  1  0.81334469  0.06350324  0.56266496  1
  Zn  Zn137  1  0.78004517  0.60719474  0.10181450  1
  Zn  Zn138  1  0.81419433  0.56614319  0.56387693  1
  Zn  Zn139  1  0.43831344  0.43757612  0.19052741  1
  Zn  Zn140  1  0.43673089  0.43346558  0.68633201  1
  Zn  Zn141  1  0.43983818  0.93850406  0.18800192  1
  Zn  Zn142  1  0.43692467  0.93322466  0.68810484  1
  Zn  Zn143  1  0.93895134  0.43957662  0.18616466  1
  Zn  Zn144  1  0.94015441  0.43930309  0.68967666  1
  Zn  Zn145  1  0.94126311  0.93865121  0.18700325  1
  Zn  Zn146  1  0.93043856  0.93584370  0.67957006  1
  Zn  Zn147  1  0.06731518  0.05939515  0.31164847  1
  Zn  Zn148  1  0.06289268  0.06177424  0.80829370  1
  Zn  Zn149  1  0.05935197  0.56408641  0.31389913  1
  Zn  Zn150  1  0.06336305  0.56642074  0.81141246  1
  Zn  Zn151  1  0.56263678  0.05851131  0.31170860  1
  Zn  Zn152  1  0.56322208  0.06322119  0.81260301  1
  Zn  Zn153  1  0.55781801  0.55834143  0.31141678  1
  Zn  Zn154  1  0.56167562  0.56421130  0.81864756  1
  Zn  Zn155  1  0.43668054  0.18289201  0.43687634  1
  Zn  Zn156  1  0.43428603  0.18248057  0.93714380  1
  Zn  Zn157  1  0.44147404  0.68420772  0.43522570  1
  Zn  Zn158  1  0.43842780  0.68018560  0.93930244  1
  Zn  Zn159  1  0.93867262  0.18650986  0.43992045  1
  Zn  Zn160  1  0.93950268  0.18669419  0.93524141  1
  Zn  Zn161  1  0.94048606  0.68643710  0.43897585  1
  Zn  Zn162  1  0.93828820  0.69181872  0.93693075  1
  Zn  Zn163  1  0.06701667  0.31211648  0.06299960  1
  Zn  Zn164  1  0.06432958  0.31140239  0.56322143  1
  Zn  Zn165  1  0.05740648  0.81141970  0.06039538  1
  Zn  Zn166  1  0.06208724  0.81525286  0.55869137  1
  Zn  Zn167  1  0.56331867  0.30981505  0.06330909  1
  Zn  Zn168  1  0.56338754  0.31455498  0.56380801  1
  Zn  Zn169  1  0.55598750  0.81051273  0.06549427  1
  Zn  Zn170  1  0.56439555  0.80872819  0.56580835  1
  O  O171  1  0.11418521  0.12423030  0.11844234  1
  O  O172  1  0.11477405  0.11675960  0.61353890  1
  O  O173  1  0.11575625  0.62739241  0.11715717  1
  O  O174  1  0.12015412  0.62048392  0.61939461  1
  O  O175  1  0.61620229  0.12166798  0.12020310  1
  O  O176  1  0.62050537  0.11764806  0.61745314  1
  O  O177  1  0.60820616  0.62273792  0.12023925  1
  O  O178  1  0.62674935  0.61099881  0.62134338  1
  O  O179  1  0.38355733  0.36911130  0.38902444  1
  O  O180  1  0.37644124  0.38913263  0.87122830  1
  O  O181  1  0.38557343  0.88842811  0.37127032  1
  O  O182  1  0.35575741  0.85875632  0.88552387  1
  O  O183  1  0.88208846  0.37855958  0.38094173  1
  O  O184  1  0.88538947  0.38279985  0.88009487  1
  O  O185  1  0.82698535  0.89221646  0.40027556  1
  O  O186  1  0.88008682  0.88696771  0.88231772  1
  O  O187  1  0.25867255  -0.00076975  0.36332746  1
  O  O188  1  0.23966372  0.00010365  0.85445549  1
  O  O189  1  0.24472710  0.51571805  0.37607476  1
  O  O190  1  0.25588782  0.50576084  0.87014364  1
  O  O191  1  0.73799075  0.01992268  0.36113039  1
  O  O192  1  0.75764062  0.00587390  0.86459879  1
  O  O193  1  0.76591273  0.49051906  0.37512787  1
  O  O194  1  0.76018278  0.50364985  0.87154637  1
  O  O195  1  0.24691552  0.49700291  0.12880268  1
  O  O196  1  0.23956019  0.50149679  0.63294939  1
  O  O197  1  0.25040127  1.00746008  0.14008556  1
  O  O198  1  0.23540046  1.00184242  0.62719076  1
  O  O199  1  0.75408781  0.48751078  0.11818563  1
  O  O200  1  0.74425503  0.49582067  0.63267622  1
  O  O201  1  0.73921104  1.01256220  0.13245900  1
  O  O202  1  0.74304152  0.99751170  0.62798856  1
  O  O203  1  0.00535810  0.36922275  0.25684321  1
  O  O204  1  0.00211342  0.36687890  0.75761436  1
  O  O205  1  0.00702046  0.86525808  0.24834188  1
  O  O206  1  -0.00871611  0.87982358  0.75858613  1
  O  O207  1  0.49631384  0.36596266  0.26183642  1
  O  O208  1  0.50689776  0.36595685  0.75144864  1
  O  O209  1  0.50499959  0.88096981  0.26601352  1
  O  O210  1  0.49851313  0.85955576  0.75126632  1
  O  O211  1  0.49441713  0.12745665  0.24037280  1
  O  O212  1  0.50126778  0.13359031  0.74137009  1
  O  O213  1  0.49140331  0.62540178  0.24571531  1
  O  O214  1  0.48967070  0.63026715  0.75463404  1
  O  O215  1  0.99681908  0.12697227  0.24305809  1
  O  O216  1  1.00215441  0.13148297  0.73723650  1
  O  O217  1  0.99828724  0.63741988  0.24397538  1
  O  O218  1  0.99067036  0.62387140  0.74360352  1
  O  O219  1  0.36030232  0.24555134  0.00838636  1
  O  O220  1  0.36993082  0.25274332  0.50585630  1
  O  O221  1  0.37187071  0.74826842  0.00976696  1
  O  O222  1  0.37800063  0.73850036  0.51481270  1
  O  O223  1  0.87241048  0.25629398  0.00337948  1
  O  O224  1  0.87004875  0.25609718  0.50965194  1
  O  O225  1  0.88120851  0.77096914  -0.00241528  1
  O  O226  1  0.85723866  0.74501283  0.49541574  1
  O  O227  1  0.13360991  0.24204430  0.50024541  1
  O  O228  1  0.13864173  0.24222944  1.00529955  1
  O  O229  1  0.12316412  0.74321518  0.49171026  1
  O  O230  1  0.11915919  0.73898051  0.99097792  1
  O  O231  1  0.63192039  0.24360249  0.49677579  1
  O  O232  1  0.63114619  0.24349871  0.99408774  1
  O  O233  1  0.62827855  0.73081887  0.50619040  1
  O  O234  1  0.61369750  0.73392087  1.00048373  1
  O  O235  1  0.49373144  0.24272544  0.12946087  1
  O  O236  1  0.49436199  0.24588050  0.62943988  1
  O  O237  1  0.48773467  0.74007030  0.12728668  1
  O  O238  1  0.48963316  0.74892964  0.63537740  1
  O  O239  1  0.99550786  0.24334902  0.12896344  1
  O  O240  1  0.99344293  0.24340184  0.62963569  1
  O  O241  1  0.99395690  0.74481944  0.13317424  1
  O  O242  1  1.00260423  0.74064245  0.62269316  1
  O  O243  1  -0.00015877  0.26044359  0.37048203  1
  O  O244  1  -0.00609871  0.25825337  0.86355339  1
  O  O245  1  0.00874255  0.74552339  0.36629906  1
  O  O246  1  0.00829216  0.75926720  0.87363482  1
  O  O247  1  0.50495842  0.25600319  0.37368086  1
  O  O248  1  0.50676694  0.25161634  0.86936621  1
  O  O249  1  0.49500135  0.77003215  0.37906845  1
  O  O250  1  0.49654716  0.74490067  0.86272901  1
  O  O251  1  0.24002768  0.13219198  0.50512813  1
  O  O252  1  0.24090108  0.13296488  0.99865233  1
  O  O253  1  0.23866770  0.63017630  0.49583061  1
  O  O254  1  0.24220726  0.61857216  0.98884235  1
  O  O255  1  0.74694766  0.12996245  0.49075229  1
  O  O256  1  0.74628349  0.13045553  0.99306707  1
  O  O257  1  0.73878878  0.63342098  0.50543484  1
  O  O258  1  0.73404146  0.60615147  0.99216980  1
  O  O259  1  0.24332245  0.36254926  0.00266293  1
  O  O260  1  0.25718839  0.36893287  0.50117681  1
  O  O261  1  0.24470633  0.87185366  0.00176427  1
  O  O262  1  0.24570561  0.86954308  0.50242142  1
  O  O263  1  0.75656983  0.37073841  0.00679072  1
  O  O264  1  0.75404640  0.36845061  0.50711718  1
  O  O265  1  0.76602670  0.88545095  -0.00224187  1
  O  O266  1  0.73034316  0.84569700  0.51739723  1
  O  O267  1  0.12414754  0.49124550  0.25066573  1
  O  O268  1  0.13440224  0.50117889  0.74406842  1
  O  O269  1  0.13270831  0.99050416  0.24823562  1
  O  O270  1  0.13076343  1.00575758  0.73366575  1
  O  O271  1  0.62223333  0.48564626  0.25910893  1
  O  O272  1  0.62834104  0.49685839  0.74557076  1
  O  O273  1  0.63385627  1.00156898  0.23886844  1
  O  O274  1  0.63067795  1.00199547  0.73686922  1
  O  O275  1  0.36937703  0.00550295  0.25537180  1
  O  O276  1  0.35842636  0.00038141  0.73778708  1
  O  O277  1  0.37400507  0.51262197  0.25013929  1
  O  O278  1  0.37079587  0.50468747  0.75359145  1
  O  O279  1  0.86971521  0.01334430  0.24237333  1
  O  O280  1  0.86630895  -0.00122954  0.75551989  1
  O  O281  1  0.87811548  0.49582445  0.26664125  1
  O  O282  1  0.87321203  0.50320571  0.76251970  1
  O  O283  1  0.11721963  0.37230044  0.36767401  1
  O  O284  1  0.11281976  0.37948045  0.87208518  1
  O  O285  1  0.12664630  0.86358806  0.36502151  1
  O  O286  1  0.11300696  0.86575614  0.87347957  1
  O  O287  1  0.61570929  0.36374337  0.38179145  1
  O  O288  1  0.62571770  0.36905058  0.86941524  1
  O  O289  1  0.61606956  0.88510667  0.37565248  1
  O  O290  1  0.63803388  0.86782562  0.86683087  1
  O  O291  1  0.38209741  0.13375310  0.13366601  1
  O  O292  1  0.38231652  0.13548951  0.62525823  1
  O  O293  1  0.38254287  0.63146115  0.13382465  1
  O  O294  1  0.37093928  0.62954559  0.63723880  1
  O  O295  1  0.88787078  0.12942179  0.12839786  1
  O  O296  1  0.88323982  0.13594505  0.62045593  1
  O  O297  1  0.89379162  0.61580568  0.12340941  1
  O  O298  1  0.88558138  0.61938280  0.63784583  1
  O  O299  1  0.25746947  0.25225428  0.11621312  1
  O  O300  1  0.25832066  0.25103633  0.61686543  1
  O  O301  1  0.26526618  0.74484134  0.12712933  1
  O  O302  1  0.26798135  0.75048857  0.62666029  1
  O  O303  1  0.75877389  0.25325394  0.11747231  1
  O  O304  1  0.75750720  0.25421865  0.62254778  1
  O  O305  1  0.75651298  0.72161602  0.11242577  1
  O  O306  1  0.74909727  0.75516078  0.63812239  1
  O  O307  1  0.25130977  0.25101969  0.38864087  1
  O  O308  1  0.25012486  0.25189127  0.88787641  1
  O  O309  1  0.23998126  0.73977582  0.37531698  1
  O  O310  1  0.24779974  0.74536501  0.88133835  1
  O  O311  1  0.74393110  0.24367318  0.37750071  1
  O  O312  1  0.74878257  0.24593565  0.87927034  1
  O  O313  1  0.74576400  0.74280896  0.38327683  1
  O  O314  1  0.75125693  0.73579548  0.87733817  1
  O  O315  1  0.00584098  0.11816328  0.00449160  1
  O  O316  1  0.00578781  0.11910304  0.50876167  1
  O  O317  1  0.00677004  0.62007944  0.00365609  1
  O  O318  1  0.00977221  0.62283602  0.50873883  1
  O  O319  1  0.50577289  0.12466768  0.01219856  1
  O  O320  1  0.50685306  0.11417255  0.50461736  1
  O  O321  1  0.50387397  0.61473598  0.00834793  1
  O  O322  1  0.51044065  0.61435115  0.49774686  1
  O  O323  1  0.49265325  0.37961504  0.49630479  1
  O  O324  1  0.50355427  0.38736347  1.00152992  1
  O  O325  1  0.50851689  0.88539848  0.49377277  1
  O  O326  1  0.50185005  0.88856690  1.00050111  1
  O  O327  1  0.99473849  0.37502753  0.49303090  1
  O  O328  1  1.00011012  0.38127414  0.99380643  1
  O  O329  1  0.99653582  0.88952470  0.49967008  1
  O  O330  1  0.99833886  0.88793428  0.99126316  1
  O  O331  1  0.50142238  0.48586514  0.38993326  1
  O  O332  1  0.49262964  0.49807044  0.88615015  1
  O  O333  1  0.49577514  0.99241146  0.38369653  1
  O  O334  1  0.50424561  1.00499174  0.88912065  1
  O  O335  1  0.99261397  0.48764288  0.37850755  1
  O  O336  1  0.99607594  0.49457848  0.87875496  1
  O  O337  1  0.99979958  1.00467998  0.38734180  1
  O  O338  1  0.99438309  0.99633804  0.87785758  1
  O  O339  1  0.00389690  0.00761685  0.11453253  1
  O  O340  1  0.00682699  0.00620991  0.62187110  1
  O  O341  1  0.00624880  0.50454997  0.11548705  1
  O  O342  1  0.01171062  0.50624633  0.62649660  1
  O  O343  1  0.50774318  0.00777549  0.12026426  1
  O  O344  1  0.50582495  0.00112074  0.61935862  1
  O  O345  1  0.49248744  0.50511844  0.11402201  1
  O  O346  1  0.50883756  0.49145159  0.61486056  1
  O  O347  1  0.24111776  0.37655637  0.25209246  1
  O  O348  1  0.25004287  0.38695194  0.74790557  1
  O  O349  1  0.24112983  0.88164558  0.25297845  1
  O  O350  1  0.24605877  0.88997647  0.73549804  1
  O  O351  1  0.75319731  0.37576124  0.23333885  1
  O  O352  1  0.74598832  0.38100415  0.74629904  1
  O  O353  1  0.75281315  0.89140151  0.24806903  1
  O  O354  1  0.75096074  0.88615917  0.73835202  1
  O  O355  1  0.26005316  0.12243828  0.24929911  1
  O  O356  1  0.25066280  0.11212493  0.74788680  1
  O  O357  1  0.25607288  0.62331780  0.25848817  1
  O  O358  1  0.25823391  0.61414821  0.76024115  1
  O  O359  1  0.76007910  0.12411775  0.25368621  1
  O  O360  1  0.74751480  0.11349761  0.75346704  1
  O  O361  1  0.76078451  0.61226938  0.22822629  1
  O  O362  1  0.75698708  0.61733078  0.76144622  1
  O  O363  1  0.38483878  0.11107291  0.36308710  1
  O  O364  1  0.36871004  0.12852354  0.86807108  1
  O  O365  1  0.36529333  0.63239788  0.36636282  1
  O  O366  1  0.36768505  0.61543597  0.86826268  1
  O  O367  1  0.86693766  0.13244725  0.36481541  1
  O  O368  1  0.87087968  0.11259610  0.87832128  1
  O  O369  1  0.88198952  0.60657756  0.37633422  1
  O  O370  1  0.87072688  0.61859445  0.87306598  1
  O  O371  1  0.12488214  0.37594616  0.13945820  1
  O  O372  1  0.12639639  0.38562348  0.62727610  1
  O  O373  1  0.12052896  0.87470035  0.13535767  1
  O  O374  1  0.12069791  0.89000140  0.62314669  1
  O  O375  1  0.64287224  0.36825449  0.12238215  1
  O  O376  1  0.63229507  0.38326288  0.63121868  1
  O  O377  1  0.62177879  0.88761399  0.12460501  1
  O  O378  1  0.63383008  0.88000880  0.63291632  1
  O  O379  1  0.11896493  0.25519261  0.25238649  1
  O  O380  1  0.11309951  0.25101279  0.74057985  1
  O  O381  1  0.11908953  0.75610525  0.25527764  1
  O  O382  1  0.13494904  0.74177326  0.76290637  1
  O  O383  1  0.61750022  0.25303142  0.25717226  1
  O  O384  1  0.61986335  0.25511258  0.75405083  1
  O  O385  1  0.61584275  0.75736311  0.25192262  1
  O  O386  1  0.60596103  0.74470432  0.75123031  1
  O  O387  1  0.37920190  0.24072140  0.24675321  1
  O  O388  1  0.38220200  0.25249543  0.73977287  1
  O  O389  1  0.37753545  0.74182364  0.24353019  1
  O  O390  1  0.38427795  0.74056678  0.74258284  1
  O  O391  1  0.88190229  0.24035318  0.24365401  1
  O  O392  1  0.88480096  0.25571324  0.73778657  1
  O  O393  1  0.88072621  0.75390554  0.25083238  1
  O  O394  1  0.87009739  0.74043648  0.76005982  1
  O  O395  1  0.38252105  0.49099627  0.50887966  1
  O  O396  1  0.38801084  0.50603845  0.99265679  1
  O  O397  1  0.38514123  1.00668056  0.49239335  1
  O  O398  1  0.39032848  1.00425341  1.00482637  1
  O  O399  1  0.87580831  0.49263298  0.49265095  1
  O  O400  1  0.89106698  0.49485476  0.98712783  1
  O  O401  1  0.89232850  1.00641672  0.50422080  1
  O  O402  1  0.88438819  0.99597608  0.99139951  1
  O  O403  1  0.11791554  0.00896407  0.00015899  1
  O  O404  1  0.11483733  0.00553849  0.50638625  1
  O  O405  1  0.11500069  0.51132027  -0.00284441  1
  O  O406  1  0.12348532  0.50832879  0.50843741  1
  O  O407  1  0.61996400  0.00869692  0.00672107  1
  O  O408  1  0.62188140  0.00278260  0.51097034  1
  O  O409  1  0.60737674  0.50804683  -0.00419992  1
  O  O410  1  0.61995117  0.50709749  0.50818322  1
  O  O411  1  0.37547999  0.35929161  0.13281487  1
  O  O412  1  0.37429870  0.36327768  0.61402178  1
  O  O413  1  0.37814613  0.85900559  0.13325622  1
  O  O414  1  0.37671503  0.85842269  0.62381137  1
  O  O415  1  0.86974174  0.37100110  0.11793636  1
  O  O416  1  0.87097445  0.37059811  0.62066361  1
  O  O417  1  0.87959262  0.88082166  0.10855505  1
  O  O418  1  0.85466238  0.87770157  0.61358722  1
  O  O419  1  0.11928819  0.12754919  0.38905892  1
  O  O420  1  0.12447565  0.12480667  0.88499038  1
  O  O421  1  0.12780421  0.63189453  0.38336519  1
  O  O422  1  0.13346800  0.63073697  0.88071107  1
  O  O423  1  0.62847537  0.13331766  0.37923077  1
  O  O424  1  0.63364927  0.13208745  0.87973510  1
  O  O425  1  0.62407665  0.61763530  0.38879049  1
  O  O426  1  0.63331140  0.62814899  0.88350192  1
