# generated using pymatgen
data_V85Zn86O256
_symmetry_space_group_name_H-M   'P 1'
_cell_length_a   16.98925480
_cell_length_b   16.99756079
_cell_length_c   16.97852151
_cell_angle_alpha   89.93803481
_cell_angle_beta   89.98795293
_cell_angle_gamma   89.98766678
_symmetry_Int_Tables_number   1
_chemical_formula_structural   V85Zn86O256
_chemical_formula_sum   'V85 Zn86 O256'
_cell_volume   4902.98459252
_cell_formula_units_Z   1
loop_
 _symmetry_equiv_pos_site_id
 _symmetry_equiv_pos_as_xyz
  1  'x, y, z'
loop_
 _atom_site_type_symbol
 _atom_site_label
 _atom_site_symmetry_multiplicity
 _atom_site_fract_x
 _atom_site_fract_y
 _atom_site_fract_z
 _atom_site_occupancy
  V  V0  1  0.61933792  0.12443097  0.50191425  1
  V  V1  1  -0.00043173  0.62709707  0.12113378  1
  V  V2  1  0.87416443  0.00045839  0.37551685  1
  V  V3  1  0.11702199  0.51626174  0.62127363  1
  V  V4  1  0.50142738  0.25328322  0.25346944  1
  V  V5  1  0.49936303  0.25118586  0.74445014  1
  V  V6  1  0.00112525  0.37327896  0.87590126  1
  V  V7  1  0.37564187  0.37609911  0.49935382  1
  V  V8  1  0.75044495  0.12595080  0.87532279  1
  V  V9  1  0.88151770  0.75189443  0.62563622  1
  V  V10  1  0.50330514  0.49799307  0.00159068  1
  V  V11  1  0.87383248  0.87507305  -0.00214379  1
  V  V12  1  0.37228725  0.00178312  0.37615416  1
  V  V13  1  0.75084730  -0.00524202  0.74956764  1
  V  V14  1  0.24923471  0.38081083  0.62412300  1
  V  V15  1  0.74652866  0.74031290  -0.01521100  1
  V  V16  1  0.12917427  0.12515556  0.00055657  1
  V  V17  1  0.62624842  0.25412212  0.87637889  1
  V  V18  1  0.23880256  0.74672822  0.50235020  1
  V  V19  1  0.00394551  0.50656424  -0.00318618  1
  V  V20  1  0.12500992  0.37773946  0.74925468  1
  V  V21  1  0.75277115  0.51215068  0.74504964  1
  V  V22  1  0.37438281  0.62465410  0.74798224  1
  V  V23  1  0.00180529  0.12403942  0.12478700  1
  V  V24  1  0.49966877  -0.00195031  0.49223561  1
  V  V25  1  0.00064985  0.24911831  0.75208053  1
  V  V26  1  0.87086647  0.87914421  0.50797463  1
  V  V27  1  0.37726456  0.24690003  0.62395467  1
  V  V28  1  0.00100543  0.87604042  0.37465767  1
  V  V29  1  0.63163866  0.62530146  0.50213677  1
  V  V30  1  0.87358411  0.62707088  0.24799305  1
  V  V31  1  0.37711067  0.26761075  0.12432048  1
  V  V32  1  0.61716190  0.12049019  0.00733907  1
  V  V33  1  0.24215504  0.12613932  0.37398770  1
  V  V34  1  0.87535426  0.12457855  0.74991527  1
  V  V35  1  0.50160806  0.74438543  0.77127039  1
  V  V36  1  0.49305911  0.89064572  0.87977745  1
  V  V37  1  0.24805557  0.63082299  0.88397072  1
  V  V38  1  0.24341764  0.25452840  0.49853492  1
  V  V39  1  0.25075947  0.50019142  0.74692721  1
  V  V40  1  0.75245019  0.62631634  0.37484247  1
  V  V41  1  0.47194885  0.09406416  0.65169448  1
  V  V42  1  0.14198154  0.89203013  0.74087991  1
  V  V43  1  0.87573953  0.25099732  0.12482949  1
  V  V44  1  0.75386101  -0.00518758  0.24295690  1
  V  V45  1  0.24755675  0.78425180  0.03298355  1
  V  V46  1  0.12694427  0.50377248  0.12132357  1
  V  V47  1  0.73567090  0.12316634  0.37230436  1
  V  V48  1  0.37112654  0.49776725  0.88075866  1
  V  V49  1  0.01077714  0.75031659  0.74811420  1
  V  V50  1  0.88398608  0.37337122  0.49104684  1
  V  V51  1  0.37105323  0.50718827  0.37735860  1
  V  V52  1  0.75020183  0.75542568  0.50744993  1
  V  V53  1  0.50215038  0.50316636  0.49987484  1
  V  V54  1  0.14240358  0.25066446  0.88221474  1
  V  V55  1  0.87630988  0.50453436  0.87264011  1
  V  V56  1  0.87375540  0.12492821  0.25065869  1
  V  V57  1  0.00042015  0.00792049  0.50600563  1
  V  V58  1  0.74969438  0.25117359  -0.00052872  1
  V  V59  1  0.24018256  0.00382405  0.23663430  1
  V  V60  1  0.18349639  0.06672170  0.55224575  1
  V  V61  1  0.50311251  0.62849202  0.62364584  1
  V  V62  1  0.62704242  0.37044959  0.25793636  1
  V  V63  1  0.87556720  0.24764433  0.62498566  1
  V  V64  1  0.50425579  0.37131459  0.37726919  1
  V  V65  1  0.62850804  0.50126506  0.62402025  1
  V  V66  1  0.00397520  0.87906993  0.87215567  1
  V  V67  1  0.75129439  0.37441694  0.62304056  1
  V  V68  1  0.74885542  0.50114988  0.25059813  1
  V  V69  1  0.62176700  0.74793060  0.36977708  1
  V  V70  1  0.74857542  0.37611811  0.12103391  1
  V  V71  1  0.11895715  0.37645047  0.25493282  1
  V  V72  1  0.24835707  0.37499501  0.11694214  1
  V  V73  1  0.62696872  0.86876585  0.75435879  1
  V  V74  1  0.48501423  0.37097293  0.87521449  1
  V  V75  1  0.74282508  0.24809424  0.49498121  1
  V  V76  1  0.37643254  0.75287157  0.61204921  1
  V  V77  1  0.12514192  0.73624532  0.37460602  1
  V  V78  1  0.24786035  0.50956432  0.25936941  1
  V  V79  1  0.63257685  -0.00406647  0.62371378  1
  V  V80  1  0.62853064  0.37545929  0.75031142  1
  V  V81  1  0.37407063  0.13409714  0.24833469  1
  V  V82  1  0.11489683  0.25365246  0.37773904  1
  V  V83  1  0.88226062  0.62890038  0.74971704  1
  V  V84  1  0.62344261  0.87019225  0.24851991  1
  Zn  Zn85  1  0.87372103  0.37795718  -0.00087457  1
  Zn  Zn86  1  0.49791440  0.87265103  0.37476381  1
  Zn  Zn87  1  0.87816428  0.00276838  0.87523921  1
  Zn  Zn88  1  0.45116027  0.07521296  0.08176106  1
  Zn  Zn89  1  0.61724494  -0.00331589  0.12030491  1
  Zn  Zn90  1  0.74835474  0.87155606  0.11877225  1
  Zn  Zn91  1  0.00966880  0.12216698  0.62609297  1
  Zn  Zn92  1  0.01469147  0.52039855  0.48772222  1
  Zn  Zn93  1  -0.00181973  0.75216814  0.24840114  1
  Zn  Zn94  1  0.00199968  0.00148397  -0.00068934  1
  Zn  Zn95  1  -0.00427548  0.25603146  0.25518109  1
  Zn  Zn96  1  0.88442970  0.49125560  0.37045591  1
  Zn  Zn97  1  0.13092045  0.87225633  0.24050912  1
  Zn  Zn98  1  0.12915654  0.74799255  0.88071958  1
  Zn  Zn99  1  0.62359786  0.62781057  -0.00959565  1
  Zn  Zn100  1  0.43009261  0.75806126  0.19108212  1
  Zn  Zn101  1  0.31088646  0.19427546  -0.03545604  1
  Zn  Zn102  1  0.86999087  0.74890834  0.12044428  1
  Zn  Zn103  1  0.36098863  0.88328912  0.50411118  1
  Zn  Zn104  1  0.62470326  0.50195077  0.12444238  1
  Zn  Zn105  1  0.50473087  0.62970105  0.14159285  1
  Zn  Zn106  1  0.39517031  0.87982851  0.03755189  1
  Zn  Zn107  1  0.18741955  0.19173830  0.18521920  1
  Zn  Zn108  1  0.18707512  0.19794253  0.68918755  1
  Zn  Zn109  1  0.18161318  0.68515511  0.19163266  1
  Zn  Zn110  1  0.19166089  0.69048535  0.68542966  1
  Zn  Zn111  1  0.68685805  0.19053746  0.18871306  1
  Zn  Zn112  1  0.68473410  0.18271699  0.68424787  1
  Zn  Zn113  1  0.68396965  0.68720695  0.17574993  1
  Zn  Zn114  1  0.69013613  0.69220713  0.68884977  1
  Zn  Zn115  1  0.30760382  0.32144827  0.31116878  1
  Zn  Zn116  1  0.32686813  0.18317322  0.80705044  1
  Zn  Zn117  1  0.30408653  0.82224907  0.30690749  1
  Zn  Zn118  1  0.31749103  0.81229625  0.80776279  1
  Zn  Zn119  1  0.80835274  0.30771580  0.31314509  1
  Zn  Zn120  1  0.81346908  0.31638971  0.81229215  1
  Zn  Zn121  1  0.81394841  0.81192429  0.31438766  1
  Zn  Zn122  1  0.81677589  0.81517586  0.81333727  1
  Zn  Zn123  1  0.18298628  0.43924347  0.43759662  1
  Zn  Zn124  1  0.18708863  0.43929319  0.93748793  1
  Zn  Zn125  1  0.18778714  0.92833909  0.43049324  1
  Zn  Zn126  1  0.18759713  0.93593735  0.92337327  1
  Zn  Zn127  1  0.69360385  0.43870571  0.43618155  1
  Zn  Zn128  1  0.67387817  0.47453949  0.91349085  1
  Zn  Zn129  1  0.68879621  0.93604111  0.43471008  1
  Zn  Zn130  1  0.68728717  0.93702422  0.93472639  1
  Zn  Zn131  1  0.27487329  0.01635334  0.02911685  1
  Zn  Zn132  1  0.29439402  0.04158260  0.70079846  1
  Zn  Zn133  1  0.31361317  0.56507709  0.06208814  1
  Zn  Zn134  1  0.31015369  0.57005818  0.55705660  1
  Zn  Zn135  1  0.81371078  0.06070199  0.06100890  1
  Zn  Zn136  1  0.81148635  0.06398178  0.56295682  1
  Zn  Zn137  1  0.81215156  0.56229117  0.06038898  1
  Zn  Zn138  1  0.84611370  0.57687249  0.54824570  1
  Zn  Zn139  1  0.41496164  0.47714452  0.16941205  1
  Zn  Zn140  1  0.43757186  0.43775368  0.68678164  1
  Zn  Zn141  1  0.43928442  0.94378496  0.19468766  1
  Zn  Zn142  1  0.44582572  0.92370234  0.68631056  1
  Zn  Zn143  1  0.93692272  0.43929315  0.18674232  1
  Zn  Zn144  1  0.93893189  0.43651624  0.68342872  1
  Zn  Zn145  1  0.96737832  0.92085555  0.16904446  1
  Zn  Zn146  1  0.94188530  0.93753233  0.68783750  1
  Zn  Zn147  1  0.05953888  0.06744790  0.31477482  1
  Zn  Zn148  1  0.06910273  0.06565243  0.81466122  1
  Zn  Zn149  1  0.05607811  0.55984881  0.30928371  1
  Zn  Zn150  1  0.06537342  0.56657379  0.80965550  1
  Zn  Zn151  1  0.55350997  0.05454842  0.28720358  1
  Zn  Zn152  1  0.56635874  0.06413567  0.81743372  1
  Zn  Zn153  1  0.55721799  0.56605283  0.30959461  1
  Zn  Zn154  1  0.56013680  0.56493279  0.81461885  1
  Zn  Zn155  1  0.43550586  0.18428064  0.43882844  1
  Zn  Zn156  1  0.38112517  0.02869035  0.90578904  1
  Zn  Zn157  1  0.41425371  0.71144173  0.38962220  1
  Zn  Zn158  1  0.43993158  0.70353463  0.98565988  1
  Zn  Zn159  1  0.93253208  0.18540770  0.43816240  1
  Zn  Zn160  1  0.93856472  0.18902792  0.93875315  1
  Zn  Zn161  1  0.94126848  0.68772809  0.43669725  1
  Zn  Zn162  1  0.93673128  0.69117899  0.93296690  1
  Zn  Zn163  1  0.06205932  0.31559036  0.06218014  1
  Zn  Zn164  1  0.06164657  0.31499619  0.56575295  1
  Zn  Zn165  1  0.06795994  0.81331443  0.05848566  1
  Zn  Zn166  1  0.06370006  0.81857514  0.56284491  1
  Zn  Zn167  1  0.56035212  0.31865499  0.06330181  1
  Zn  Zn168  1  0.56422719  0.31251402  0.56193767  1
  Zn  Zn169  1  0.57036172  0.80777951  0.06028704  1
  Zn  Zn170  1  0.56281171  0.81450433  0.56307028  1
  O  O171  1  0.11074621  0.14222904  0.11500295  1
  O  O172  1  0.12897301  0.12660984  0.61587247  1
  O  O173  1  0.11498656  0.61125954  0.13009930  1
  O  O174  1  0.12506442  0.61428898  0.62791647  1
  O  O175  1  0.63723657  0.12655167  0.10921206  1
  O  O176  1  0.61731411  0.11149771  0.61987510  1
  O  O177  1  0.61940884  0.61777749  0.11211194  1
  O  O178  1  0.62429211  0.62035117  0.62203712  1
  O  O179  1  0.38069147  0.38143292  0.38693846  1
  O  O180  1  0.38637872  0.37826603  0.86377166  1
  O  O181  1  0.37531270  0.89430014  0.37489396  1
  O  O182  1  0.39299268  0.87806502  0.86426843  1
  O  O183  1  0.87202718  0.36718291  0.38773552  1
  O  O184  1  0.88977456  0.38165533  0.87250416  1
  O  O185  1  0.87592344  0.88136060  0.39107046  1
  O  O186  1  0.88566312  0.87842975  0.88130328  1
  O  O187  1  0.25505657  0.01219383  0.37607599  1
  O  O188  1  0.26957923  0.00601676  0.91251074  1
  O  O189  1  0.25392847  0.49669127  0.36741697  1
  O  O190  1  0.25425363  0.50351163  0.86640703  1
  O  O191  1  0.75714911  0.00710865  0.37048273  1
  O  O192  1  0.75120378  0.00881413  0.86502275  1
  O  O193  1  0.75574040  0.50763787  0.36586075  1
  O  O194  1  0.77245016  0.48319478  0.85670086  1
  O  O195  1  0.24155485  0.49556627  0.13368841  1
  O  O196  1  0.24372964  0.49932985  0.62845236  1
  O  O197  1  0.24647117  1.01476788  0.13972028  1
  O  O198  1  0.24506268  1.00833175  0.60351232  1
  O  O199  1  0.75000818  0.49105146  0.13179625  1
  O  O200  1  0.74889976  0.49285631  0.63262955  1
  O  O201  1  0.74924420  0.99561487  0.13315819  1
  O  O202  1  0.74016563  1.00418107  0.63235852  1
  O  O203  1  0.01334870  0.37457558  0.24283256  1
  O  O204  1  0.00508253  0.37086223  0.75650096  1
  O  O205  1  -0.02441617  0.87039686  0.27283409  1
  O  O206  1  0.00323083  0.86898666  0.75920605  1
  O  O207  1  0.51046422  0.36892733  0.26272135  1
  O  O208  1  0.50896962  0.37053253  0.75197864  1
  O  O209  1  0.52004950  0.87548904  0.25883678  1
  O  O210  1  0.50792478  0.86236577  0.76178514  1
  O  O211  1  0.48817916  0.14781322  0.27040162  1
  O  O212  1  0.51266946  0.13792748  0.74331459  1
  O  O213  1  0.50998318  0.64673596  0.25354046  1
  O  O214  1  0.49636573  0.62880114  0.74463124  1
  O  O215  1  0.99177916  0.13166908  0.24338376  1
  O  O216  1  0.99516815  0.13171310  0.74787944  1
  O  O217  1  0.98951174  0.62577809  0.23910255  1
  O  O218  1  0.99430836  0.63697033  0.75228287  1
  O  O219  1  0.38079909  0.26127096  0.02613428  1
  O  O220  1  0.36561942  0.25817746  0.50274828  1
  O  O221  1  0.34649758  0.77091054  -0.00409413  1
  O  O222  1  0.36786293  0.75468307  0.49904192  1
  O  O223  1  0.86795481  0.25436110  0.00732355  1
  O  O224  1  0.86644869  0.25619460  0.50618417  1
  O  O225  1  0.86861966  0.75824140  -0.00287901  1
  O  O226  1  0.87051158  0.76046931  0.50878523  1
  O  O227  1  0.13600688  0.26133640  0.49439929  1
  O  O228  1  0.11783583  0.24690896  0.98958029  1
  O  O229  1  0.12970843  0.75296210  0.49311374  1
  O  O230  1  0.14895996  0.75778075  0.99784576  1
  O  O231  1  0.63338386  0.23925930  0.50710625  1
  O  O232  1  0.63156091  0.24684242  0.99505302  1
  O  O233  1  0.63618603  0.74626703  0.49911823  1
  O  O234  1  0.64166509  0.74747426  0.99214385  1
  O  O235  1  0.48829762  0.26682018  0.14110214  1
  O  O236  1  0.49302329  0.25313433  0.63097928  1
  O  O237  1  0.48712373  0.73663665  0.09309174  1
  O  O238  1  0.49640737  0.74081728  0.62627217  1
  O  O239  1  0.98543508  0.24888173  0.12456783  1
  O  O240  1  0.99233625  0.24652501  0.63120803  1
  O  O241  1  0.99745457  0.73217838  0.11793339  1
  O  O242  1  0.98879940  0.75755009  0.63161034  1
  O  O243  1  0.01177179  0.24444946  0.37845493  1
  O  O244  1  0.00198648  0.26058569  0.86982882  1
  O  O245  1  0.00868893  0.75860919  0.37996407  1
  O  O246  1  0.00698815  0.75705144  0.86591117  1
  O  O247  1  0.49453276  0.26619487  0.37753729  1
  O  O248  1  0.51054327  0.26429120  0.85949273  1
  O  O249  1  0.52165273  0.75381638  0.39068629  1
  O  O250  1  0.49126300  0.74366488  0.87115415  1
  O  O251  1  0.24175316  0.13409982  0.49407277  1
  O  O252  1  0.23066939  0.13402273  1.02014740  1
  O  O253  1  0.25277385  0.64610204  0.49495360  1
  O  O254  1  0.25582498  0.62351520  0.98435050  1
  O  O255  1  0.74221955  0.12982063  0.49358026  1
  O  O256  1  0.74969062  0.13317009  0.99031194  1
  O  O257  1  0.75150398  0.63322000  0.49564291  1
  O  O258  1  0.75534857  0.63748538  0.99758078  1
  O  O259  1  0.24350765  0.37948025  0.01695581  1
  O  O260  1  0.25811233  0.37098352  0.50240237  1
  O  O261  1  0.23865330  0.88549763  0.02624086  1
  O  O262  1  0.24954639  0.85788986  0.49416816  1
  O  O263  1  0.75208144  0.36819641  0.01093081  1
  O  O264  1  0.75036403  0.36176263  0.50461558  1
  O  O265  1  0.75913281  0.86957332  -0.00452861  1
  O  O266  1  0.75853170  0.86779386  0.49906350  1
  O  O267  1  0.13125044  0.49486418  0.24497413  1
  O  O268  1  0.13098314  0.49781050  0.73964892  1
  O  O269  1  0.13898817  1.01056601  0.25565018  1
  O  O270  1  0.12957635  0.99186047  0.75223650  1
  O  O271  1  0.63623120  0.49189705  0.25008314  1
  O  O272  1  0.63503546  0.49334910  0.74218075  1
  O  O273  1  0.64270525  0.98794031  0.25531074  1
  O  O274  1  0.63227759  0.99567684  0.74285399  1
  O  O275  1  0.36305314  0.01756187  0.25913709  1
  O  O276  1  0.40553534  0.02578890  0.71260181  1
  O  O277  1  0.35552111  0.48934390  0.26542252  1
  O  O278  1  0.36756723  0.50307114  0.75321883  1
  O  O279  1  0.86476794  0.00667726  0.25594472  1
  O  O280  1  0.86617022  0.00561050  0.74841743  1
  O  O281  1  0.86331658  0.50435105  0.24997416  1
  O  O282  1  0.87393047  0.50925413  0.74947588  1
  O  O283  1  0.12903748  0.36588929  0.36725090  1
  O  O284  1  0.11724434  0.37088402  0.87087467  1
  O  O285  1  0.11174718  0.87111416  0.36572097  1
  O  O286  1  0.12018310  0.87038892  0.86163075  1
  O  O287  1  0.62038978  0.37902727  0.36651210  1
  O  O288  1  0.62248794  0.37617857  0.85934377  1
  O  O289  1  0.63120784  0.86410958  0.36708358  1
  O  O290  1  0.61167294  0.88513206  0.86111989  1
  O  O291  1  0.37868686  0.14726527  0.14366051  1
  O  O292  1  0.37994338  0.14273405  0.61398802  1
  O  O293  1  0.39801892  0.58450750  0.12807055  1
  O  O294  1  0.38331697  0.63255108  0.62755358  1
  O  O295  1  0.87609798  0.13541253  0.13036608  1
  O  O296  1  0.87303198  0.13736253  0.62980445  1
  O  O297  1  0.88126262  0.62114644  0.13350771  1
  O  O298  1  0.86779049  0.63931492  0.64308329  1
  O  O299  1  0.26467004  0.26362245  0.13783973  1
  O  O300  1  0.25749699  0.26066873  0.61682151  1
  O  O301  1  0.24563973  0.75468104  0.12854460  1
  O  O302  1  0.25981088  0.74646598  0.61186558  1
  O  O303  1  0.75997564  0.25615218  0.12231394  1
  O  O304  1  0.75627865  0.25185531  0.61687446  1
  O  O305  1  0.75315004  0.75378802  0.10894695  1
  O  O306  1  0.76099614  0.74946153  0.61474071  1
  O  O307  1  0.24439489  0.24612430  0.38338570  1
  O  O308  1  0.24340828  0.25311628  0.87990152  1
  O  O309  1  0.22886639  0.75426734  0.38111709  1
  O  O310  1  0.25179804  0.73310066  0.86252184  1
  O  O311  1  0.75063040  0.23802744  0.38642520  1
  O  O312  1  0.74485822  0.24775494  0.87795054  1
  O  O313  1  0.74609973  0.74434653  0.38729976  1
  O  O314  1  0.75709216  0.75128677  0.88553259  1
  O  O315  1  0.00636433  0.12867251  0.00842501  1
  O  O316  1  -0.00526109  0.11258562  0.50169939  1
  O  O317  1  -0.00671858  0.61320805  0.00292810  1
  O  O318  1  -0.04842139  0.60980347  0.51265908  1
  O  O319  1  0.51929923  0.13201755  0.00596195  1
  O  O320  1  0.50410069  0.11363605  0.50480328  1
  O  O321  1  0.49914648  0.60372933  -0.01128130  1
  O  O322  1  0.51553176  0.61586978  0.50898269  1
  O  O323  1  0.49551291  0.38154195  0.49734631  1
  O  O324  1  0.50233786  0.37554348  0.97811726  1
  O  O325  1  0.50480597  0.88933991  0.49442130  1
  O  O326  1  0.50285416  0.86904538  0.98086920  1
  O  O327  1  0.98376157  0.37457297  0.50507249  1
  O  O328  1  0.99733701  0.38720187  0.99184916  1
  O  O329  1  0.99343400  0.88621576  0.49286801  1
  O  O330  1  0.99625485  0.87447457  0.98431866  1
  O  O331  1  0.49530462  0.48913234  0.38088642  1
  O  O332  1  0.48983704  0.48597863  0.87277765  1
  O  O333  1  0.49180312  1.00359128  0.37674717  1
  O  O334  1  0.49318144  0.99421588  0.87202563  1
  O  O335  1  0.99678871  0.49754376  0.37875137  1
  O  O336  1  0.99624125  0.49554473  0.87768799  1
  O  O337  1  0.99309482  0.99650236  0.38247625  1
  O  O338  1  0.99956222  0.99223056  0.87421717  1
  O  O339  1  -0.01109704  0.02273217  0.12054707  1
  O  O340  1  -0.00240562  0.00391794  0.61355012  1
  O  O341  1  0.00430692  0.50646263  0.11542057  1
  O  O342  1  0.01619651  0.49646826  0.62460446  1
  O  O343  1  0.51264254  0.02434265  0.16628238  1
  O  O344  1  0.51265603  -0.00334297  0.61296331  1
  O  O345  1  0.50857300  0.46969867  0.10665485  1
  O  O346  1  0.50753263  0.50664072  0.62096226  1
  O  O347  1  0.23480576  0.38452232  0.24446481  1
  O  O348  1  0.24374632  0.39176779  0.74328790  1
  O  O349  1  0.24372139  0.89888444  0.25280366  1
  O  O350  1  0.24222541  0.87796893  0.75091631  1
  O  O351  1  0.74496747  0.38075912  0.24791824  1
  O  O352  1  0.74472526  0.37947199  0.74107564  1
  O  O353  1  0.74942540  0.88231294  0.24720030  1
  O  O354  1  0.74358766  0.88672697  0.75631405  1
  O  O355  1  0.25525514  0.12577275  0.25793958  1
  O  O356  1  0.24997815  0.12912705  0.74879312  1
  O  O357  1  0.24374957  0.60761910  0.24976160  1
  O  O358  1  0.25507608  0.61409609  0.75012618  1
  O  O359  1  0.75225220  0.11919528  0.25680882  1
  O  O360  1  0.75301257  0.11679271  0.75538627  1
  O  O361  1  0.75409447  0.61702745  0.25027023  1
  O  O362  1  0.75632775  0.61516025  0.74853259  1
  O  O363  1  0.36177889  0.12343044  0.37085475  1
  O  O364  1  0.38082196  0.14204254  0.89342197  1
  O  O365  1  0.38211750  0.60372302  0.39252754  1
  O  O366  1  0.36226610  0.61147624  0.86370391  1
  O  O367  1  0.86508508  0.11953895  0.36951462  1
  O  O368  1  0.86848539  0.12699388  0.86654878  1
  O  O369  1  0.86855210  0.62732353  0.35865241  1
  O  O370  1  0.88014438  0.61603214  0.86182951  1
  O  O371  1  0.12866576  0.38472872  0.13133615  1
  O  O372  1  0.13302288  0.37794938  0.63274263  1
  O  O373  1  0.07357747  0.88088665  0.14559566  1
  O  O374  1  0.12090789  0.87505929  0.64376578  1
  O  O375  1  0.63925835  0.36977108  0.13819494  1
  O  O376  1  0.62993514  0.37963974  0.63340161  1
  O  O377  1  0.62644263  0.87740452  0.13276159  1
  O  O378  1  0.61988215  0.88393533  0.64083427  1
  O  O379  1  0.12254066  0.25909611  0.26029669  1
  O  O380  1  0.11943920  0.25914562  0.76112550  1
  O  O381  1  0.11765019  0.75120213  0.26244551  1
  O  O382  1  0.11656411  0.75272383  0.74790786  1
  O  O383  1  0.61689316  0.25846011  0.25038209  1
  O  O384  1  0.62191953  0.25881105  0.75079785  1
  O  O385  1  0.64274492  0.75930469  0.25980773  1
  O  O386  1  0.61612308  0.75722432  0.74845089  1
  O  O387  1  0.38130083  0.25213507  0.25321963  1
  O  O388  1  0.38960210  0.25399205  0.73734293  1
  O  O389  1  0.37813953  0.74505784  0.28772827  1
  O  O390  1  0.38607302  0.74248109  0.73992241  1
  O  O391  1  0.87464045  0.24419391  0.24304859  1
  O  O392  1  0.87882523  0.24681642  0.74184601  1
  O  O393  1  0.87522564  0.74039314  0.24363675  1
  O  O394  1  0.88469827  0.74803575  0.74493523  1
  O  O395  1  0.37926946  0.49069647  0.50009851  1
  O  O396  1  0.37869106  0.49278125  0.98298213  1
  O  O397  1  0.38811321  0.99983782  0.48987398  1
  O  O398  1  0.39043647  0.99751370  1.02421783  1
  O  O399  1  0.85764113  0.47375152  0.49656443  1
  O  O400  1  0.88061763  0.49849442  0.98755799  1
  O  O401  1  0.87991547  0.99585603  0.49762408  1
  O  O402  1  0.87807208  0.99146081  0.99461862  1
  O  O403  1  0.12020146  0.02183657  -0.00412198  1
  O  O404  1  0.12100817  0.00462506  0.49622189  1
  O  O405  1  0.11564452  0.49770390  0.00855926  1
  O  O406  1  0.12618102  0.49864542  0.51575753  1
  O  O407  1  0.62930973  0.01512168  0.00091980  1
  O  O408  1  0.62409736  0.00460100  0.50598181  1
  O  O409  1  0.61302267  0.48356819  0.00708686  1
  O  O410  1  0.62529142  0.50348621  0.50640227  1
  O  O411  1  0.36242792  0.37333638  0.13795135  1
  O  O412  1  0.37156224  0.36941247  0.61495398  1
  O  O413  1  0.38760051  0.86027246  0.14867089  1
  O  O414  1  0.38357606  0.85698100  0.62038183  1
  O  O415  1  0.86488346  0.36920682  0.12625709  1
  O  O416  1  0.87049009  0.36299818  0.61866440  1
  O  O417  1  0.88004530  0.87253193  0.10699722  1
  O  O418  1  0.87791492  0.87064583  0.61517149  1
  O  O419  1  0.13568759  0.13692648  0.37169294  1
  O  O420  1  0.11970691  0.13924293  0.89009037  1
  O  O421  1  0.11462466  0.63816785  0.37505490  1
  O  O422  1  0.14342466  0.62450638  0.87042286  1
  O  O423  1  0.63377472  0.11549079  0.37908151  1
  O  O424  1  0.63172998  0.13367355  0.88450691  1
  O  O425  1  0.63557910  0.62991485  0.38314884  1
  O  O426  1  0.64055759  0.58327943  0.88553573  1
