# generated using pymatgen
data_V85Zn86O256
_symmetry_space_group_name_H-M   'P 1'
_cell_length_a   16.97192402
_cell_length_b   16.95218565
_cell_length_c   16.94772592
_cell_angle_alpha   90.01534920
_cell_angle_beta   89.96155662
_cell_angle_gamma   90.01290855
_symmetry_Int_Tables_number   1
_chemical_formula_structural   V85Zn86O256
_chemical_formula_sum   'V85 Zn86 O256'
_cell_volume   4876.04928047
_cell_formula_units_Z   1
loop_
 _symmetry_equiv_pos_site_id
 _symmetry_equiv_pos_as_xyz
  1  'x, y, z'
loop_
 _atom_site_type_symbol
 _atom_site_label
 _atom_site_symmetry_multiplicity
 _atom_site_fract_x
 _atom_site_fract_y
 _atom_site_fract_z
 _atom_site_occupancy
  V  V0  1  0.65409801  0.02929593  0.64195948  1
  V  V1  1  0.24607673  0.75288399  0.49258938  1
  V  V2  1  0.49760055  0.74993287  0.74729503  1
  V  V3  1  -0.00056842  0.49942727  0.49981086  1
  V  V4  1  0.74889258  0.62662181  0.87630906  1
  V  V5  1  0.51457619  0.24949936  0.25598151  1
  V  V6  1  0.74791481  0.49396193  0.24960200  1
  V  V7  1  0.87640490  0.87827505  0.49662089  1
  V  V8  1  0.87175946  0.74786153  0.11905231  1
  V  V9  1  0.75076192  0.74697599  0.49721233  1
  V  V10  1  0.12319219  0.49781587  0.62524208  1
  V  V11  1  0.24943079  0.87248946  0.62748193  1
  V  V12  1  0.49904655  0.87932272  0.87443081  1
  V  V13  1  0.25477931  0.87351981  0.13545984  1
  V  V14  1  0.49864968  0.75092959  0.25061438  1
  V  V15  1  0.01678371  0.51241110  0.00838881  1
  V  V16  1  -0.00028594  0.12839652  0.64183228  1
  V  V17  1  0.50267112  0.87972085  0.37530734  1
  V  V18  1  0.37860795  0.38713294  0.48983064  1
  V  V19  1  0.74324401  0.49701207  0.75318117  1
  V  V20  1  0.12556392  0.87403607  0.26380109  1
  V  V21  1  0.85989547  0.89409475  0.00585304  1
  V  V22  1  0.37228602  0.13006275  0.26133334  1
  V  V23  1  0.62590250  0.75208532  0.87466900  1
  V  V24  1  0.24172728  0.49949638  0.24544878  1
  V  V25  1  0.37462986  0.25040717  0.62771895  1
  V  V26  1  0.13308001  0.23976341  0.37090141  1
  V  V27  1  0.87580278  0.37288711  0.50100732  1
  V  V28  1  0.87921232  0.24604384  0.13210465  1
  V  V29  1  0.38123822  0.24260951  0.12539145  1
  V  V30  1  0.12547280  -0.00272801  0.12103849  1
  V  V31  1  0.49827570  0.49652340  0.00082774  1
  V  V32  1  -0.00158021  0.00615444  0.49562850  1
  V  V33  1  0.87744967  0.50037493  0.87930998  1
  V  V34  1  0.50737672  0.00335327  0.50510140  1
  V  V35  1  0.00093717  0.37246569  0.87339134  1
  V  V36  1  0.74692550  0.37166868  0.12527454  1
  V  V37  1  0.24113972  0.64145133  0.89245514  1
  V  V38  1  0.36966523  0.49851932  0.87747014  1
  V  V39  1  0.62389455  0.49652804  0.12935047  1
  V  V40  1  0.61499394  0.62289190  0.50076961  1
  V  V41  1  0.25143160  0.37519128  0.62231256  1
  V  V42  1  0.87504264  0.49861864  0.37366483  1
  V  V43  1  0.25397624  0.00972190  0.74948346  1
  V  V44  1  0.12249252  0.62927605  0.49389382  1
  V  V45  1  0.86917935  0.00862149  0.85596305  1
  V  V46  1  0.12464957  0.00084210  0.62468259  1
  V  V47  1  0.37815779  0.61477639  0.25534183  1
  V  V48  1  0.00149272  0.86942003  0.90598537  1
  V  V49  1  0.62428639  0.12801920  -0.00367074  1
  V  V50  1  0.12412717  0.87479816  0.76053953  1
  V  V51  1  0.37259721  0.00855606  0.87173654  1
  V  V52  1  0.37197333  0.87167926  0.00212457  1
  V  V53  1  0.87561600  0.62627754  0.75118314  1
  V  V54  1  0.62674876  0.87941786  0.74710360  1
  V  V55  1  0.50131028  0.25612941  0.74957357  1
  V  V56  1  0.74883856  0.62248853  0.37449095  1
  V  V57  1  0.62431725  0.62626921  0.00028348  1
  V  V58  1  0.74602207  0.37545163  0.62759354  1
  V  V59  1  0.49885763  0.00661881  0.00369530  1
  V  V60  1  0.00114385  0.62480529  0.62547284  1
  V  V61  1  0.49994817  0.62398504  0.12689429  1
  V  V62  1  0.61804588  0.49917980  0.62596999  1
  V  V63  1  0.62549933  0.00504737  0.12578589  1
  V  V64  1  0.24940475  0.24414581  0.00029955  1
  V  V65  1  0.36959194  0.62576449  0.75178003  1
  V  V66  1  0.75109820  0.12789842  0.36677219  1
  V  V67  1  0.37741389  0.87492450  0.50104003  1
  V  V68  1  0.00401170  0.75348819  0.75440125  1
  V  V69  1  0.12345611  0.36807725  0.74871484  1
  V  V70  1  0.00218278  0.37065694  0.36983325  1
  V  V71  1  0.87966239  0.24858140  0.63657833  1
  V  V72  1  0.74522210  0.24817788  0.49667755  1
  V  V73  1  0.24453655  0.37591443  0.12253267  1
  V  V74  1  0.62934904  0.87574054  0.24258184  1
  V  V75  1  0.87861272  0.62786617  0.24535432  1
  V  V76  1  0.76068536  -0.00262977  0.24738768  1
  V  V77  1  0.51259859  0.38563835  0.37152423  1
  V  V78  1  0.11935771  0.24344984  0.87461674  1
  V  V79  1  0.75446856  0.24714116  -0.00563933  1
  V  V80  1  0.25403672  0.61699803  0.37773713  1
  V  V81  1  0.74893796  0.87090800  0.62817684  1
  V  V82  1  0.49223352  0.12446183  0.63020502  1
  V  V83  1  0.62795600  0.25545794  0.87071608  1
  V  V84  1  0.87627093  0.74801654  0.62383944  1
  Zn  Zn85  1  0.24563103  0.50242690  0.75502800  1
  Zn  Zn86  1  0.88065030  0.00454652  0.36623900  1
  Zn  Zn87  1  0.37627199  0.01092053  0.38168207  1
  Zn  Zn88  1  0.13132970  0.12268681  0.49496546  1
  Zn  Zn89  1  0.87949435  0.37489200  0.00118352  1
  Zn  Zn90  1  0.49357143  0.61918811  0.62169417  1
  Zn  Zn91  1  0.62668084  0.75103766  0.37376426  1
  Zn  Zn92  1  0.61997642  0.13448095  0.49254284  1
  Zn  Zn93  1  0.74418914  0.75683846  0.00608021  1
  Zn  Zn94  1  0.37563281  0.37084619  -0.00038237  1
  Zn  Zn95  1  0.37611907  0.74711637  0.12145724  1
  Zn  Zn96  1  0.25004859  0.12603361  0.87098399  1
  Zn  Zn97  1  0.12014971  0.37446159  0.24411431  1
  Zn  Zn98  1  0.37411540  0.74685525  0.62366900  1
  Zn  Zn99  1  0.12078960  0.11022144  -0.00334339  1
  Zn  Zn100  1  0.03043710  0.72513754  0.23846461  1
  Zn  Zn101  1  -0.00338219  0.23347208  0.25387272  1
  Zn  Zn102  1  0.00402652  0.86153079  0.37579338  1
  Zn  Zn103  1  0.25098199  0.00757420  0.26086699  1
  Zn  Zn104  1  0.25735767  0.24333928  0.49203642  1
  Zn  Zn105  1  0.50161389  0.37769172  0.86977355  1
  Zn  Zn106  1  -0.00875311  0.10910989  0.12508200  1
  Zn  Zn107  1  0.18691832  0.18704957  0.18804704  1
  Zn  Zn108  1  0.18529153  0.18896417  0.68152359  1
  Zn  Zn109  1  0.19661254  0.69096737  0.18762562  1
  Zn  Zn110  1  0.18642532  0.68880057  0.68822333  1
  Zn  Zn111  1  0.68849771  0.18308856  0.18382136  1
  Zn  Zn112  1  0.68451240  0.19531854  0.68406526  1
  Zn  Zn113  1  0.69143188  0.68827444  0.18666641  1
  Zn  Zn114  1  0.68554176  0.68583599  0.68820724  1
  Zn  Zn115  1  0.31429393  0.31484013  0.30870810  1
  Zn  Zn116  1  0.31086104  0.31287628  0.81143637  1
  Zn  Zn117  1  0.31598577  0.81108580  0.31495929  1
  Zn  Zn118  1  0.31208224  0.81645247  0.81590393  1
  Zn  Zn119  1  0.80909740  0.31268625  0.31277272  1
  Zn  Zn120  1  0.81200401  0.31382339  0.81367989  1
  Zn  Zn121  1  0.81443647  0.81224552  0.31200894  1
  Zn  Zn122  1  0.81505184  0.81677477  0.81705732  1
  Zn  Zn123  1  0.18729442  0.43454064  0.43598341  1
  Zn  Zn124  1  0.18863872  0.43482548  0.93869927  1
  Zn  Zn125  1  0.19229399  0.94676827  0.43762967  1
  Zn  Zn126  1  0.15692606  0.87226567  0.97921915  1
  Zn  Zn127  1  0.68676943  0.43832416  0.44213993  1
  Zn  Zn128  1  0.68640158  0.43391483  0.94048851  1
  Zn  Zn129  1  0.68730195  0.94291251  0.43756494  1
  Zn  Zn130  1  0.69022083  0.94564746  0.93055768  1
  Zn  Zn131  1  0.31037218  0.06191558  0.06639361  1
  Zn  Zn132  1  0.31388361  0.06261590  0.55795566  1
  Zn  Zn133  1  0.31079768  0.56319846  0.06434065  1
  Zn  Zn134  1  0.31071830  0.56118018  0.56460114  1
  Zn  Zn135  1  0.80391213  0.06837617  0.06517241  1
  Zn  Zn136  1  0.81120371  0.06894219  0.57233713  1
  Zn  Zn137  1  0.81283271  0.56485468  0.06197598  1
  Zn  Zn138  1  0.81064944  0.56132598  0.56318204  1
  Zn  Zn139  1  0.43281377  0.43025485  0.19001281  1
  Zn  Zn140  1  0.43411926  0.43642275  0.68992272  1
  Zn  Zn141  1  0.43985891  0.94413492  0.18773080  1
  Zn  Zn142  1  0.43702747  0.93889372  0.68608270  1
  Zn  Zn143  1  0.93467559  0.43617911  0.18430540  1
  Zn  Zn144  1  0.93546032  0.43606555  0.69164120  1
  Zn  Zn145  1  0.94446593  0.92187314  0.17798138  1
  Zn  Zn146  1  0.93880904  0.93815880  0.68553843  1
  Zn  Zn147  1  0.05869397  0.05739619  0.30387480  1
  Zn  Zn148  1  0.05943020  0.05092569  0.82108141  1
  Zn  Zn149  1  0.06436942  0.56054271  0.31335874  1
  Zn  Zn150  1  0.06498049  0.56167489  0.81588484  1
  Zn  Zn151  1  0.56419892  0.06787978  0.31158815  1
  Zn  Zn152  1  0.56043421  0.06967197  0.81325763  1
  Zn  Zn153  1  0.56365961  0.55993947  0.31436114  1
  Zn  Zn154  1  0.55933761  0.56338382  0.81271421  1
  Zn  Zn155  1  0.44175620  0.19809090  0.43896380  1
  Zn  Zn156  1  0.43918315  0.18782292  0.93602912  1
  Zn  Zn157  1  0.43531683  0.69033654  0.43443434  1
  Zn  Zn158  1  0.43643992  0.68655914  0.93474194  1
  Zn  Zn159  1  0.93344128  0.18649239  0.43781004  1
  Zn  Zn160  1  0.94079362  0.17730410  0.94428336  1
  Zn  Zn161  1  0.94149814  0.69033723  0.42697547  1
  Zn  Zn162  1  0.93891161  0.68939797  0.93938654  1
  Zn  Zn163  1  0.06181860  0.31200170  0.05640544  1
  Zn  Zn164  1  0.06284617  0.30702812  0.55717934  1
  Zn  Zn165  1  0.06864670  0.71744564  0.05740938  1
  Zn  Zn166  1  0.06313036  0.81416140  0.56460592  1
  Zn  Zn167  1  0.56235662  0.31145303  0.06537040  1
  Zn  Zn168  1  0.55975937  0.31745281  0.55905268  1
  Zn  Zn169  1  0.56012443  0.81639298  0.06328262  1
  Zn  Zn170  1  0.56411067  0.81038292  0.56356987  1
  O  O171  1  0.13738303  0.10351484  0.12557204  1
  O  O172  1  0.11182434  0.12123846  0.62233744  1
  O  O173  1  0.09736518  0.66449802  0.14996018  1
  O  O174  1  0.12030722  0.61903179  0.61644486  1
  O  O175  1  0.62573574  0.11840338  0.11020205  1
  O  O176  1  0.60578229  0.12959761  0.61603318  1
  O  O177  1  0.61910642  0.61824210  0.11984912  1
  O  O178  1  0.62251416  0.61763772  0.61874259  1
  O  O179  1  0.37710812  0.37242251  0.38725102  1
  O  O180  1  0.37755359  0.38486929  0.87689598  1
  O  O181  1  0.39137902  0.87321377  0.38200050  1
  O  O182  1  0.37967136  0.88501630  0.88384186  1
  O  O183  1  0.88031245  0.37971065  0.38060741  1
  O  O184  1  0.88393841  0.38292196  0.87482403  1
  O  O185  1  0.87371948  0.87681404  0.38876781  1
  O  O186  1  0.87943961  0.87975031  0.88971890  1
  O  O187  1  0.26503285  -0.00084281  0.37414729  1
  O  O188  1  0.25969705  0.00245673  0.86205200  1
  O  O189  1  0.24704659  0.51106158  0.36935486  1
  O  O190  1  0.26068224  0.50487498  0.87718355  1
  O  O191  1  0.75408376  0.00782242  0.36634783  1
  O  O192  1  0.76807763  -0.00099083  0.86954938  1
  O  O193  1  0.75378994  0.50128761  0.36734100  1
  O  O194  1  0.75419344  0.50264557  0.86944470  1
  O  O195  1  0.25453820  0.49026522  0.13296292  1
  O  O196  1  0.24215193  0.48885304  0.62635623  1
  O  O197  1  0.25220858  0.98934748  0.13522995  1
  O  O198  1  0.24756727  0.98827806  0.62961579  1
  O  O199  1  0.74386728  0.49357709  0.12933209  1
  O  O200  1  0.74426309  0.49491864  0.63419306  1
  O  O201  1  0.73614407  1.00445125  0.13414905  1
  O  O202  1  0.74489628  0.97314760  0.60030242  1
  O  O203  1  -0.00157450  0.37817007  0.26220317  1
  O  O204  1  0.00824059  0.38056754  0.76296545  1
  O  O205  1  0.02079599  0.87671474  0.25188600  1
  O  O206  1  0.01054308  0.86615905  0.74098552  1
  O  O207  1  0.49430853  0.36546450  0.26324223  1
  O  O208  1  0.49901368  0.36196374  0.74913180  1
  O  O209  1  0.50540955  0.86996724  0.25677981  1
  O  O210  1  0.50605139  0.86865057  0.75297046  1
  O  O211  1  0.49422956  0.14263975  0.25468645  1
  O  O212  1  0.50139928  0.13879353  0.74036619  1
  O  O213  1  0.49602485  0.63112781  0.24841033  1
  O  O214  1  0.48699875  0.63316915  0.75197548  1
  O  O215  1  0.99701640  0.12176736  0.23724022  1
  O  O216  1  1.00583996  0.12078015  0.73935374  1
  O  O217  1  0.98015362  0.61360216  0.25680787  1
  O  O218  1  0.99602254  0.63184377  0.74736399  1
  O  O219  1  0.37091250  0.24925211  0.00686957  1
  O  O220  1  0.37594456  0.26193958  0.51240994  1
  O  O221  1  0.39095151  0.76790441  0.00202630  1
  O  O222  1  0.36699528  0.75636139  0.50333313  1
  O  O223  1  0.86741310  0.25309977  0.00588721  1
  O  O224  1  0.86601012  0.25667787  0.50793826  1
  O  O225  1  0.87018688  0.75313035  0.00912832  1
  O  O226  1  0.86928124  0.75297471  0.50459967  1
  O  O227  1  0.12624770  0.24903163  0.48210039  1
  O  O228  1  0.13463465  0.25018142  0.98951441  1
  O  O229  1  0.13334919  0.74084876  0.50635821  1
  O  O230  1  0.08080007  0.79045487  0.97394948  1
  O  O231  1  0.64121608  0.25499927  0.50499770  1
  O  O232  1  0.62900233  0.24465671  0.99548352  1
  O  O233  1  0.63423591  0.74165894  0.49946144  1
  O  O234  1  0.62162267  0.74649619  0.99279580  1
  O  O235  1  0.49082749  0.26192354  0.14009733  1
  O  O236  1  0.49387712  0.24759242  0.62921120  1
  O  O237  1  0.50071350  0.74518129  0.13737203  1
  O  O238  1  0.49906226  0.74744011  0.63788225  1
  O  O239  1  0.98251967  0.26397780  0.12650312  1
  O  O240  1  0.99489706  0.23815488  0.62216316  1
  O  O241  1  0.97324454  0.76257980  0.13591044  1
  O  O242  1  0.99527282  0.74288580  0.63224820  1
  O  O243  1  0.00376600  0.25640373  0.37310902  1
  O  O244  1  0.01194255  0.25782141  0.88088857  1
  O  O245  1  -0.00430704  0.74956752  0.35199318  1
  O  O246  1  -0.01766152  0.76114314  0.85789550  1
  O  O247  1  0.50236875  0.26121226  0.36298135  1
  O  O248  1  0.50571138  0.25189725  0.86615580  1
  O  O249  1  0.50480728  0.75701250  0.36514506  1
  O  O250  1  0.50454777  0.75705556  0.86447534  1
  O  O251  1  0.24407154  0.13188982  0.50978283  1
  O  O252  1  0.24748461  0.13491280  0.99819885  1
  O  O253  1  0.24414468  0.63006151  0.49566839  1
  O  O254  1  0.25148371  0.62893386  0.99259159  1
  O  O255  1  0.74750607  0.13434114  0.49406705  1
  O  O256  1  0.74043958  0.13994856  1.00070523  1
  O  O257  1  0.74500918  0.63368374  0.49727975  1
  O  O258  1  0.74003314  0.62593478  0.99278508  1
  O  O259  1  0.25330448  0.36335896  0.00473659  1
  O  O260  1  0.26011747  0.37230445  0.50527849  1
  O  O261  1  0.26321980  0.87738022  0.01836295  1
  O  O262  1  0.25312228  0.86795183  0.50719434  1
  O  O263  1  0.75176115  0.36461490  0.00726891  1
  O  O264  1  0.75842455  0.37210182  0.50719786  1
  O  O265  1  0.75694548  0.87367331  -0.00781908  1
  O  O266  1  0.75338611  0.86020924  0.50054944  1
  O  O267  1  0.13772803  0.49811044  0.25114654  1
  O  O268  1  0.12489648  0.48898719  0.74302176  1
  O  O269  1  0.13424623  0.98942623  0.24432759  1
  O  O270  1  0.13362581  0.99271744  0.74340638  1
  O  O271  1  0.63197178  0.50580584  0.23632940  1
  O  O272  1  0.63660398  0.50720767  0.74493479  1
  O  O273  1  0.62771031  0.99528065  0.24177826  1
  O  O274  1  0.61930638  0.99452100  0.74089830  1
  O  O275  1  0.38672228  0.02274255  0.25193662  1
  O  O276  1  0.36636236  -0.00777373  0.75898321  1
  O  O277  1  0.36708445  0.51102161  0.24598830  1
  O  O278  1  0.37311213  0.50873185  0.75963387  1
  O  O279  1  0.86250555  -0.01600283  0.24473248  1
  O  O280  1  0.87341160  -0.00371905  0.75558328  1
  O  O281  1  0.86512592  0.50433972  0.25277371  1
  O  O282  1  0.86744234  0.50562695  0.76110766  1
  O  O283  1  0.11557471  0.36721582  0.37205089  1
  O  O284  1  0.12044822  0.36878190  0.86664254  1
  O  O285  1  0.12666444  0.88165957  0.36697568  1
  O  O286  1  0.11415959  0.88510138  0.86263596  1
  O  O287  1  0.61226494  0.38098021  0.37872442  1
  O  O288  1  0.62012774  0.36122387  0.88062148  1
  O  O289  1  0.61455667  0.87643528  0.36964985  1
  O  O290  1  0.62045371  0.87468884  0.86287313  1
  O  O291  1  0.37519225  0.13844088  0.13188034  1
  O  O292  1  0.38442852  0.13512549  0.62154836  1
  O  O293  1  0.38403579  0.62637736  0.13320549  1
  O  O294  1  0.37578589  0.62571970  0.63476767  1
  O  O295  1  0.87011271  0.14327672  0.12231490  1
  O  O296  1  0.89207527  0.13457677  0.62181053  1
  O  O297  1  0.87078766  0.63553611  0.13108709  1
  O  O298  1  0.88102977  0.62758575  0.63068429  1
  O  O299  1  0.25693766  0.25339468  0.11726330  1
  O  O300  1  0.25647313  0.26298869  0.62616123  1
  O  O301  1  0.26161795  0.76753030  0.13153328  1
  O  O302  1  0.24975291  0.76023195  0.61783660  1
  O  O303  1  0.75581304  0.25642079  0.11965117  1
  O  O304  1  0.75711238  0.26100446  0.61895112  1
  O  O305  1  0.76086211  0.75054073  0.12243858  1
  O  O306  1  0.75386130  0.75400442  0.61745953  1
  O  O307  1  0.23564843  0.25583742  0.37200500  1
  O  O308  1  0.24215000  0.24738783  0.88052048  1
  O  O309  1  0.25512896  0.73942325  0.38795253  1
  O  O310  1  0.25326167  0.74084968  0.87740455  1
  O  O311  1  0.75383943  0.23905369  0.38078902  1
  O  O312  1  0.74252552  0.25510415  0.88227241  1
  O  O313  1  0.74808936  0.74182717  0.38224444  1
  O  O314  1  0.74201970  0.74351635  0.87491082  1
  O  O315  1  0.01062750  0.13007376  0.01604517  1
  O  O316  1  0.00124507  0.11338167  0.50177488  1
  O  O317  1  0.00534544  0.61658784  -0.00414636  1
  O  O318  1  0.00649105  0.62201320  0.50276595  1
  O  O319  1  0.50580970  0.11334873  -0.00389805  1
  O  O320  1  0.49979628  0.11880175  0.50416348  1
  O  O321  1  0.50326878  0.61496471  0.00520225  1
  O  O322  1  0.51139272  0.63253879  0.50140124  1
  O  O323  1  0.48902462  0.37226306  0.48587641  1
  O  O324  1  0.49865320  0.38787588  1.00077229  1
  O  O325  1  0.50071861  0.88094632  0.49538377  1
  O  O326  1  0.49693586  0.88847030  0.99368729  1
  O  O327  1  0.99412292  0.37859281  0.49105948  1
  O  O328  1  1.00036001  0.38500645  0.98612926  1
  O  O329  1  0.99166413  0.88194523  0.50141110  1
  O  O330  1  0.97430765  0.88598452  1.00188955  1
  O  O331  1  0.49734466  0.48535124  0.36757144  1
  O  O332  1  0.49041514  0.50081803  0.88334124  1
  O  O333  1  0.50100361  0.99527099  0.38504759  1
  O  O334  1  0.49434152  0.99593367  0.87886522  1
  O  O335  1  0.99511405  0.49234578  0.38205794  1
  O  O336  1  0.99296966  0.49611431  0.88193432  1
  O  O337  1  0.99687845  0.99314483  0.38352771  1
  O  O338  1  0.98788682  0.97702084  0.87123720  1
  O  O339  1  0.02195890  -0.00955593  0.12763115  1
  O  O340  1  0.00411207  0.01116390  0.61988142  1
  O  O341  1  -0.00645156  0.49374631  0.10443171  1
  O  O342  1  0.00265739  0.50489952  0.62010670  1
  O  O343  1  0.51318269  -0.00226102  0.11523685  1
  O  O344  1  0.50229318  0.01051636  0.62204449  1
  O  O345  1  0.50617505  0.50145540  0.12156480  1
  O  O346  1  0.51458556  0.49939363  0.63392796  1
  O  O347  1  0.25034091  0.38452745  0.24224915  1
  O  O348  1  0.24155514  0.37929599  0.74177244  1
  O  O349  1  0.25432126  0.88042776  0.24699725  1
  O  O350  1  0.24265968  0.87849765  0.74390695  1
  O  O351  1  0.75098782  0.38636471  0.24334241  1
  O  O352  1  0.75447920  0.38639697  0.74068643  1
  O  O353  1  0.73570137  0.88309217  0.26101319  1
  O  O354  1  0.74135655  0.86761465  0.73945168  1
  O  O355  1  0.26914632  0.12861303  0.24819469  1
  O  O356  1  0.24711283  0.11244778  0.74435533  1
  O  O357  1  0.25834372  0.61954304  0.25783814  1
  O  O358  1  0.26050828  0.62529430  0.75264722  1
  O  O359  1  0.74728564  0.11574857  0.25904648  1
  O  O360  1  0.73449245  0.09400221  0.67375328  1
  O  O361  1  0.75450918  0.61218950  0.25431014  1
  O  O362  1  0.75594950  0.61820603  0.75536196  1
  O  O363  1  0.38045094  0.13303613  0.36458586  1
  O  O364  1  0.37402169  0.11213861  0.87734610  1
  O  O365  1  0.36694245  0.62558515  0.36849606  1
  O  O366  1  0.36531752  0.61961053  0.87044293  1
  O  O367  1  0.85785450  0.12028092  0.38004331  1
  O  O368  1  0.88627563  0.10726505  0.87265497  1
  O  O369  1  0.86518579  0.61610399  0.36969329  1
  O  O370  1  0.86932203  0.61919935  0.87034266  1
  O  O371  1  0.13991238  0.36489645  0.12585516  1
  O  O372  1  0.12971821  0.37505121  0.62920323  1
  O  O373  1  0.14599005  0.88175218  0.13678741  1
  O  O374  1  0.13293675  0.88144420  0.63195934  1
  O  O375  1  0.63723801  0.38330963  0.11997014  1
  O  O376  1  0.63767925  0.38387679  0.61870621  1
  O  O377  1  0.62042449  0.88331375  0.13625315  1
  O  O378  1  0.63123252  0.87218343  0.63685701  1
  O  O379  1  0.12002886  0.25273116  0.25864593  1
  O  O380  1  0.12961772  0.26103515  0.75692586  1
  O  O381  1  0.14209555  0.77268269  0.25763651  1
  O  O382  1  0.11475577  0.75914725  0.74560005  1
  O  O383  1  0.61297604  0.24813279  0.24305545  1
  O  O384  1  0.61846320  0.24698290  0.75915498  1
  O  O385  1  0.61902343  0.75795982  0.25077976  1
  O  O386  1  0.61711589  0.75591741  0.75484080  1
  O  O387  1  0.38137948  0.24365475  0.24473232  1
  O  O388  1  0.38111333  0.25624064  0.73614798  1
  O  O389  1  0.38557344  0.73949970  0.25108268  1
  O  O390  1  0.38172303  0.74520557  0.75046811  1
  O  O391  1  0.87362877  0.25618003  0.23517448  1
  O  O392  1  0.87039980  0.25412800  0.73570695  1
  O  O393  1  0.86130513  0.73778384  0.24004980  1
  O  O394  1  0.87902069  0.74601834  0.74114310  1
  O  O395  1  0.37465311  0.48555852  0.50529338  1
  O  O396  1  0.38280896  0.49950218  0.99448916  1
  O  O397  1  0.39091077  0.99226720  0.50364335  1
  O  O398  1  0.38252794  0.99476803  0.99541820  1
  O  O399  1  0.87946668  0.49448921  0.49473326  1
  O  O400  1  0.87472859  0.50012433  0.98700586  1
  O  O401  1  0.88214063  0.99189464  0.50446250  1
  O  O402  1  0.86374996  0.99519173  1.00099385  1
  O  O403  1  0.13715789  -0.01237773  0.01836216  1
  O  O404  1  0.11543650  -0.00071474  0.50826477  1
  O  O405  1  0.11513049  0.49838694  -0.00064909  1
  O  O406  1  0.11870646  0.50569459  0.50579888  1
  O  O407  1  0.62033069  0.00712280  0.00268374  1
  O  O408  1  0.61646085  0.00226077  0.51470398  1
  O  O409  1  0.61848092  0.50466381  0.00889215  1
  O  O410  1  0.63362526  0.51248924  0.51311750  1
  O  O411  1  0.36356909  0.36309236  0.12373874  1
  O  O412  1  0.36786413  0.37242098  0.61784985  1
  O  O413  1  0.37238328  0.87756713  0.12092110  1
  O  O414  1  0.36659496  0.87205023  0.61964965  1
  O  O415  1  0.86098801  0.36936285  0.12132508  1
  O  O416  1  0.86902409  0.37152556  0.62009236  1
  O  O417  1  0.86587902  0.87022658  0.11069241  1
  O  O418  1  0.86820358  0.86757095  0.61518519  1
  O  O419  1  0.11942152  0.13762203  0.37211094  1
  O  O420  1  0.12607621  0.12960817  0.87558816  1
  O  O421  1  0.13230619  0.62145415  0.38808485  1
  O  O422  1  0.14476345  0.62180826  0.86964465  1
  O  O423  1  0.64324822  0.11862905  0.37933726  1
  O  O424  1  0.62078102  0.13686770  0.88681169  1
  O  O425  1  0.63149301  0.62426218  0.38365247  1
  O  O426  1  0.62800917  0.63054572  0.88011207  1
