# generated using pymatgen
data_V85Zn86O256
_symmetry_space_group_name_H-M   'P 1'
_cell_length_a   16.94813553
_cell_length_b   16.93982662
_cell_length_c   16.94194790
_cell_angle_alpha   90.01488189
_cell_angle_beta   89.97942287
_cell_angle_gamma   90.06781998
_symmetry_Int_Tables_number   1
_chemical_formula_structural   V85Zn86O256
_chemical_formula_sum   'V85 Zn86 O256'
_cell_volume   4864.00355984
_cell_formula_units_Z   1
loop_
 _symmetry_equiv_pos_site_id
 _symmetry_equiv_pos_as_xyz
  1  'x, y, z'
loop_
 _atom_site_type_symbol
 _atom_site_label
 _atom_site_symmetry_multiplicity
 _atom_site_fract_x
 _atom_site_fract_y
 _atom_site_fract_z
 _atom_site_occupancy
  V  V0  1  0.26500743  0.87971580  0.12032803  1
  V  V1  1  0.24999843  0.13182021  0.38353816  1
  V  V2  1  0.73871029  -0.00694191  0.75167347  1
  V  V3  1  0.24887505  0.37248906  0.62165175  1
  V  V4  1  0.74521153  0.87118281  0.62668236  1
  V  V5  1  0.25084610  0.25145730  -0.00153207  1
  V  V6  1  0.61925348  -0.00551389  0.61237622  1
  V  V7  1  -0.00208888  0.24914603  0.74966618  1
  V  V8  1  0.12761829  0.50202581  0.62221351  1
  V  V9  1  0.50339908  0.62953306  0.62082514  1
  V  V10  1  0.37850148  0.50112775  0.37555332  1
  V  V11  1  0.75083675  0.74789190  0.48356556  1
  V  V12  1  0.88227160  0.87281345  0.00196564  1
  V  V13  1  0.49716939  -0.01463781  0.00517395  1
  V  V14  1  -0.00051208  0.37429739  0.87595682  1
  V  V15  1  0.86584503  0.50005653  0.87543003  1
  V  V16  1  0.00778884  0.62898351  0.62356734  1
  V  V17  1  0.37039965  0.12904968  0.25353573  1
  V  V18  1  0.00738686  0.49966237  0.00448847  1
  V  V19  1  0.24585366  -0.00021438  0.25238432  1
  V  V20  1  0.12806735  0.52091753  0.12189834  1
  V  V21  1  0.01033579  0.73548613  0.24044157  1
  V  V22  1  0.87416695  0.51543839  0.37127408  1
  V  V23  1  0.24406128  0.62156214  0.38558119  1
  V  V24  1  0.08029482  0.68371632  -0.06496821  1
  V  V25  1  0.12538381  -0.00151245  0.62413375  1
  V  V26  1  0.00198131  0.25050750  0.25055365  1
  V  V27  1  0.00027380  0.50425073  0.49911873  1
  V  V28  1  0.87408511  -0.00170956  0.37327115  1
  V  V29  1  0.87461141  0.25486233  0.61736141  1
  V  V30  1  0.87953108  -0.00796130  0.87343062  1
  V  V31  1  0.25501953  0.50660182  0.25098096  1
  V  V32  1  0.12593891  0.25403143  0.38611247  1
  V  V33  1  0.37702838  0.25278043  0.12256658  1
  V  V34  1  0.37690076  0.12246138  0.75179595  1
  V  V35  1  0.87130428  0.12201186  0.74885429  1
  V  V36  1  0.38538890  0.49756034  0.86938006  1
  V  V37  1  0.01766403  0.87711405  0.36339203  1
  V  V38  1  0.12417321  0.12525343  -0.00090944  1
  V  V39  1  0.87569805  0.24888478  0.12405222  1
  V  V40  1  0.74887146  0.14032007  0.37843626  1
  V  V41  1  0.24893590  0.37823359  0.12372202  1
  V  V42  1  0.74789394  0.24749865  0.00003068  1
  V  V43  1  0.62643269  0.37882951  0.75441090  1
  V  V44  1  0.26313902  0.75586855  -0.00176644  1
  V  V45  1  0.43436415  0.93518199  0.41551630  1
  V  V46  1  0.49874662  0.12412722  0.12498610  1
  V  V47  1  0.50667047  0.86659697  0.86092351  1
  V  V48  1  0.63311161  0.50233416  0.62059221  1
  V  V49  1  0.87122182  0.62451891  0.75336150  1
  V  V50  1  0.75273628  0.37392673  0.12798435  1
  V  V51  1  0.69611853  0.31906658  0.57305064  1
  V  V52  1  0.87359932  0.37435473  -0.00076734  1
  V  V53  1  0.62294908  0.12009130  0.00221178  1
  V  V54  1  0.25005394  -0.00255529  0.75183935  1
  V  V55  1  0.62608971  0.62584550  0.48805293  1
  V  V56  1  0.37836566  0.37496267  -0.00664242  1
  V  V57  1  0.49775372  0.25410448  0.75222105  1
  V  V58  1  0.50418384  0.25032702  0.25902933  1
  V  V59  1  0.12096511  0.37785396  0.24758801  1
  V  V60  1  0.37655205  -0.00918010  0.87925322  1
  V  V61  1  0.60084764  0.75934757  0.36385112  1
  V  V62  1  0.61979451  0.25384008  0.87685966  1
  V  V63  1  0.87841090  0.74932144  0.62503068  1
  V  V64  1  0.74362644  -0.00591915  0.25276390  1
  V  V65  1  0.38044345  0.75394607  0.62023191  1
  V  V66  1  0.74534295  0.87106701  0.12905929  1
  V  V67  1  0.11676512  0.86994503  0.76342179  1
  V  V68  1  0.12418726  -0.00523015  0.12473028  1
  V  V69  1  0.12439917  0.25014034  0.87538571  1
  V  V70  1  0.25526531  0.62831724  0.87883809  1
  V  V71  1  0.62929544  0.37081612  0.25850968  1
  V  V72  1  0.00664014  -0.00055936  0.49926027  1
  V  V73  1  0.49949852  0.49695858  -0.00141371  1
  V  V74  1  0.75523120  0.51624080  0.24998917  1
  V  V75  1  0.37864812  0.62964907  0.74689271  1
  V  V76  1  -0.00063902  0.12355677  0.12384681  1
  V  V77  1  0.62475050  0.49990024  0.12716079  1
  V  V78  1  0.25164801  0.87211842  0.62472838  1
  V  V79  1  0.23986036  0.74015338  0.50636329  1
  V  V80  1  0.36781071  0.24762822  0.62103745  1
  V  V81  1  0.62568171  0.62482527  -0.00494187  1
  V  V82  1  0.49249863  0.62827702  0.13664774  1
  V  V83  1  0.87808932  0.87479940  0.49957759  1
  V  V84  1  0.74828475  0.74842139  -0.00551841  1
  Zn  Zn85  1  0.74796618  0.12014814  0.87678168  1
  Zn  Zn86  1  0.12909581  0.12843993  0.50470007  1
  Zn  Zn87  1  0.87232135  0.73752478  0.13354749  1
  Zn  Zn88  1  0.50086711  0.48906465  0.50157311  1
  Zn  Zn89  1  0.62200419  -0.00742925  0.13035324  1
  Zn  Zn90  1  0.63058152  0.75384233  0.86216366  1
  Zn  Zn91  1  -0.00336363  0.37815434  0.37671262  1
  Zn  Zn92  1  0.63051462  0.12766565  0.49689697  1
  Zn  Zn93  1  0.87037050  0.37872539  0.50061479  1
  Zn  Zn94  1  0.38189491  0.75255268  0.13714084  1
  Zn  Zn95  1  0.50117807  0.11774540  0.62366462  1
  Zn  Zn96  1  0.87487723  0.12316826  0.24900712  1
  Zn  Zn97  1  0.75395530  0.49488717  0.74447174  1
  Zn  Zn98  1  0.50004806  0.37417894  0.37517482  1
  Zn  Zn99  1  0.37118728  0.37031699  0.49401405  1
  Zn  Zn100  1  0.25188692  0.12328027  0.87642310  1
  Zn  Zn101  1  0.12685472  0.74672729  0.37895587  1
  Zn  Zn102  1  0.00185205  -0.00535988  -0.00512242  1
  Zn  Zn103  1  -0.00052126  0.12412570  0.62322701  1
  Zn  Zn104  1  0.25014438  0.49864948  0.75149223  1
  Zn  Zn105  1  0.12636668  0.37413096  0.74956989  1
  Zn  Zn106  1  -0.00030480  0.75090953  0.76581736  1
  Zn  Zn107  1  0.18663936  0.18949557  0.18662575  1
  Zn  Zn108  1  0.18784235  0.18364175  0.69081548  1
  Zn  Zn109  1  0.22192265  0.71707149  0.21661966  1
  Zn  Zn110  1  0.18818893  0.68844379  0.69609091  1
  Zn  Zn111  1  0.68879098  0.18308086  0.19150221  1
  Zn  Zn112  1  0.68356371  0.17885465  0.69245208  1
  Zn  Zn113  1  0.67865861  0.69167037  0.18394483  1
  Zn  Zn114  1  0.69155210  0.68937765  0.68273415  1
  Zn  Zn115  1  0.31036748  0.31434198  0.31135594  1
  Zn  Zn116  1  0.30988879  0.31466987  0.81043078  1
  Zn  Zn117  1  0.36057205  0.82077172  0.31198279  1
  Zn  Zn118  1  0.31508059  0.81119587  0.80963490  1
  Zn  Zn119  1  0.82212280  0.32217828  0.31196265  1
  Zn  Zn120  1  0.80838299  0.30997727  0.81124418  1
  Zn  Zn121  1  0.82487503  0.81259536  0.30758494  1
  Zn  Zn122  1  0.81386917  0.81242117  0.81306252  1
  Zn  Zn123  1  0.18739656  0.43652623  0.44108257  1
  Zn  Zn124  1  0.19045648  0.44053239  0.93452794  1
  Zn  Zn125  1  0.22514268  0.92084368  0.42305931  1
  Zn  Zn126  1  0.19090067  0.93677495  0.94043697  1
  Zn  Zn127  1  0.69102574  0.44548992  0.43113353  1
  Zn  Zn128  1  0.68362875  0.43597279  0.93782354  1
  Zn  Zn129  1  0.68676062  0.93040185  0.43465328  1
  Zn  Zn130  1  0.68756204  0.93299828  0.93975806  1
  Zn  Zn131  1  0.31392546  0.06408890  0.06167963  1
  Zn  Zn132  1  0.31532193  0.05478539  0.55979529  1
  Zn  Zn133  1  0.31226095  0.56599435  0.06025377  1
  Zn  Zn134  1  0.31581838  0.55843114  0.56156727  1
  Zn  Zn135  1  0.81131008  0.05817362  0.06358746  1
  Zn  Zn136  1  0.81088407  0.06132767  0.56123587  1
  Zn  Zn137  1  0.80838570  0.56116650  0.05988886  1
  Zn  Zn138  1  0.81350651  0.56798766  0.55817900  1
  Zn  Zn139  1  0.43800626  0.43853711  0.18818232  1
  Zn  Zn140  1  0.44344356  0.43700666  0.68509431  1
  Zn  Zn141  1  0.43914454  0.94250168  0.20565267  1
  Zn  Zn142  1  0.43871750  0.93375947  0.68761641  1
  Zn  Zn143  1  0.93677743  0.56360192  0.18289336  1
  Zn  Zn144  1  0.93784301  0.43626129  0.68515640  1
  Zn  Zn145  1  0.93448276  0.93491664  0.18653192  1
  Zn  Zn146  1  0.93811353  0.93549673  0.68880158  1
  Zn  Zn147  1  0.06615003  0.06650804  0.31318836  1
  Zn  Zn148  1  0.06117800  0.06142786  0.81154312  1
  Zn  Zn149  1  0.06931154  0.56048963  0.31565819  1
  Zn  Zn150  1  0.05555640  0.55641146  0.80483372  1
  Zn  Zn151  1  0.56798803  0.06620376  0.31242530  1
  Zn  Zn152  1  0.56009507  0.06033635  0.81481643  1
  Zn  Zn153  1  0.56485775  0.56014591  0.31290917  1
  Zn  Zn154  1  0.58318282  0.59463770  0.79031227  1
  Zn  Zn155  1  0.44053993  0.10580344  0.44090344  1
  Zn  Zn156  1  0.43961725  0.18279052  0.93611009  1
  Zn  Zn157  1  0.43018861  0.68293219  0.44069987  1
  Zn  Zn158  1  0.43918350  0.68630039  0.94219074  1
  Zn  Zn159  1  0.93867460  0.18392268  0.43617011  1
  Zn  Zn160  1  0.93572644  0.18259871  0.93544042  1
  Zn  Zn161  1  0.94469582  0.69099575  0.43770984  1
  Zn  Zn162  1  0.91655403  0.67166296  0.95761856  1
  Zn  Zn163  1  0.06300768  0.31567778  0.06464117  1
  Zn  Zn164  1  0.05732984  0.31832486  0.56447409  1
  Zn  Zn165  1  0.06910450  0.81564051  0.06653827  1
  Zn  Zn166  1  0.06512822  0.81731447  0.56390230  1
  Zn  Zn167  1  0.56293319  0.31382091  0.06646856  1
  Zn  Zn168  1  0.51802960  0.26598500  0.52342449  1
  Zn  Zn169  1  0.56408570  0.80740343  0.06497663  1
  Zn  Zn170  1  0.55810888  0.81687361  0.54668129  1
  O  O171  1  0.12151922  0.12137697  0.11307404  1
  O  O172  1  0.12415423  0.11215874  0.62566323  1
  O  O173  1  0.13713896  0.61684985  0.12703902  1
  O  O174  1  0.11417234  0.62027132  0.63393573  1
  O  O175  1  0.62014270  0.12280102  0.11466108  1
  O  O176  1  0.62881977  0.10673628  0.62253805  1
  O  O177  1  0.61508758  0.61797241  0.11622853  1
  O  O178  1  0.61894192  0.62040374  0.61274967  1
  O  O179  1  0.37213913  0.38592028  0.37425836  1
  O  O180  1  0.37110299  0.38374366  0.88225831  1
  O  O181  1  0.33743292  0.88814493  0.40035754  1
  O  O182  1  0.38566424  0.88523588  0.86884043  1
  O  O183  1  0.87938984  0.39072961  0.38047432  1
  O  O184  1  0.88058261  0.37751036  0.87925965  1
  O  O185  1  0.88863718  0.88556864  0.37926032  1
  O  O186  1  0.87204067  0.88138888  0.88529954  1
  O  O187  1  0.23766014  0.01584840  0.35811736  1
  O  O188  1  0.26067136  -0.00006090  0.87096394  1
  O  O189  1  0.25402849  0.50117044  0.37025464  1
  O  O190  1  0.26230635  0.50939804  0.87468369  1
  O  O191  1  0.75927886  -0.00267264  0.36946037  1
  O  O192  1  0.75706889  -0.00337407  0.86682324  1
  O  O193  1  0.76432093  0.50329390  0.36454037  1
  O  O194  1  0.76298295  0.49210792  0.87453521  1
  O  O195  1  0.24700700  0.49709613  0.13132985  1
  O  O196  1  0.24256733  0.49388821  0.62738106  1
  O  O197  1  0.24382909  0.99963004  0.12812076  1
  O  O198  1  0.24519091  0.99192699  0.63020501  1
  O  O199  1  0.74676109  0.49043393  0.12994191  1
  O  O200  1  0.73808612  0.50553748  0.62257059  1
  O  O201  1  0.74926287  0.99211724  0.13555693  1
  O  O202  1  0.74354523  0.98938597  0.63019285  1
  O  O203  1  0.01479044  0.36726753  0.25078744  1
  O  O204  1  -0.00093892  0.36145621  0.75482040  1
  O  O205  1  0.00567411  0.87913966  0.26230242  1
  O  O206  1  0.01171165  0.87184089  0.75075333  1
  O  O207  1  0.51163149  0.36769990  0.24669488  1
  O  O208  1  0.51415976  0.36662088  0.74670783  1
  O  O209  1  0.45128637  0.89518577  0.30796044  1
  O  O210  1  0.50316274  0.87348335  0.76213934  1
  O  O211  1  0.49249446  0.13135237  0.24360094  1
  O  O212  1  0.49312964  0.12892190  0.74687854  1
  O  O213  1  0.50321300  0.61600022  0.23436689  1
  O  O214  1  0.48578398  0.61742815  0.73254652  1
  O  O215  1  0.99916836  0.13335459  0.24289533  1
  O  O216  1  0.99139751  0.13399840  0.74902143  1
  O  O217  1  1.00541127  0.63124645  0.25032325  1
  O  O218  1  0.99029798  0.62949584  0.74168928  1
  O  O219  1  0.37271290  0.25511313  0.00104185  1
  O  O220  1  0.37480242  0.24655468  0.52151523  1
  O  O221  1  0.36509510  0.74580861  0.01097535  1
  O  O222  1  0.36018063  0.74203952  0.51530963  1
  O  O223  1  0.86919594  0.25383051  0.00297136  1
  O  O224  1  0.88208372  0.24829565  0.51451160  1
  O  O225  1  0.86518353  0.75835737  0.00520421  1
  O  O226  1  0.87092004  0.75425962  0.50585267  1
  O  O227  1  0.11538526  0.25048608  0.48960109  1
  O  O228  1  0.12821250  0.24405451  0.99579360  1
  O  O229  1  0.13473799  0.74929273  0.50394703  1
  O  O230  1  0.13320379  0.75031723  0.99314667  1
  O  O231  1  0.63773530  0.25852973  0.51844943  1
  O  O232  1  0.62521140  0.24341952  0.99396380  1
  O  O233  1  0.63179123  0.74462293  0.48783399  1
  O  O234  1  0.63035847  0.74045650  0.99583881  1
  O  O235  1  0.49316234  0.24400487  0.12849727  1
  O  O236  1  0.48300903  0.24719934  0.64123741  1
  O  O237  1  0.49879968  0.73481565  0.12490293  1
  O  O238  1  0.49299734  0.74356565  0.61367802  1
  O  O239  1  0.99654158  0.24497118  0.13084822  1
  O  O240  1  0.99273497  0.24677061  0.63363344  1
  O  O241  1  1.00873552  0.75196952  0.13946147  1
  O  O242  1  0.99113110  0.74557815  0.62209880  1
  O  O243  1  0.00555628  0.25145529  0.36638710  1
  O  O244  1  0.00290246  0.25347133  0.86907417  1
  O  O245  1  0.00569234  0.76424012  0.37091847  1
  O  O246  1  0.00784777  0.73471251  0.88607110  1
  O  O247  1  0.49822004  0.25188513  0.35869193  1
  O  O248  1  0.50643714  0.24434943  0.86323048  1
  O  O249  1  0.50067459  0.74441066  0.37485652  1
  O  O250  1  0.49711592  0.76579538  0.88275837  1
  O  O251  1  0.24861312  0.12073067  0.48699669  1
  O  O252  1  0.24195494  0.13265300  0.99803515  1
  O  O253  1  0.24875852  0.62768934  0.49928623  1
  O  O254  1  0.25276474  0.63291486  0.98654147  1
  O  O255  1  0.75237504  0.12280448  0.48349058  1
  O  O256  1  0.74030709  0.12822922  0.99974301  1
  O  O257  1  0.73893338  0.63721190  0.50322003  1
  O  O258  1  0.73891222  0.63539992  1.00603765  1
  O  O259  1  0.25690144  0.37016222  0.00387079  1
  O  O260  1  0.25215641  0.37543525  0.51613533  1
  O  O261  1  0.25452883  0.87032116  0.00668318  1
  O  O262  1  0.23949382  0.86361427  0.52104258  1
  O  O263  1  0.75150182  0.36747942  0.00702248  1
  O  O264  1  0.74882108  0.37457836  0.50432396  1
  O  O265  1  0.75716477  0.86860167  0.00857454  1
  O  O266  1  0.75834228  0.86822192  0.50880712  1
  O  O267  1  0.12977148  0.49283791  0.24059559  1
  O  O268  1  0.12420243  0.49601499  0.73648028  1
  O  O269  1  0.13726341  1.01595677  0.23656517  1
  O  O270  1  0.12892657  0.99331323  0.74488583  1
  O  O271  1  0.63527967  0.49236079  0.24533498  1
  O  O272  1  0.62751517  0.49484115  0.74115350  1
  O  O273  1  0.63876182  1.00173874  0.24958390  1
  O  O274  1  0.63626512  1.00154956  0.74449229  1
  O  O275  1  0.35741714  0.02164478  0.24062737  1
  O  O276  1  0.37197714  0.00517048  0.75533900  1
  O  O277  1  0.36395095  0.49308962  0.25738106  1
  O  O278  1  0.37531972  0.50511663  0.75540340  1
  O  O279  1  0.86843403  0.00086926  0.25831386  1
  O  O280  1  0.86695919  0.00342530  0.75373060  1
  O  O281  1  0.87113796  0.50492997  0.26055502  1
  O  O282  1  0.87740799  0.50423033  0.75838910  1
  O  O283  1  0.12296428  0.37000387  0.36777773  1
  O  O284  1  0.11784353  0.36915630  0.87354667  1
  O  O285  1  0.11829901  0.87811412  0.38082873  1
  O  O286  1  0.12622828  0.88338352  0.86154403  1
  O  O287  1  0.62734631  0.37787976  0.36129071  1
  O  O288  1  0.62356403  0.36245384  0.87065785  1
  O  O289  1  0.62117878  0.85796358  0.37799431  1
  O  O290  1  0.61185439  0.87212761  0.87675814  1
  O  O291  1  0.37829893  0.13523543  0.12971634  1
  O  O292  1  0.37217219  0.13032030  0.63655025  1
  O  O293  1  0.38970377  0.62207957  0.12336841  1
  O  O294  1  0.38238566  0.62915745  0.62931148  1
  O  O295  1  0.88069157  0.13084107  0.12496516  1
  O  O296  1  0.87380771  0.12865247  0.63599465  1
  O  O297  1  0.88635669  0.62709014  0.10515717  1
  O  O298  1  0.88545120  0.63262848  0.62921501  1
  O  O299  1  0.25590130  0.25697360  0.11804471  1
  O  O300  1  0.26029512  0.25467989  0.63531455  1
  O  O301  1  0.24072606  0.76890721  0.11244207  1
  O  O302  1  0.25481728  0.75355144  0.62519066  1
  O  O303  1  0.75440451  0.25359865  0.12066733  1
  O  O304  1  0.75442005  0.25299844  0.62992866  1
  O  O305  1  0.75102221  0.75600647  0.11869860  1
  O  O306  1  0.75952539  0.75503446  0.61689964  1
  O  O307  1  0.23662016  0.24514772  0.36915797  1
  O  O308  1  0.24227135  0.24786925  0.88070643  1
  O  O309  1  0.24815061  0.73644578  0.39207173  1
  O  O310  1  0.25787805  0.74325745  0.88338042  1
  O  O311  1  0.76388817  0.23771771  0.36839076  1
  O  O312  1  0.73877764  0.24519412  0.88204467  1
  O  O313  1  0.75728031  0.75643855  0.38315435  1
  O  O314  1  0.74829306  0.75610078  0.88925097  1
  O  O315  1  0.00729482  0.12281532  0.00575606  1
  O  O316  1  0.00325859  0.11065217  0.50091163  1
  O  O317  1  0.01872320  0.61962578  -0.00990856  1
  O  O318  1  -0.00168848  0.61572098  0.51001430  1
  O  O319  1  0.50599368  0.11522704  0.00609126  1
  O  O320  1  0.51567187  0.15059919  0.51105810  1
  O  O321  1  0.50448103  0.61323477  0.00816933  1
  O  O322  1  0.50654261  0.62139501  0.50847204  1
  O  O323  1  0.49192037  0.37013562  0.49288882  1
  O  O324  1  0.49526772  0.38813361  1.00586254  1
  O  O325  1  0.48614686  0.88027041  0.48112097  1
  O  O326  1  0.50246130  0.88396290  1.00074684  1
  O  O327  1  0.99580281  0.39168702  0.50044549  1
  O  O328  1  0.99427267  0.38233637  0.99707577  1
  O  O329  1  0.99772560  0.88428947  0.49257579  1
  O  O330  1  0.98685043  0.87501082  1.00798657  1
  O  O331  1  0.49138700  0.49670676  0.37490636  1
  O  O332  1  0.48818075  0.50530721  0.88352297  1
  O  O333  1  0.49479369  1.01961434  0.38334458  1
  O  O334  1  0.49621102  0.98841116  0.88327363  1
  O  O335  1  0.99337216  0.50244694  0.38211242  1
  O  O336  1  0.99455652  0.49291472  0.88440722  1
  O  O337  1  0.99920959  0.99361026  0.37915525  1
  O  O338  1  0.98387081  1.00441681  0.87499078  1
  O  O339  1  0.00782182  0.00578528  0.12425200  1
  O  O340  1  0.00711550  -0.00094295  0.61793483  1
  O  O341  1  0.01035389  0.50309341  0.11151308  1
  O  O342  1  0.00497305  0.50877103  0.61998695  1
  O  O343  1  0.49990753  0.00308291  0.12341325  1
  O  O344  1  0.51602108  -0.00338668  0.62913462  1
  O  O345  1  0.50493067  0.50538840  0.11868622  1
  O  O346  1  0.51383773  0.50645087  0.62111459  1
  O  O347  1  0.23930323  0.38316296  0.24426617  1
  O  O348  1  0.24635152  0.37857824  0.73950573  1
  O  O349  1  0.25005018  0.89896722  0.24288828  1
  O  O350  1  0.24081218  0.87817994  0.74367207  1
  O  O351  1  0.74677561  0.37968656  0.24233957  1
  O  O352  1  0.73368260  0.37540103  0.75375258  1
  O  O353  1  0.75840432  0.88180344  0.24220256  1
  O  O354  1  0.75373602  0.87799930  0.73587676  1
  O  O355  1  0.25509654  0.12635437  0.25489381  1
  O  O356  1  0.25804438  0.11559326  0.75526294  1
  O  O357  1  0.24327966  0.60892950  0.26257385  1
  O  O358  1  0.26042156  0.62290278  0.76037002  1
  O  O359  1  0.75497203  0.11603418  0.26077431  1
  O  O360  1  0.75609399  0.11281709  0.75363854  1
  O  O361  1  0.74760549  0.61445038  0.23742521  1
  O  O362  1  0.76891881  0.61824046  0.74018061  1
  O  O363  1  0.36273521  0.14054188  0.36292763  1
  O  O364  1  0.37753455  0.11325895  0.86500267  1
  O  O365  1  0.36191913  0.60888998  0.38108037  1
  O  O366  1  0.37285008  0.62071855  0.86693367  1
  O  O367  1  0.87038592  0.11200358  0.37381543  1
  O  O368  1  0.87026453  0.11811989  0.86310557  1
  O  O369  1  0.88043880  0.61479125  0.37903525  1
  O  O370  1  0.87856474  0.61221110  0.86743259  1
  O  O371  1  0.13277913  0.37915580  0.13169445  1
  O  O372  1  0.13105265  0.38172073  0.62727407  1
  O  O373  1  0.13585341  0.89215837  0.12046674  1
  O  O374  1  0.12896104  0.88489469  0.63703734  1
  O  O375  1  0.63663412  0.37970695  0.13074681  1
  O  O376  1  0.63190121  0.38101551  0.62967329  1
  O  O377  1  0.63930332  0.87474628  0.12149106  1
  O  O378  1  0.63247474  0.88139688  0.61575867  1
  O  O379  1  0.11639617  0.25599072  0.25389459  1
  O  O380  1  0.11467031  0.24752868  0.75694954  1
  O  O381  1  0.11578942  0.74857934  0.25920746  1
  O  O382  1  0.12110797  0.76509154  0.75114530  1
  O  O383  1  0.61696865  0.25871510  0.24062055  1
  O  O384  1  0.61775133  0.25343107  0.75691777  1
  O  O385  1  0.62258772  0.74498794  0.26669163  1
  O  O386  1  0.61876717  0.70330979  0.76323612  1
  O  O387  1  0.38056589  0.24719500  0.24090652  1
  O  O388  1  0.38003990  0.24081107  0.75174527  1
  O  O389  1  0.33259805  0.74590074  0.23993171  1
  O  O390  1  0.37177424  0.73942560  0.73650344  1
  O  O391  1  0.88903482  0.25190505  0.24346921  1
  O  O392  1  0.87822083  0.24114662  0.74466138  1
  O  O393  1  0.90242475  0.75384851  0.24829341  1
  O  O394  1  0.87928653  0.74404168  0.74398383  1
  O  O395  1  0.37895302  0.49360730  0.49143997  1
  O  O396  1  0.38161032  0.49508815  0.99343460  1
  O  O397  1  0.38579089  1.00984716  0.48424640  1
  O  O398  1  0.38538733  1.00697465  0.99016468  1
  O  O399  1  0.88027720  0.50258545  0.49039799  1
  O  O400  1  0.88259011  0.49320609  0.99232461  1
  O  O401  1  0.88346975  0.99407142  0.49435475  1
  O  O402  1  0.87418925  0.99145215  0.99105246  1
  O  O403  1  0.12329680  0.00878594  0.00491140  1
  O  O404  1  0.11956979  -0.00123358  0.51060008  1
  O  O405  1  0.11889831  0.49333036  0.00884643  1
  O  O406  1  0.11678663  0.49733531  0.51368523  1
  O  O407  1  0.61691252  0.00612126  0.00252050  1
  O  O408  1  0.63121087  0.00027084  0.51052786  1
  O  O409  1  0.61790650  0.50061489  0.00828585  1
  O  O410  1  0.62474766  0.50849085  0.50182582  1
  O  O411  1  0.36923933  0.37136011  0.11583229  1
  O  O412  1  0.36799019  0.36205133  0.63027334  1
  O  O413  1  0.36766055  0.87941927  0.13231391  1
  O  O414  1  0.36566253  0.86566603  0.63203081  1
  O  O415  1  0.86147513  0.36756459  0.11686080  1
  O  O416  1  0.87477531  0.36394273  0.62326848  1
  O  O417  1  0.86470835  0.87290909  0.11737682  1
  O  O418  1  0.87062875  0.86636361  0.62059448  1
  O  O419  1  0.13101271  0.13779037  0.37756211  1
  O  O420  1  0.12401926  0.12811841  0.88613549  1
  O  O421  1  0.13886627  0.62135934  0.38079336  1
  O  O422  1  0.13352408  0.62390131  0.86798607  1
  O  O423  1  0.64429308  0.12855821  0.37549567  1
  O  O424  1  0.62313506  0.13122326  0.88681612  1
  O  O425  1  0.61969127  0.63297249  0.38438537  1
  O  O426  1  0.62390176  0.61124269  0.89519331  1
