# generated using pymatgen
data_V85Zn86O256
_symmetry_space_group_name_H-M   'P 1'
_cell_length_a   16.97346365
_cell_length_b   16.98959987
_cell_length_c   16.97272206
_cell_angle_alpha   89.95571409
_cell_angle_beta   90.00154503
_cell_angle_gamma   89.94070980
_symmetry_Int_Tables_number   1
_chemical_formula_structural   V85Zn86O256
_chemical_formula_sum   'V85 Zn86 O256'
_cell_volume   4894.45975922
_cell_formula_units_Z   1
loop_
 _symmetry_equiv_pos_site_id
 _symmetry_equiv_pos_as_xyz
  1  'x, y, z'
loop_
 _atom_site_type_symbol
 _atom_site_label
 _atom_site_symmetry_multiplicity
 _atom_site_fract_x
 _atom_site_fract_y
 _atom_site_fract_z
 _atom_site_occupancy
  V  V0  1  0.38289387  0.50335102  0.37832777  1
  V  V1  1  0.24735916  0.12255737  0.37746044  1
  V  V2  1  0.12083631  0.50557027  0.12434996  1
  V  V3  1  0.12155867  0.88339170  0.24227467  1
  V  V4  1  0.25092434  0.25199025  0.49988458  1
  V  V5  1  0.37107545  0.74976706  0.63177301  1
  V  V6  1  0.86903459  0.00268267  0.87647584  1
  V  V7  1  0.75241055  0.74873409  -0.00453816  1
  V  V8  1  0.87118390  0.49754293  0.87342268  1
  V  V9  1  0.12636588  0.50045315  0.62586088  1
  V  V10  1  0.25510861  0.37876251  0.12692228  1
  V  V11  1  0.37026784  0.00120303  0.87768021  1
  V  V12  1  0.49988463  0.11974210  0.62434746  1
  V  V13  1  0.00536961  0.00650098  0.49900867  1
  V  V14  1  0.24633074  0.88094319  0.62660644  1
  V  V15  1  0.37728089  0.75165077  0.12844105  1
  V  V16  1  0.49607867  0.87223756  0.87060335  1
  V  V17  1  0.12359234  0.75067958  0.37129875  1
  V  V18  1  0.12511372  0.76259733  0.86650272  1
  V  V19  1  0.74741288  0.87250605  0.11645772  1
  V  V20  1  0.62954373  0.49531537  0.12796502  1
  V  V21  1  0.24857130  0.00213915  0.25155672  1
  V  V22  1  0.00238930  0.01531027  0.00480427  1
  V  V23  1  0.24603576  0.75236258  0.50061914  1
  V  V24  1  0.74184216  0.49675251  0.73308266  1
  V  V25  1  0.37695772  0.12077099  0.25695379  1
  V  V26  1  0.50248411  0.37706652  0.37337958  1
  V  V27  1  0.37689293  0.38045933  -0.01108191  1
  V  V28  1  0.11964774  0.62384363  0.49907692  1
  V  V29  1  0.86579994  0.12628017  0.74650266  1
  V  V30  1  0.49866933  0.62788461  0.12619109  1
  V  V31  1  0.56045313  0.31403581  0.82024137  1
  V  V32  1  0.50220999  0.24788630  0.25182567  1
  V  V33  1  0.75030017  0.62116803  0.87617861  1
  V  V34  1  0.37389680  0.60554829  0.75044873  1
  V  V35  1  0.12062154  0.62604256  -0.00272976  1
  V  V36  1  0.88743138  0.87457886  -0.00741347  1
  V  V37  1  0.75298613  0.24383127  0.50817006  1
  V  V38  1  0.87491961  0.86897365  0.50542764  1
  V  V39  1  0.37445489  0.12772924  0.75205404  1
  V  V40  1  0.63873319  0.87873279  0.75157270  1
  V  V41  1  0.12340795  0.12591688  0.51363823  1
  V  V42  1  0.12745912  0.38048202  0.75222296  1
  V  V43  1  -0.00701917  0.37899870  0.37497303  1
  V  V44  1  0.48928547  0.87569428  0.36363172  1
  V  V45  1  0.37521629  0.87502890  0.00042870  1
  V  V46  1  0.49689440  0.50072532  -0.01117201  1
  V  V47  1  0.50524235  0.00331681  -0.00027869  1
  V  V48  1  0.62491028  0.24033527  0.37849340  1
  V  V49  1  0.87305221  0.37887882  0.50761581  1
  V  V50  1  0.25046333  0.61133283  0.86922783  1
  V  V51  1  0.24775857  0.88039157  0.12235546  1
  V  V52  1  0.25206829  0.37940143  0.62833061  1
  V  V53  1  0.12699419  0.24831882  0.88005979  1
  V  V54  1  0.07235345  -0.05830979  0.68408704  1
  V  V55  1  0.37966284  0.25278203  0.62903319  1
  V  V56  1  0.37605286  0.62888486  0.25084600  1
  V  V57  1  0.00901049  0.73689807  0.23824429  1
  V  V58  1  0.88181645  0.00339481  0.37387902  1
  V  V59  1  0.87738415  0.63079984  0.74949828  1
  V  V60  1  0.37991528  0.38208064  0.50392556  1
  V  V61  1  0.67779484  0.82320366  0.30046027  1
  V  V62  1  0.12627663  0.37688993  0.25404665  1
  V  V63  1  0.25233414  0.50202638  0.25261733  1
  V  V64  1  0.50257811  0.00043654  0.49757999  1
  V  V65  1  0.37843265  0.25331977  0.12638007  1
  V  V66  1  0.00315515  0.24637710  0.24308849  1
  V  V67  1  -0.00186990  0.62968949  0.62676663  1
  V  V68  1  -0.00014432  0.24441169  0.74466560  1
  V  V69  1  -0.00152412  0.37508303  0.87764276  1
  V  V70  1  0.51054848  0.62248039  0.61584488  1
  V  V71  1  0.87925069  0.12326946  0.24081331  1
  V  V72  1  0.25099462  0.62584504  0.37713865  1
  V  V73  1  0.74958542  0.12322806  0.37572047  1
  V  V74  1  0.75571213  0.48516497  0.25532075  1
  V  V75  1  0.00351677  0.87643391  0.37097388  1
  V  V76  1  0.73233274  0.24290291  0.00285127  1
  V  V77  1  0.62401323  0.62415791  -0.00008571  1
  V  V78  1  0.62544022  -0.00209332  0.13055990  1
  V  V79  1  0.50562534  0.12652755  0.12190249  1
  V  V80  1  0.86554572  0.61822341  0.24341909  1
  V  V81  1  0.63387121  -0.00017917  0.62654803  1
  V  V82  1  0.37061549  0.88431283  0.49787044  1
  V  V83  1  0.24584557  -0.00197470  0.75102206  1
  V  V84  1  0.86497703  0.37164259  0.00725759  1
  Zn  Zn85  1  -0.00933075  0.50279853  0.49802928  1
  Zn  Zn86  1  -0.00381430  0.50322585  0.00365677  1
  Zn  Zn87  1  0.69570684  0.33559296  0.66846104  1
  Zn  Zn88  1  0.73788124  0.12587138  0.88175815  1
  Zn  Zn89  1  0.68819917  0.69191365  0.44691006  1
  Zn  Zn90  1  0.88046856  0.24509900  0.62319766  1
  Zn  Zn91  1  0.82532652  0.70064302  0.57868495  1
  Zn  Zn92  1  0.25048433  0.74906951  -0.00415896  1
  Zn  Zn93  1  0.87198482  0.24908086  0.12419633  1
  Zn  Zn94  1  0.54889404  0.69946021  0.30486550  1
  Zn  Zn95  1  0.24722633  0.12552404  0.88036978  1
  Zn  Zn96  1  0.75011715  -0.00024180  0.24896338  1
  Zn  Zn97  1  0.13044732  0.12681936  0.01519246  1
  Zn  Zn98  1  0.56634960  0.47060066  0.53627831  1
  Zn  Zn99  1  0.00213262  0.76250149  0.75006618  1
  Zn  Zn100  1  0.63396200  0.36505203  0.24290370  1
  Zn  Zn101  1  0.49740502  0.74886770  0.75111257  1
  Zn  Zn102  1  0.62125614  0.75079957  0.87578399  1
  Zn  Zn103  1  0.12254682  0.25175223  0.37826107  1
  Zn  Zn104  1  0.71487491  0.83070257  0.58255659  1
  Zn  Zn105  1  0.25183667  0.24917636  0.00133983  1
  Zn  Zn106  1  0.88491918  0.74291063  0.11524727  1
  Zn  Zn107  1  0.19125794  0.19450653  0.18918998  1
  Zn  Zn108  1  0.18987100  0.19197169  0.69162236  1
  Zn  Zn109  1  0.19094324  0.69008438  0.18318831  1
  Zn  Zn110  1  0.18748002  0.68682007  0.69037124  1
  Zn  Zn111  1  0.69155514  0.18692431  0.18423845  1
  Zn  Zn112  1  0.65294122  0.16654119  0.73606049  1
  Zn  Zn113  1  0.69404375  0.68001859  0.17967041  1
  Zn  Zn114  1  0.68440094  0.68964116  0.69532960  1
  Zn  Zn115  1  0.31608795  0.31213035  0.31461149  1
  Zn  Zn116  1  0.31286237  0.31488529  0.81031242  1
  Zn  Zn117  1  0.31190044  0.81445224  0.31127007  1
  Zn  Zn118  1  0.30482190  0.81274868  0.81312852  1
  Zn  Zn119  1  0.81789799  0.30692209  0.31487921  1
  Zn  Zn120  1  0.80912557  0.31003112  0.81761443  1
  Zn  Zn121  1  0.84186275  0.80980871  0.30827662  1
  Zn  Zn122  1  0.81416842  0.81179566  0.81244525  1
  Zn  Zn123  1  0.18692126  0.43910742  0.43902242  1
  Zn  Zn124  1  0.18871121  0.43667720  0.93982941  1
  Zn  Zn125  1  0.18447560  0.94169235  0.43424647  1
  Zn  Zn126  1  0.18389781  0.94121490  0.94018521  1
  Zn  Zn127  1  0.70200875  0.41454046  0.42184067  1
  Zn  Zn128  1  0.68661260  0.43619748  0.93832251  1
  Zn  Zn129  1  0.68781496  0.94461167  0.43993870  1
  Zn  Zn130  1  0.68581156  0.93930641  0.93716937  1
  Zn  Zn131  1  0.31386756  0.06561189  0.06547658  1
  Zn  Zn132  1  0.31033956  0.06274512  0.56573108  1
  Zn  Zn133  1  0.30984464  0.56298955  0.05819031  1
  Zn  Zn134  1  0.31149597  0.56274245  0.56577774  1
  Zn  Zn135  1  0.80993879  0.06184415  0.05920386  1
  Zn  Zn136  1  0.81640107  0.06431157  0.56207884  1
  Zn  Zn137  1  0.81505541  0.56030605  0.06557592  1
  Zn  Zn138  1  0.75771884  0.53700560  0.52273268  1
  Zn  Zn139  1  0.44233813  0.44172089  0.18844563  1
  Zn  Zn140  1  0.54901476  0.43936862  0.69556959  1
  Zn  Zn141  1  0.43279140  0.94272255  0.18629968  1
  Zn  Zn142  1  0.43371736  0.93947154  0.68729667  1
  Zn  Zn143  1  0.94089081  0.43618844  0.18675023  1
  Zn  Zn144  1  0.93711972  0.44024736  0.68760283  1
  Zn  Zn145  1  0.93201162  0.93334443  0.18141593  1
  Zn  Zn146  1  0.91076740  0.94686028  0.68416633  1
  Zn  Zn147  1  0.05911835  0.06407973  0.18430468  1
  Zn  Zn148  1  0.05229937  0.06782831  0.82549803  1
  Zn  Zn149  1  0.05979690  0.56077272  0.31566738  1
  Zn  Zn150  1  0.06174215  0.56195038  0.81424489  1
  Zn  Zn151  1  0.56328248  0.05694751  0.31283257  1
  Zn  Zn152  1  0.55525317  0.05661050  0.81368656  1
  Zn  Zn153  1  0.60474402  0.53873622  0.36215936  1
  Zn  Zn154  1  0.56260418  0.56812091  0.81155499  1
  Zn  Zn155  1  0.43545027  0.18598420  0.43999292  1
  Zn  Zn156  1  0.43758274  0.19008622  0.93840345  1
  Zn  Zn157  1  0.43474080  0.69472062  0.44411091  1
  Zn  Zn158  1  0.43244980  0.68595326  0.93681488  1
  Zn  Zn159  1  0.94025673  0.18933027  0.43324307  1
  Zn  Zn160  1  0.93397777  0.18922810  0.93274638  1
  Zn  Zn161  1  0.90116757  0.66071901  0.44224502  1
  Zn  Zn162  1  0.94261576  0.68835764  0.93094842  1
  Zn  Zn163  1  0.06326623  0.31662158  0.06325160  1
  Zn  Zn164  1  0.06170448  0.31426687  0.56288465  1
  Zn  Zn165  1  0.06779010  0.81346136  0.05641185  1
  Zn  Zn166  1  0.05333830  0.80711867  0.55649577  1
  Zn  Zn167  1  0.55917559  0.31735158  0.05881095  1
  Zn  Zn168  1  0.56029927  0.29891376  0.55753515  1
  Zn  Zn169  1  0.56337866  0.81181850  0.06120530  1
  Zn  Zn170  1  0.55156188  0.80800698  0.55778041  1
  O  O171  1  0.12885124  0.12861005  0.12807752  1
  O  O172  1  0.13483976  0.12893024  0.61277814  1
  O  O173  1  0.14019569  0.61646476  0.11050346  1
  O  O174  1  0.12164602  0.61812866  0.62030212  1
  O  O175  1  0.61190904  0.11664842  0.13069444  1
  O  O176  1  0.60583121  0.11614596  0.63978258  1
  O  O177  1  0.61575540  0.61909001  0.11993410  1
  O  O178  1  0.60898107  0.63245968  0.63075663  1
  O  O179  1  0.38448022  0.37980039  0.38275751  1
  O  O180  1  0.36688526  0.37397845  0.89111417  1
  O  O181  1  0.38026860  0.87509012  0.38300009  1
  O  O182  1  0.37735794  0.88027782  0.88076590  1
  O  O183  1  0.88478646  0.36670844  0.38795385  1
  O  O184  1  0.88100781  0.38017489  0.88268560  1
  O  O185  1  0.88482198  0.88492437  0.38093750  1
  O  O186  1  0.87075572  0.88522313  0.88320134  1
  O  O187  1  0.24682599  0.00770606  0.36140116  1
  O  O188  1  0.25264582  0.00164214  0.86794444  1
  O  O189  1  0.25847536  0.50750830  0.37208372  1
  O  O190  1  0.24683629  0.51254925  0.87401591  1
  O  O191  1  0.76143728  0.00600057  0.37250338  1
  O  O192  1  0.76354834  0.00688159  0.88976492  1
  O  O193  1  0.75946451  0.49384071  0.35468371  1
  O  O194  1  0.75951806  0.50119612  0.87324875  1
  O  O195  1  0.24685670  0.49278051  0.13122950  1
  O  O196  1  0.23507149  0.49486691  0.62013910  1
  O  O197  1  0.25942656  0.98897824  0.13675682  1
  O  O198  1  0.24930075  0.98896210  0.63158343  1
  O  O199  1  0.73686263  0.50744801  0.13249294  1
  O  O200  1  0.74902532  0.50511716  0.63509768  1
  O  O201  1  0.74210289  0.99124642  0.12416626  1
  O  O202  1  0.73345198  1.00754533  0.61810763  1
  O  O203  1  0.00466662  0.37164657  0.25823149  1
  O  O204  1  0.00369219  0.37040689  0.76160894  1
  O  O205  1  0.00717937  0.87260550  0.24998435  1
  O  O206  1  0.00467307  0.88484594  0.73499361  1
  O  O207  1  0.49757335  0.36457714  0.25864131  1
  O  O208  1  0.49666592  0.37397213  0.76838096  1
  O  O209  1  0.48932401  0.88044872  0.26441578  1
  O  O210  1  0.49486867  0.87582408  0.76353166  1
  O  O211  1  0.49287550  0.12722744  0.24731345  1
  O  O212  1  0.47970508  0.11275547  0.73952331  1
  O  O213  1  0.48838856  0.62834474  0.23897921  1
  O  O214  1  0.48578656  0.62740264  0.74337736  1
  O  O215  1  0.99265204  0.13386064  0.25129416  1
  O  O216  1  0.98869634  0.13694113  0.75858766  1
  O  O217  1  1.02032147  0.63746506  0.23861880  1
  O  O218  1  0.99231329  0.62040435  0.74342521  1
  O  O219  1  0.37599114  0.26335407  0.00867463  1
  O  O220  1  0.36955774  0.26060627  0.50511307  1
  O  O221  1  0.37170624  0.75662593  0.00989179  1
  O  O222  1  0.36432903  0.76105453  0.51213843  1
  O  O223  1  0.87943360  0.26418369  0.00299120  1
  O  O224  1  0.87018199  0.25191903  0.50319842  1
  O  O225  1  0.87216483  0.75636788  -0.00424910  1
  O  O226  1  0.88667001  0.76588071  0.49440211  1
  O  O227  1  0.13440657  0.24656891  0.50118779  1
  O  O228  1  0.12753397  0.25357407  0.99232799  1
  O  O229  1  0.12744675  0.74433605  0.49181095  1
  O  O230  1  0.12938421  0.74188175  0.98975592  1
  O  O231  1  0.63522860  0.24792060  0.48566007  1
  O  O232  1  0.63331893  0.25090339  1.00611927  1
  O  O233  1  0.64495266  0.76943384  0.51481017  1
  O  O234  1  0.63451096  0.74289837  0.99797566  1
  O  O235  1  0.49786690  0.24272786  0.12999764  1
  O  O236  1  0.48648800  0.23574430  0.61673832  1
  O  O237  1  0.49223765  0.73883089  0.11771443  1
  O  O238  1  0.48602683  0.74252839  0.62841110  1
  O  O239  1  0.99780409  0.26109842  0.14007491  1
  O  O240  1  1.00319897  0.25440796  0.64147655  1
  O  O241  1  1.00366605  0.75822245  0.13530284  1
  O  O242  1  1.00806434  0.73498946  0.63222499  1
  O  O243  1  0.00272404  0.26004871  0.36363420  1
  O  O244  1  0.00841585  0.25856579  0.86924362  1
  O  O245  1  0.00919232  0.75823537  0.35380241  1
  O  O246  1  0.01939703  0.74670710  0.86968795  1
  O  O247  1  0.50707294  0.25318279  0.37405843  1
  O  O248  1  0.50310387  0.24562306  0.86730030  1
  O  O249  1  0.49455281  0.76920022  0.37881422  1
  O  O250  1  0.49850883  0.75871012  0.87485632  1
  O  O251  1  0.24957342  0.13213726  0.49623538  1
  O  O252  1  0.25025362  0.13026064  0.99887826  1
  O  O253  1  0.24413571  0.63315843  0.49564787  1
  O  O254  1  0.24620545  0.62598033  0.98438423  1
  O  O255  1  0.76013292  0.12974029  0.48418603  1
  O  O256  1  0.74829717  0.13826137  1.00111009  1
  O  O257  1  0.78800317  0.64041106  0.48626213  1
  O  O258  1  0.74731154  0.63028693  0.99580287  1
  O  O259  1  0.26077158  0.37696029  0.01056842  1
  O  O260  1  0.25680533  0.36861678  0.50511372  1
  O  O261  1  0.25614886  0.87847187  0.00823693  1
  O  O262  1  0.25183363  0.87414757  0.50502194  1
  O  O263  1  0.76158746  0.36830902  -0.00071584  1
  O  O264  1  0.76541132  0.35933660  0.49679308  1
  O  O265  1  0.75560986  0.86625251  0.00168729  1
  O  O266  1  0.77160811  0.88597855  0.49584736  1
  O  O267  1  0.13368602  0.49714021  0.24444324  1
  O  O268  1  0.11929265  0.48740171  0.74375160  1
  O  O269  1  0.13080100  0.98943287  0.24611634  1
  O  O270  1  0.12399679  1.00266636  0.75150186  1
  O  O271  1  0.64331800  0.49514725  0.24847739  1
  O  O272  1  0.63750682  0.50153060  0.75164202  1
  O  O273  1  0.62729620  0.99819420  0.23526155  1
  O  O274  1  0.61426465  0.98344306  0.74115526  1
  O  O275  1  0.36687880  0.01395875  0.24911710  1
  O  O276  1  0.36273935  0.00534083  0.75562779  1
  O  O277  1  0.37122789  0.50775089  0.25875589  1
  O  O278  1  0.37405367  0.51121347  0.74497583  1
  O  O279  1  0.87551914  0.00448352  0.25770314  1
  O  O280  1  0.87473840  0.01589606  0.76132109  1
  O  O281  1  0.86353871  0.50646601  0.23407197  1
  O  O282  1  0.86720431  0.50768255  0.75637772  1
  O  O283  1  0.12017252  0.37386609  0.36964003  1
  O  O284  1  0.11856941  0.37262912  0.86982495  1
  O  O285  1  0.12189797  0.87109837  0.36368323  1
  O  O286  1  0.13106325  0.86097631  0.87764489  1
  O  O287  1  0.61729535  0.36048399  0.36647636  1
  O  O288  1  0.61240411  0.37204153  0.88515373  1
  O  O289  1  0.61985856  0.87943348  0.36459475  1
  O  O290  1  0.61475099  0.87812976  0.86646344  1
  O  O291  1  0.38571451  0.13107831  0.13525724  1
  O  O292  1  0.37808535  0.13171007  0.63093998  1
  O  O293  1  0.37806580  0.63233271  0.12786716  1
  O  O294  1  0.37406448  0.63195629  0.63579741  1
  O  O295  1  0.87003875  0.12287916  0.13807002  1
  O  O296  1  0.87670787  0.12475562  0.64060324  1
  O  O297  1  0.88041357  0.62586574  0.13578445  1
  O  O298  1  0.88662553  0.62101880  0.63726757  1
  O  O299  1  0.25977752  0.26620316  0.12776019  1
  O  O300  1  0.25917443  0.25532721  0.61529880  1
  O  O301  1  0.25876301  0.76316885  0.12152467  1
  O  O302  1  0.25040051  0.76163837  0.62196803  1
  O  O303  1  0.75370900  0.24967970  0.11075896  1
  O  O304  1  0.74777025  0.24653354  0.61065791  1
  O  O305  1  0.75425397  0.75377188  0.11034606  1
  O  O306  1  0.76310747  0.75559452  0.65116861  1
  O  O307  1  0.25274470  0.24750962  0.38862599  1
  O  O308  1  0.23781384  0.25146375  0.87553949  1
  O  O309  1  0.24366505  0.74601662  0.37923618  1
  O  O310  1  0.23933509  0.74132270  0.87492833  1
  O  O311  1  0.74348888  0.24151846  0.37924834  1
  O  O312  1  0.75481355  0.24963004  0.89754794  1
  O  O313  1  0.74276029  0.76913289  0.35659115  1
  O  O314  1  0.74898442  0.74378788  0.88447588  1
  O  O315  1  -0.00237724  0.11728504  0.00201733  1
  O  O316  1  0.01004324  0.11927331  0.49601772  1
  O  O317  1  0.01599428  0.62105220  -0.00718914  1
  O  O318  1  -0.00300588  0.62223696  0.50758946  1
  O  O319  1  0.49147801  0.11529360  0.01086537  1
  O  O320  1  0.48986707  0.10955919  0.50794552  1
  O  O321  1  0.50193940  0.62018940  0.00633641  1
  O  O322  1  0.49524455  0.63021331  0.51605852  1
  O  O323  1  0.49455641  0.37670767  0.49117253  1
  O  O324  1  0.48441208  0.38557898  1.00551465  1
  O  O325  1  0.48750571  0.88281991  0.49361637  1
  O  O326  1  0.49566530  0.88060132  0.99001783  1
  O  O327  1  0.98976653  0.37467596  0.49344895  1
  O  O328  1  0.99480968  0.37883555  0.98829129  1
  O  O329  1  0.99609205  0.88398522  0.49160642  1
  O  O330  1  0.98935005  0.88022878  1.00409242  1
  O  O331  1  0.50102550  0.48461898  0.37162338  1
  O  O332  1  0.50137967  0.51130360  0.89023653  1
  O  O333  1  0.50412078  0.98720269  0.38436825  1
  O  O334  1  0.48998739  0.99342694  0.88387664  1
  O  O335  1  1.00419702  0.48430143  0.37847837  1
  O  O336  1  0.98738265  0.49279268  0.87496932  1
  O  O337  1  0.99015521  0.99621674  0.38381629  1
  O  O338  1  0.98439228  1.00334492  0.89275683  1
  O  O339  1  -0.00474623  -0.00137561  0.11116672  1
  O  O340  1  0.00876103  -0.00568156  0.62250205  1
  O  O341  1  0.01760653  0.49576132  0.12393865  1
  O  O342  1  0.01112550  0.50703899  0.62266013  1
  O  O343  1  0.50503688  0.00494777  0.11939580  1
  O  O344  1  0.50152226  0.00271157  0.61619509  1
  O  O345  1  0.50527378  0.51393145  0.12112686  1
  O  O346  1  0.50186053  0.51641049  0.62127023  1
  O  O347  1  0.24858619  0.38173307  0.24658639  1
  O  O348  1  0.23855105  0.37011334  0.74113271  1
  O  O349  1  0.24380219  0.88417429  0.24516393  1
  O  O350  1  0.24983354  0.88918353  0.74296572  1
  O  O351  1  0.75550543  0.38089502  0.24765583  1
  O  O352  1  0.76010196  0.39119388  0.74658370  1
  O  O353  1  0.75160152  0.87374858  0.24203339  1
  O  O354  1  0.73709170  0.88070716  0.76067226  1
  O  O355  1  0.25613129  0.12069447  0.25792152  1
  O  O356  1  0.25649470  0.11450135  0.74971745  1
  O  O357  1  0.25593557  0.62202902  0.25666215  1
  O  O358  1  0.26005381  0.62558072  0.75870957  1
  O  O359  1  0.75939981  0.12337363  0.25959384  1
  O  O360  1  0.76579498  0.13627768  0.75078308  1
  O  O361  1  0.76239510  0.61927339  0.24999045  1
  O  O362  1  0.75641912  0.61317897  0.75801842  1
  O  O363  1  0.36322423  0.13192489  0.36758265  1
  O  O364  1  0.37155900  0.11944811  0.86773598  1
  O  O365  1  0.37306586  0.62295896  0.37276878  1
  O  O366  1  0.36326668  0.62880637  0.86120043  1
  O  O367  1  0.87202281  0.11823454  0.36548834  1
  O  O368  1  0.87022635  0.12025177  0.86712457  1
  O  O369  1  0.90225165  0.61763361  0.33854218  1
  O  O370  1  0.87079467  0.61416709  0.87265581  1
  O  O371  1  0.13641500  0.38352405  0.13171457  1
  O  O372  1  0.12824555  0.38232589  0.63196084  1
  O  O373  1  0.13726749  0.87233738  0.12946070  1
  O  O374  1  0.12728469  0.87673356  0.62365566  1
  O  O375  1  0.61274203  0.39099967  0.12995223  1
  O  O376  1  0.61052841  0.38615909  0.61117889  1
  O  O377  1  0.63795473  0.88096350  0.11718062  1
  O  O378  1  0.62288332  0.88192495  0.63907948  1
  O  O379  1  0.12030946  0.26075844  0.25447930  1
  O  O380  1  0.11889511  0.25936461  0.75799982  1
  O  O381  1  0.12254588  0.76089410  0.24855367  1
  O  O382  1  0.12473175  0.75033717  0.76173352  1
  O  O383  1  0.62004254  0.24684481  0.25772037  1
  O  O384  1  0.62700438  0.27664582  0.74446537  1
  O  O385  1  0.62665009  0.75991381  0.23763780  1
  O  O386  1  0.61758542  0.76677102  0.75566259  1
  O  O387  1  0.38125751  0.24113579  0.24611047  1
  O  O388  1  0.36628959  0.24105742  0.73887001  1
  O  O389  1  0.36895518  0.74599566  0.23642471  1
  O  O390  1  0.37099141  0.75254054  0.73812557  1
  O  O391  1  0.88328188  0.24060971  0.24688525  1
  O  O392  1  0.88228165  0.24352028  0.75043339  1
  O  O393  1  0.89247656  0.73671450  0.23983714  1
  O  O394  1  0.88439183  0.73446321  0.76581646  1
  O  O395  1  0.36951149  0.48850917  0.49568193  1
  O  O396  1  0.38182344  0.48932818  1.00529326  1
  O  O397  1  0.37752877  0.98834123  0.50518304  1
  O  O398  1  0.38457213  0.99336740  0.99911795  1
  O  O399  1  0.86737292  0.48110859  0.50231128  1
  O  O400  1  0.87485608  0.48910041  0.99323416  1
  O  O401  1  0.88822285  0.99676801  0.49568311  1
  O  O402  1  0.88214214  0.99366346  0.99784691  1
  O  O403  1  0.10642753  0.00505971  -0.00548175  1
  O  O404  1  0.11371616  0.00901912  0.49537112  1
  O  O405  1  0.12576579  0.50666384  0.00766710  1
  O  O406  1  0.12130661  0.50789831  0.50729356  1
  O  O407  1  0.61106500  -0.00387999  0.00898462  1
  O  O408  1  0.61203073  -0.00762601  0.51111648  1
  O  O409  1  0.61878665  0.50539183  0.00965063  1
  O  O410  1  0.65262755  0.50523701  0.47396876  1
  O  O411  1  0.36982415  0.37418194  0.12401115  1
  O  O412  1  0.37116994  0.36611287  0.61619323  1
  O  O413  1  0.37185945  0.86841847  0.12098377  1
  O  O414  1  0.36506286  0.86972001  0.61885770  1
  O  O415  1  0.87980234  0.37747512  0.10846019  1
  O  O416  1  0.88334406  0.36830291  0.61146163  1
  O  O417  1  0.86164863  0.87062213  0.11381009  1
  O  O418  1  0.88063438  0.87478020  0.60589170  1
  O  O419  1  0.14380560  0.13330088  0.38835867  1
  O  O420  1  0.12566403  0.13803865  0.88009494  1
  O  O421  1  0.12951886  0.62995782  0.38105266  1
  O  O422  1  0.13649030  0.62672204  0.87762564  1
  O  O423  1  0.63551936  0.12818439  0.36931398  1
  O  O424  1  0.63183759  0.12794925  0.84170496  1
  O  O425  1  0.62405424  0.64601881  0.36789495  1
  O  O426  1  0.63266297  0.62793705  0.88171578  1
