# generated using pymatgen
data_V85Zn86O256
_symmetry_space_group_name_H-M   'P 1'
_cell_length_a   16.99717048
_cell_length_b   16.99451912
_cell_length_c   16.97485825
_cell_angle_alpha   90.09867839
_cell_angle_beta   89.91613405
_cell_angle_gamma   89.96863533
_symmetry_Int_Tables_number   1
_chemical_formula_structural   V85Zn86O256
_chemical_formula_sum   'V85 Zn86 O256'
_cell_volume   4903.32287726
_cell_formula_units_Z   1
loop_
 _symmetry_equiv_pos_site_id
 _symmetry_equiv_pos_as_xyz
  1  'x, y, z'
loop_
 _atom_site_type_symbol
 _atom_site_label
 _atom_site_symmetry_multiplicity
 _atom_site_fract_x
 _atom_site_fract_y
 _atom_site_fract_z
 _atom_site_occupancy
  V  V0  1  0.73905468  0.75030196  0.48903029  1
  V  V1  1  0.75293600  0.13001809  0.88611308  1
  V  V2  1  0.37782102  0.24861741  0.62327344  1
  V  V3  1  0.62475265  0.62693409  0.48450154  1
  V  V4  1  0.62324227  0.49739396  0.62037434  1
  V  V5  1  0.37739737  0.74686885  0.12344594  1
  V  V6  1  -0.00146906  0.62505535  0.62235508  1
  V  V7  1  -0.00131832  0.37887920  0.87381683  1
  V  V8  1  0.74956047  0.37220771  0.61656032  1
  V  V9  1  0.12640179  0.37661724  0.74793748  1
  V  V10  1  0.37288757  0.37523388  -0.00150200  1
  V  V11  1  0.50542148  0.11594685  0.62451776  1
  V  V12  1  0.86887292  0.00905243  0.36976033  1
  V  V13  1  0.50039393  0.62521850  0.62292019  1
  V  V14  1  0.62342973  0.37413003  0.74723955  1
  V  V15  1  0.11777922  0.50021329  0.12664083  1
  V  V16  1  0.25113241  0.87758187  0.12410246  1
  V  V17  1  0.37279667  0.62591070  0.74964526  1
  V  V18  1  0.87450859  0.87688175  0.49734575  1
  V  V19  1  0.12242634  0.62227242  0.49419343  1
  V  V20  1  0.74957221  0.24444190  0.48615477  1
  V  V21  1  0.62714381  0.11952931  0.48923458  1
  V  V22  1  0.49760283  0.37726211  0.87476345  1
  V  V23  1  0.37617852  0.12541854  0.74920891  1
  V  V24  1  0.11849030  0.76148108  0.37550919  1
  V  V25  1  0.24217087  0.62706246  0.87626679  1
  V  V26  1  0.24639997  0.37525622  0.12460533  1
  V  V27  1  0.79454511  0.51188028  0.29845099  1
  V  V28  1  0.50044229  0.49469467  0.49362927  1
  V  V29  1  0.87020811  0.74634226  0.61886575  1
  V  V30  1  0.37687481  0.49619860  0.37159772  1
  V  V31  1  0.25145843  0.37451910  0.62374828  1
  V  V32  1  0.24978431  -0.00216507  0.24843321  1
  V  V33  1  -0.00066267  -0.00274000  0.49110717  1
  V  V34  1  0.49815677  0.50946817  0.01244293  1
  V  V35  1  0.25625569  0.12266492  0.36823302  1
  V  V36  1  0.74878334  -0.00133187  0.75063588  1
  V  V37  1  0.11993099  0.87705057  0.75036200  1
  V  V38  1  0.50036118  0.24931391  0.74875856  1
  V  V39  1  0.24652077  0.50348202  0.25071907  1
  V  V40  1  0.63909351  0.50664716  0.12211413  1
  V  V41  1  0.11577588  0.75251830  0.87039940  1
  V  V42  1  0.38798802  0.00235350  0.37250797  1
  V  V43  1  0.12492093  0.24945980  0.87475731  1
  V  V44  1  0.12573804  0.12325572  0.49820281  1
  V  V45  1  0.25284104  0.24790212  0.49840285  1
  V  V46  1  0.12601044  0.11441430  0.00287776  1
  V  V47  1  0.24876520  0.00063086  0.74832540  1
  V  V48  1  0.87325985  0.62737098  0.75416618  1
  V  V49  1  0.38643497  0.87874369  0.49895137  1
  V  V50  1  -0.00006773  0.24964676  0.74902339  1
  V  V51  1  -0.00233158  0.75575019  0.74656495  1
  V  V52  1  0.12508043  0.24672104  0.36908143  1
  V  V53  1  -0.00027083  0.12424881  0.62367796  1
  V  V54  1  0.25198991  0.74946824  0.49987108  1
  V  V55  1  0.00498472  0.13467121  0.13279544  1
  V  V56  1  0.37840391  0.37366300  0.49634336  1
  V  V57  1  -0.01223408  0.49200561  0.50585766  1
  V  V58  1  0.38326260  -0.00246351  0.87352795  1
  V  V59  1  0.37798376  0.87382759  -0.00707020  1
  V  V60  1  0.11978070  0.37259426  0.25313016  1
  V  V61  1  0.75058383  0.50155670  0.74298803  1
  V  V62  1  0.50329593  0.74520229  0.25770703  1
  V  V63  1  0.12753434  0.50082777  0.62424058  1
  V  V64  1  0.74385032  0.01369173  0.24230334  1
  V  V65  1  0.75368785  0.86550706  0.12743264  1
  V  V66  1  0.73216457  0.63212148  0.87455145  1
  V  V67  1  0.37976173  0.62140363  0.24257511  1
  V  V68  1  0.24781063  0.24910561  -0.00130403  1
  V  V69  1  -0.00844563  0.36802172  0.38470527  1
  V  V70  1  0.51085779  0.75275781  0.74992870  1
  V  V71  1  0.87377705  0.12750230  0.75370764  1
  V  V72  1  0.25190824  0.87797225  0.62332602  1
  V  V73  1  0.87123694  0.25298844  0.62407843  1
  V  V74  1  0.25119790  0.12413610  0.87652078  1
  V  V75  1  0.56198109  0.81460259  0.93167904  1
  V  V76  1  0.62493360  0.87895860  0.25036135  1
  V  V77  1  -0.00465679  0.00138557  0.00041015  1
  V  V78  1  0.62658531  0.25144864  0.88725193  1
  V  V79  1  0.11152964  0.64485618  0.02325677  1
  V  V80  1  0.85950171  0.25401690  0.12228828  1
  V  V81  1  0.55098190  0.27878014  0.30239579  1
  V  V82  1  0.00019816  0.50012007  -0.00035335  1
  V  V83  1  0.37587082  0.24742244  0.13621330  1
  V  V84  1  0.87875399  0.86703741  -0.00302394  1
  Zn  Zn85  1  -0.11446697  0.66416230  0.22558029  1
  Zn  Zn86  1  -0.03839548  0.83134926  0.31661475  1
  Zn  Zn87  1  0.12136891  0.87692658  0.24284027  1
  Zn  Zn88  1  0.25029700  0.50171580  0.75056736  1
  Zn  Zn89  1  0.88097493  -0.00319995  0.87347770  1
  Zn  Zn90  1  0.37198841  0.50241636  0.87611855  1
  Zn  Zn91  1  0.25048596  0.62730106  0.37413198  1
  Zn  Zn92  1  0.12238823  0.00020677  0.62255154  1
  Zn  Zn93  1  0.51101150  0.87471047  0.37909998  1
  Zn  Zn94  1  0.25252163  0.75146060  -0.00201964  1
  Zn  Zn95  1  0.86731663  0.50088249  0.88078985  1
  Zn  Zn96  1  0.51403787  0.00162188  0.02362959  1
  Zn  Zn97  1  0.74669330  0.87622808  0.62636917  1
  Zn  Zn98  1  0.37779831  0.75252821  0.62460290  1
  Zn  Zn99  1  0.84836956  0.38087228  0.01771265  1
  Zn  Zn100  1  0.62486216  0.12314228  0.00994725  1
  Zn  Zn101  1  0.51323684  0.13547903  0.14282995  1
  Zn  Zn102  1  0.64939644  0.38857204  0.24212050  1
  Zn  Zn103  1  0.74894348  0.74266471  -0.00013294  1
  Zn  Zn104  1  0.62459081  0.87485803  0.75258840  1
  Zn  Zn105  1  0.62491948  -0.00105524  0.62507584  1
  Zn  Zn106  1  0.87729266  0.13587583  0.25466712  1
  Zn  Zn107  1  0.19081717  0.18409384  0.18602541  1
  Zn  Zn108  1  0.18777884  0.18693469  0.68616969  1
  Zn  Zn109  1  0.07796265  0.68023815  0.20105122  1
  Zn  Zn110  1  0.18831239  0.68941771  0.68402691  1
  Zn  Zn111  1  0.68411330  0.19127823  0.18253269  1
  Zn  Zn112  1  0.68633591  0.18596796  0.69304248  1
  Zn  Zn113  1  0.69198385  0.66958775  0.19506810  1
  Zn  Zn114  1  0.68742156  0.68553002  0.67839855  1
  Zn  Zn115  1  0.31119905  0.31576537  0.31297121  1
  Zn  Zn116  1  0.31231434  0.31260197  0.81187473  1
  Zn  Zn117  1  0.31374428  0.81280702  0.31320730  1
  Zn  Zn118  1  0.31269010  0.80936631  0.80986891  1
  Zn  Zn119  1  0.81049749  0.31781819  0.30085919  1
  Zn  Zn120  1  0.79493009  0.33371112  0.84231577  1
  Zn  Zn121  1  0.79415069  0.82287542  0.32206567  1
  Zn  Zn122  1  0.81267883  0.81205103  0.81541076  1
  Zn  Zn123  1  0.18714471  0.43686495  0.43668116  1
  Zn  Zn124  1  0.18317752  0.44327941  0.93783443  1
  Zn  Zn125  1  0.19320005  0.94008567  0.43844853  1
  Zn  Zn126  1  0.19211412  0.93738857  0.93551979  1
  Zn  Zn127  1  0.67248753  0.42008057  0.42734118  1
  Zn  Zn128  1  0.68012669  0.44851514  0.93705196  1
  Zn  Zn129  1  0.68859559  0.94170999  0.43299612  1
  Zn  Zn130  1  0.70130873  0.94207404  0.94332857  1
  Zn  Zn131  1  0.35913624  0.04360758  0.08730879  1
  Zn  Zn132  1  0.31598182  0.06060991  0.55834157  1
  Zn  Zn133  1  0.30522323  0.56424125  0.06103919  1
  Zn  Zn134  1  0.31330812  0.56250571  0.56165829  1
  Zn  Zn135  1  0.81765184  0.06354549  0.06826052  1
  Zn  Zn136  1  0.81113347  0.06509973  0.56365381  1
  Zn  Zn137  1  0.81059430  0.56476575  0.05924934  1
  Zn  Zn138  1  0.81342202  0.56071561  0.47398159  1
  Zn  Zn139  1  0.44347733  0.42565443  0.19001668  1
  Zn  Zn140  1  0.43548736  0.43958511  0.68586448  1
  Zn  Zn141  1  0.43930277  0.93324303  0.19229458  1
  Zn  Zn142  1  0.43850211  0.93611070  0.69203663  1
  Zn  Zn143  1  0.94128660  0.42761508  0.18848845  1
  Zn  Zn144  1  0.93497648  0.43719689  0.68568906  1
  Zn  Zn145  1  0.93454708  0.94667462  0.17878964  1
  Zn  Zn146  1  0.93482391  0.93972001  0.68152205  1
  Zn  Zn147  1  0.06423237  0.05682879  0.31060817  1
  Zn  Zn148  1  0.06118246  0.06099054  0.81511869  1
  Zn  Zn149  1  -0.02568957  0.55702796  0.32746760  1
  Zn  Zn150  1  0.06021100  0.56614086  0.81174385  1
  Zn  Zn151  1  0.56495769  0.07698260  0.30119244  1
  Zn  Zn152  1  0.58681026  0.03740294  0.85432257  1
  Zn  Zn153  1  0.56066008  0.55635615  0.30676821  1
  Zn  Zn154  1  0.55819126  0.55892268  0.81043388  1
  Zn  Zn155  1  0.44312023  0.18094567  0.43787635  1
  Zn  Zn156  1  0.44056392  0.18580313  0.94397689  1
  Zn  Zn157  1  0.43527910  0.68465593  0.43423515  1
  Zn  Zn158  1  0.43209871  0.68429228  0.93460479  1
  Zn  Zn159  1  0.93568851  0.18940867  0.43951285  1
  Zn  Zn160  1  0.93739410  0.19255254  0.94277906  1
  Zn  Zn161  1  0.91267315  0.70007256  0.40295961  1
  Zn  Zn162  1  0.93979511  0.68719177  1.05408891  1
  Zn  Zn163  1  0.05904250  0.31080738  0.05922368  1
  Zn  Zn164  1  0.06585938  0.30781226  0.56171966  1
  Zn  Zn165  1  0.06806508  0.82366352  0.05997371  1
  Zn  Zn166  1  0.06133933  0.81474552  0.56080498  1
  Zn  Zn167  1  0.55980388  0.31884095  0.06893645  1
  Zn  Zn168  1  0.56374159  0.30559085  0.55305339  1
  Zn  Zn169  1  0.58947265  0.77952290  0.10783754  1
  Zn  Zn170  1  0.56529396  0.81495104  0.56949844  1
  O  O171  1  0.11701441  0.12906286  0.11557711  1
  O  O172  1  0.11852310  0.12455803  0.61692959  1
  O  O173  1  0.13898745  0.60981413  0.12523897  1
  O  O174  1  0.12027761  0.62162205  0.61665635  1
  O  O175  1  0.62482427  0.12104978  0.12318079  1
  O  O176  1  0.61744856  0.12216785  0.62431553  1
  O  O177  1  0.62913554  0.61006629  0.11983933  1
  O  O178  1  0.61231404  0.61765216  0.61746572  1
  O  O179  1  0.36857672  0.38773298  0.38143167  1
  O  O180  1  0.37891573  0.37888276  0.88055189  1
  O  O181  1  0.37875114  0.88522995  0.38299220  1
  O  O182  1  0.36586587  0.88077887  0.88438518  1
  O  O183  1  0.89430081  0.36310744  0.37456164  1
  O  O184  1  0.89737602  0.38450494  0.85360949  1
  O  O185  1  0.87615991  0.88853986  0.38572977  1
  O  O186  1  0.86940941  0.87852522  0.89309774  1
  O  O187  1  0.26063414  0.00706005  0.37205301  1
  O  O188  1  0.25794733  0.00679459  0.86729247  1
  O  O189  1  0.25513375  0.50034158  0.36640751  1
  O  O190  1  0.24692113  0.51461581  0.87230003  1
  O  O191  1  0.75926910  -0.00481550  0.35747017  1
  O  O192  1  0.75905266  0.01180773  0.86489991  1
  O  O193  1  0.75391086  0.49719116  0.39491927  1
  O  O194  1  0.74755248  0.51508875  0.85614806  1
  O  O195  1  0.24353113  0.48822049  0.12905993  1
  O  O196  1  0.24462942  0.49362462  0.62618425  1
  O  O197  1  0.26849073  0.99128167  0.13817485  1
  O  O198  1  0.24782704  0.99345353  0.62836109  1
  O  O199  1  0.73712382  0.49218507  0.10582565  1
  O  O200  1  0.74018398  0.48837064  0.63195252  1
  O  O201  1  0.75653135  0.99221563  0.13869343  1
  O  O202  1  0.75334020  1.00170601  0.64049371  1
  O  O203  1  0.01558527  0.37584469  0.26559898  1
  O  O204  1  0.01155490  0.37014320  0.74957069  1
  O  O205  1  0.00877318  0.88367712  0.23369414  1
  O  O206  1  0.01042241  0.87217940  0.73958311  1
  O  O207  1  0.49343088  0.34546859  0.25159535  1
  O  O208  1  0.50039847  0.37059524  0.75574447  1
  O  O209  1  0.50987256  0.86687466  0.25171990  1
  O  O210  1  0.49982152  0.85902174  0.74783476  1
  O  O211  1  0.52534704  0.17467823  0.26105058  1
  O  O212  1  0.49053254  0.13686007  0.74051523  1
  O  O213  1  0.48638293  0.62909450  0.25304642  1
  O  O214  1  0.49300782  0.62974370  0.74312863  1
  O  O215  1  1.00276865  0.11933021  0.23548611  1
  O  O216  1  0.99528730  0.12960184  0.74446682  1
  O  O217  1  0.99390167  0.63961399  0.25909403  1
  O  O218  1  0.99259101  0.63290466  0.74232114  1
  O  O219  1  0.36476150  0.26406122  -0.00369649  1
  O  O220  1  0.37084040  0.25308822  0.50368336  1
  O  O221  1  0.37586549  0.75609121  0.00411378  1
  O  O222  1  0.36756305  0.75682514  0.49997121  1
  O  O223  1  0.88549109  0.26050671  0.01637850  1
  O  O224  1  0.86071006  0.24235601  0.51237651  1
  O  O225  1  0.87472378  0.76482146  -0.00283212  1
  O  O226  1  0.86337225  0.75717836  0.50004044  1
  O  O227  1  0.13497525  0.24324308  0.49103312  1
  O  O228  1  0.12987710  0.24348188  0.99214706  1
  O  O229  1  0.13347689  0.74556891  0.49890757  1
  O  O230  1  0.13196005  0.75189150  0.98446931  1
  O  O231  1  0.64209313  0.23705784  0.50561789  1
  O  O232  1  0.61845866  0.25549705  0.98856773  1
  O  O233  1  0.63299058  0.74271554  0.50760761  1
  O  O234  1  0.61843826  0.76000154  0.99707204  1
  O  O235  1  0.47848477  0.24902428  0.11567841  1
  O  O236  1  0.49440522  0.24457097  0.62846471  1
  O  O237  1  0.48394866  0.75135183  0.13900525  1
  O  O238  1  0.49748472  0.74022572  0.63185815  1
  O  O239  1  1.00309545  0.23728416  0.12541652  1
  O  O240  1  0.99260979  0.24409566  0.62779859  1
  O  O241  1  1.04079201  0.72028634  0.09753617  1
  O  O242  1  0.98917864  0.74724769  0.62547595  1
  O  O243  1  0.01330682  0.25753781  0.38440804  1
  O  O244  1  0.00649037  0.25873405  0.86931414  1
  O  O245  1  0.01628688  0.75727512  0.39238576  1
  O  O246  1  0.01480673  0.75282561  0.86122956  1
  O  O247  1  0.51064965  0.25795798  0.39358100  1
  O  O248  1  0.50274897  0.26100655  0.86951174  1
  O  O249  1  0.49294547  0.75290211  0.36124076  1
  O  O250  1  0.50493543  0.75063882  0.87125642  1
  O  O251  1  0.24551068  0.12733300  0.48964723  1
  O  O252  1  0.24008797  0.13130515  0.98917893  1
  O  O253  1  0.24433488  0.63427922  0.50198958  1
  O  O254  1  0.23452941  0.62987711  0.99307009  1
  O  O255  1  0.74238647  0.13641715  0.50370058  1
  O  O256  1  0.75298399  0.11999670  0.98813292  1
  O  O257  1  0.73729677  0.63968010  0.50657812  1
  O  O258  1  0.74989613  0.62458546  0.97760575  1
  O  O259  1  0.25218155  0.37368952  0.00590721  1
  O  O260  1  0.25695996  0.36836946  0.50479909  1
  O  O261  1  0.26178209  0.87598294  0.00536387  1
  O  O262  1  0.25766345  0.87052816  0.50975459  1
  O  O263  1  0.76604004  0.38078986  -0.05464201  1
  O  O264  1  0.74007536  0.36096044  0.51191902  1
  O  O265  1  0.75941138  0.87191163  0.01111174  1
  O  O266  1  0.75393488  0.86567123  0.50015044  1
  O  O267  1  0.13408284  0.48924433  0.24179353  1
  O  O268  1  0.12597858  0.49474410  0.74156982  1
  O  O269  1  0.14525216  0.99467155  0.26018012  1
  O  O270  1  0.12987701  0.99361083  0.74779825  1
  O  O271  1  0.62152714  0.50328975  0.22981266  1
  O  O272  1  0.62771683  0.49389827  0.74028605  1
  O  O273  1  0.63767681  0.99730863  0.25343940  1
  O  O274  1  0.63749488  0.99803997  0.75630471  1
  O  O275  1  0.36604962  -0.00730764  0.26814404  1
  O  O276  1  0.36461459  0.00549690  0.75160119  1
  O  O277  1  0.37291572  0.49972659  0.25417426  1
  O  O278  1  0.37355762  0.51371339  0.75123924  1
  O  O279  1  0.86585192  0.00599902  0.25535280  1
  O  O280  1  0.87504456  0.01316649  0.75159891  1
  O  O281  1  0.89250560  0.49816653  0.26330619  1
  O  O282  1  0.86416867  0.51012009  0.74207091  1
  O  O283  1  0.12604826  0.36360890  0.36984910  1
  O  O284  1  0.11931090  0.37211554  0.86648192  1
  O  O285  1  0.13069029  0.86304818  0.38106975  1
  O  O286  1  0.13690325  0.86836777  0.85765370  1
  O  O287  1  0.61024104  0.36822858  0.35252023  1
  O  O288  1  0.61351818  0.37112482  0.86684183  1
  O  O289  1  0.62726547  0.87753185  0.35840706  1
  O  O290  1  0.62724753  0.86867775  0.87529752  1
  O  O291  1  0.35203812  0.15209212  0.11524952  1
  O  O292  1  0.38133275  0.13006333  0.62684310  1
  O  O293  1  0.36578453  0.63244653  0.13235255  1
  O  O294  1  0.38531068  0.62537507  0.62984467  1
  O  O295  1  0.88823443  0.13843371  0.12465893  1
  O  O296  1  0.87991366  0.13363798  0.63242084  1
  O  O297  1  0.86436297  0.64000040  0.11983083  1
  O  O298  1  0.88286232  0.63694608  0.63148885  1
  O  O299  1  0.24823511  0.26372938  0.11870604  1
  O  O300  1  0.25729549  0.25365042  0.61842850  1
  O  O301  1  0.26899840  0.76445022  0.12129510  1
  O  O302  1  0.25367972  0.75882277  0.61536224  1
  O  O303  1  0.76157867  0.24854210  0.11500610  1
  O  O304  1  0.75672531  0.25618775  0.62757296  1
  O  O305  1  0.73965186  0.76194374  0.12257075  1
  O  O306  1  0.76056025  0.75264031  0.61806759  1
  O  O307  1  0.24721885  0.24127991  0.37925359  1
  O  O308  1  0.24384002  0.24471068  0.87785715  1
  O  O309  1  0.24481560  0.75052175  0.38810231  1
  O  O310  1  0.24308498  0.73884939  0.87146474  1
  O  O311  1  0.75994657  0.25664258  0.38924174  1
  O  O312  1  0.73654597  0.23958111  0.86402693  1
  O  O313  1  0.73924412  0.74816338  0.39052177  1
  O  O314  1  0.74993126  0.73524208  0.87279476  1
  O  O315  1  0.01010350  0.12376580  0.00594599  1
  O  O316  1  0.00600344  0.11970877  0.50445186  1
  O  O317  1  0.01113224  0.61192730  -0.00715283  1
  O  O318  1  0.00984450  0.60954806  0.50786944  1
  O  O319  1  0.50372955  0.12031852  0.00488062  1
  O  O320  1  0.51828783  0.12921473  0.51102840  1
  O  O321  1  0.48863962  0.60623670  -0.00563942  1
  O  O322  1  0.50229944  0.61769621  0.50609049  1
  O  O323  1  0.49399033  0.38816648  0.50908745  1
  O  O324  1  0.48789188  0.38093378  0.99174029  1
  O  O325  1  0.48999375  0.86855090  0.49891680  1
  O  O326  1  0.49875446  0.87406840  0.98932368  1
  O  O327  1  1.00530386  0.37615971  0.49361721  1
  O  O328  1  1.00865697  0.38648374  0.98718454  1
  O  O329  1  0.98853879  0.88653951  0.50669630  1
  O  O330  1  0.98654557  0.88539071  1.01053529  1
  O  O331  1  0.48991496  0.50283130  0.38382558  1
  O  O332  1  0.49663801  0.48813119  0.88047991  1
  O  O333  1  0.48967755  1.00275590  0.36481654  1
  O  O334  1  0.48071116  0.99847179  0.85416201  1
  O  O335  1  1.01300636  0.47701452  0.39438765  1
  O  O336  1  1.00354462  0.49429718  0.88191930  1
  O  O337  1  0.99403728  1.00298052  0.38597611  1
  O  O338  1  0.99737530  1.00805314  0.89249010  1
  O  O339  1  -0.00532863  0.02038907  0.10947303  1
  O  O340  1  -0.00103112  0.00960334  0.61248684  1
  O  O341  1  0.01145532  0.49159043  0.11742715  1
  O  O342  1  0.01100156  0.50088055  0.62195925  1
  O  O343  1  0.46838899  0.02247496  0.13020994  1
  O  O344  1  0.49907288  0.01357477  0.63126298  1
  O  O345  1  0.49005294  0.49875907  0.11316026  1
  O  O346  1  0.50256530  0.50712923  0.61667468  1
  O  O347  1  0.24275372  0.38334052  0.24305818  1
  O  O348  1  0.24276314  0.37680209  0.74366015  1
  O  O349  1  0.25262598  0.88059028  0.24164875  1
  O  O350  1  0.24659775  0.87783624  0.73721736  1
  O  O351  1  0.76341850  0.41708760  0.26276480  1
  O  O352  1  0.74341310  0.38477212  0.74513008  1
  O  O353  1  0.74594795  0.88174365  0.23993728  1
  O  O354  1  0.75327503  0.88565806  0.75051891  1
  O  O355  1  0.24877593  0.11792076  0.26231636  1
  O  O356  1  0.25540227  0.12174953  0.75568514  1
  O  O357  1  0.26164616  0.60745199  0.25217447  1
  O  O358  1  0.25655155  0.62603248  0.75392201  1
  O  O359  1  0.75350551  0.11454606  0.24533026  1
  O  O360  1  0.75986682  0.12022390  0.75679258  1
  O  O361  1  0.76357229  0.59977862  0.25493247  1
  O  O362  1  0.75428873  0.62046295  0.74805734  1
  O  O363  1  0.37017049  0.11180037  0.38196973  1
  O  O364  1  0.36855072  0.11953472  0.86938959  1
  O  O365  1  0.37021747  0.61201907  0.36764005  1
  O  O366  1  0.36305289  0.62344785  0.86632595  1
  O  O367  1  0.88113559  0.11382167  0.37344277  1
  O  O368  1  0.87016478  0.13126637  0.86804192  1
  O  O369  1  0.87836991  0.59547934  0.38674669  1
  O  O370  1  0.86849972  0.62109780  0.85557883  1
  O  O371  1  0.12888789  0.37781022  0.13228002  1
  O  O372  1  0.13251024  0.37847911  0.62885883  1
  O  O373  1  0.14743955  0.87578956  0.12199072  1
  O  O374  1  0.13417727  0.87739202  0.63207475  1
  O  O375  1  0.61382633  0.39518638  0.12838300  1
  O  O376  1  0.63041645  0.37561093  0.62871595  1
  O  O377  1  0.64018946  0.88155271  0.13619249  1
  O  O378  1  0.62914865  0.88240559  0.63225559  1
  O  O379  1  0.13521540  0.25644222  0.26191105  1
  O  O380  1  0.11975198  0.25572838  0.75400400  1
  O  O381  1  0.13173267  0.75487255  0.27214627  1
  O  O382  1  0.12037733  0.75863827  0.74935741  1
  O  O383  1  0.64841973  0.27061510  0.25332962  1
  O  O384  1  0.61527601  0.25678078  0.75558110  1
  O  O385  1  0.61446255  0.75471516  0.23348090  1
  O  O386  1  0.61380616  0.74812448  0.74382968  1
  O  O387  1  0.36222024  0.25193075  0.23480383  1
  O  O388  1  0.37993672  0.24602736  0.74337535  1
  O  O389  1  0.37700358  0.73897957  0.24529983  1
  O  O390  1  0.38290536  0.73821456  0.74830673  1
  O  O391  1  0.87048489  0.24934460  0.23283920  1
  O  O392  1  0.88301857  0.23878131  0.74275357  1
  O  O393  1  0.87887792  0.75214733  0.29831951  1
  O  O394  1  0.87818662  0.74692310  0.74002332  1
  O  O395  1  0.38113892  0.49643305  0.49178709  1
  O  O396  1  0.37624006  0.48962566  0.99882297  1
  O  O397  1  0.37301900  0.98992013  0.48651926  1
  O  O398  1  0.38323735  0.98866333  0.98762516  1
  O  O399  1  0.88989392  0.49087008  0.52289684  1
  O  O400  1  0.88675134  0.49647600  0.99783266  1
  O  O401  1  0.87750812  0.99548464  0.49431445  1
  O  O402  1  0.88065879  0.99254436  0.99875615  1
  O  O403  1  0.12147211  0.01046956  -0.00593456  1
  O  O404  1  0.11672910  0.00485670  0.49897883  1
  O  O405  1  0.11972291  0.50906751  0.01062206  1
  O  O406  1  0.12595718  0.50718597  0.50787046  1
  O  O407  1  0.61391749  0.00780773  -0.03212771  1
  O  O408  1  0.63774132  0.01514606  0.50605466  1
  O  O409  1  0.60543427  0.49708876  0.00743821  1
  O  O410  1  0.61586979  0.50358841  0.50173048  1
  O  O411  1  0.36474168  0.36714978  0.11705725  1
  O  O412  1  0.36939102  0.36990497  0.61830935  1
  O  O413  1  0.37501023  0.87070297  0.11050737  1
  O  O414  1  0.36847644  0.87580013  0.61750651  1
  O  O415  1  0.87737975  0.36166697  0.12570293  1
  O  O416  1  0.86485932  0.36069847  0.63324419  1
  O  O417  1  0.86093458  0.87704408  0.11607222  1
  O  O418  1  0.87125391  0.86839735  0.61212581  1
  O  O419  1  0.13238085  0.13047311  0.37820110  1
  O  O420  1  0.13101809  0.13075117  0.87961407  1
  O  O421  1  0.13023993  0.63837359  0.39144171  1
  O  O422  1  0.12858992  0.63580544  0.87501375  1
  O  O423  1  0.62582172  0.11953322  0.39133229  1
  O  O424  1  0.63666031  0.13892363  0.87512097  1
  O  O425  1  0.61637165  0.62127057  0.38589755  1
  O  O426  1  0.63381727  0.62415210  0.86616194  1
