# generated using pymatgen
data_V85Zn86O256
_symmetry_space_group_name_H-M   'P 1'
_cell_length_a   16.94416260
_cell_length_b   16.94060067
_cell_length_c   16.92748896
_cell_angle_alpha   89.98866597
_cell_angle_beta   89.96796269
_cell_angle_gamma   90.07817159
_symmetry_Int_Tables_number   1
_chemical_formula_structural   V85Zn86O256
_chemical_formula_sum   'V85 Zn86 O256'
_cell_volume   4858.93370965
_cell_formula_units_Z   1
loop_
 _symmetry_equiv_pos_site_id
 _symmetry_equiv_pos_as_xyz
  1  'x, y, z'
loop_
 _atom_site_type_symbol
 _atom_site_label
 _atom_site_symmetry_multiplicity
 _atom_site_fract_x
 _atom_site_fract_y
 _atom_site_fract_z
 _atom_site_occupancy
  V  V0  1  0.25784854  0.24625367  0.00386578  1
  V  V1  1  0.12642342  0.38156867  0.24492805  1
  V  V2  1  0.37831422  0.75054787  0.62463489  1
  V  V3  1  0.62389474  0.00460669  0.62135204  1
  V  V4  1  0.87311807  0.87582059  0.49333694  1
  V  V5  1  -0.00192755  0.75400309  0.74998897  1
  V  V6  1  0.62364466  0.12394747  0.00156302  1
  V  V7  1  0.37657084  0.49717229  0.37482408  1
  V  V8  1  0.61173367  0.25099841  0.86989219  1
  V  V9  1  0.62404220  0.75667103  0.37199151  1
  V  V10  1  0.12363472  0.62504751  0.49912479  1
  V  V11  1  0.87234381  -0.00143081  0.88036695  1
  V  V12  1  0.86982631  0.49763806  0.87987560  1
  V  V13  1  0.12528979  0.00087137  0.62549435  1
  V  V14  1  0.61891827  0.87677797  0.75446629  1
  V  V15  1  0.25003101  0.37325006  0.62351343  1
  V  V16  1  0.87427897  0.13367500  0.23520754  1
  V  V17  1  0.12511817  0.49953601  0.62424356  1
  V  V18  1  0.92378948  0.31747258  0.05768892  1
  V  V19  1  0.36851377  0.00362229  0.36710963  1
  V  V20  1  -0.00190843  0.62579306  0.62359296  1
  V  V21  1  0.75123142  0.37685115  0.63883540  1
  V  V22  1  0.86101473  0.87140868  0.00642822  1
  V  V23  1  0.63345026  0.62590104  -0.00000358  1
  V  V24  1  0.87386185  0.75149869  0.62322509  1
  V  V25  1  0.12658427  0.12782795  0.49811816  1
  V  V26  1  0.02125329  0.62775356  0.12522807  1
  V  V27  1  0.00029963  0.87749022  0.36872487  1
  V  V28  1  0.87331059  0.12324590  0.75065898  1
  V  V29  1  -0.00371434  0.75139614  0.25021418  1
  V  V30  1  -0.00081405  0.49916228  0.49985951  1
  V  V31  1  0.12184030  0.73435022  0.88162303  1
  V  V32  1  0.38085725  0.12521229  0.75358942  1
  V  V33  1  0.12553193  0.75647245  0.37446911  1
  V  V34  1  0.62541318  0.49039485  0.13239720  1
  V  V35  1  0.50071035  0.00741518  0.49774259  1
  V  V36  1  0.25132735  0.50648213  0.23976108  1
  V  V37  1  0.37911870  0.75644038  0.10938865  1
  V  V38  1  0.74392630  0.13128043  0.38841834  1
  V  V39  1  0.63013686  0.50692312  0.62751288  1
  V  V40  1  0.00026030  0.12594847  0.62494606  1
  V  V41  1  0.87273475  0.00584547  0.37181142  1
  V  V42  1  0.60691995  0.37626096  0.75401545  1
  V  V43  1  0.86856976  0.62132700  0.24414097  1
  V  V44  1  0.36968886  0.13198976  0.24110381  1
  V  V45  1  0.37499782  0.62415029  0.74701845  1
  V  V46  1  0.86906730  0.61962216  0.75188255  1
  V  V47  1  0.50412327  0.50085750  -0.00683363  1
  V  V48  1  -0.00501486  0.37478589  0.87514133  1
  V  V49  1  0.86658485  0.36981419  0.49931763  1
  V  V50  1  0.37509427  0.49648442  0.87560122  1
  V  V51  1  0.87264874  0.49925613  0.37740973  1
  V  V52  1  0.74493806  -0.00282373  0.24848758  1
  V  V53  1  0.25120429  0.74891090  0.50047443  1
  V  V54  1  0.37748300  -0.01527038  0.87864835  1
  V  V55  1  0.50483112  0.13328365  0.62550563  1
  V  V56  1  0.62416764  0.25330141  0.39130269  1
  V  V57  1  0.74899950  0.87693333  0.62547850  1
  V  V58  1  0.74168062  0.62113262  0.38001548  1
  V  V59  1  0.00422201  0.88237313  0.88469536  1
  V  V60  1  0.51029367  0.25342178  0.24210764  1
  V  V61  1  0.74556826  0.25791198  0.00259546  1
  V  V62  1  0.24861607  0.50550671  0.75424717  1
  V  V63  1  0.74075557  0.74795006  0.49853306  1
  V  V64  1  0.49810953  0.75118915  0.76184176  1
  V  V65  1  0.38271387  0.37153019  -0.00290863  1
  V  V66  1  0.00882267  0.50833006  0.00520523  1
  V  V67  1  0.49673910  -0.01269340  -0.00243539  1
  V  V68  1  0.11324461  0.11272221  0.00881763  1
  V  V69  1  0.37666047  0.24966282  0.62827714  1
  V  V70  1  0.25069293  0.62439480  0.37444260  1
  V  V71  1  0.12032989  -0.01146958  0.14712313  1
  V  V72  1  0.12541165  0.37319728  0.75107104  1
  V  V73  1  0.86972447  0.24800078  0.62192386  1
  V  V74  1  0.50014739  0.75696149  0.24976769  1
  V  V75  1  0.00013825  0.37487017  0.37392470  1
  V  V76  1  0.63089668  0.75117281  0.87888247  1
  V  V77  1  0.25015523  0.87698612  0.62413147  1
  V  V78  1  0.37677814  0.87734746  0.49632831  1
  V  V79  1  0.12620593  0.25127692  0.37045035  1
  V  V80  1  0.25164996  0.12015390  0.87840598  1
  V  V81  1  0.12650656  0.24732596  0.87554963  1
  V  V82  1  0.50617034  0.50416574  0.50046509  1
  V  V83  1  0.25754118  0.37697840  0.12281719  1
  V  V84  1  0.62616349  -0.01113346  0.12929257  1
  Zn  Zn85  1  0.50667508  0.37769865  0.37049578  1
  Zn  Zn86  1  0.25290412  0.25037154  0.49666937  1
  Zn  Zn87  1  0.24892478  0.87612760  0.12722431  1
  Zn  Zn88  1  0.50357605  0.62405485  0.12693412  1
  Zn  Zn89  1  0.75181749  0.62430357  0.87649408  1
  Zn  Zn90  1  0.50545441  0.88243878  0.37127146  1
  Zn  Zn91  1  0.50860700  0.63007404  0.62021142  1
  Zn  Zn92  1  0.86158960  0.74410006  0.11306879  1
  Zn  Zn93  1  0.24945424  0.74352416  -0.00879985  1
  Zn  Zn94  1  0.74702631  0.12622642  0.87403004  1
  Zn  Zn95  1  0.49692380  0.12470701  0.12331286  1
  Zn  Zn96  1  0.74103770  0.49019641  0.25746375  1
  Zn  Zn97  1  0.74843560  0.36595853  0.13373980  1
  Zn  Zn98  1  0.37955506  0.62664747  0.24739751  1
  Zn  Zn99  1  -0.00030297  0.00086559  0.49816248  1
  Zn  Zn100  1  0.12404473  0.87544498  0.75158025  1
  Zn  Zn101  1  0.37916464  0.37282711  0.49931018  1
  Zn  Zn102  1  0.74720224  0.00055605  0.75088453  1
  Zn  Zn103  1  -0.00320031  0.25041778  0.23764982  1
  Zn  Zn104  1  0.24584077  0.12129601  0.36755145  1
  Zn  Zn105  1  -0.00048544  0.24990503  0.75051626  1
  Zn  Zn106  1  0.25124177  -0.00189911  0.75293708  1
  Zn  Zn107  1  0.18764781  0.18884159  0.18362253  1
  Zn  Zn108  1  0.19144484  0.18648063  0.69045124  1
  Zn  Zn109  1  0.20166963  0.72047188  0.20197855  1
  Zn  Zn110  1  0.18594488  0.68851718  0.68998565  1
  Zn  Zn111  1  0.68689673  0.18205415  0.18747848  1
  Zn  Zn112  1  0.68831656  0.19144272  0.68785670  1
  Zn  Zn113  1  0.68410041  0.68176128  0.18709063  1
  Zn  Zn114  1  0.68903563  0.69057482  0.69123231  1
  Zn  Zn115  1  0.31500656  0.31162285  0.30912828  1
  Zn  Zn116  1  0.31570274  0.31152645  0.81240782  1
  Zn  Zn117  1  0.31486484  0.81923646  0.30721061  1
  Zn  Zn118  1  0.30593220  0.80978592  0.81106195  1
  Zn  Zn119  1  0.80700159  0.31033331  0.31040485  1
  Zn  Zn120  1  0.81098349  0.30816784  0.81666196  1
  Zn  Zn121  1  0.78847645  0.79369744  0.27542008  1
  Zn  Zn122  1  0.81127508  0.81496201  0.81378615  1
  Zn  Zn123  1  0.19028442  0.43758753  0.43512655  1
  Zn  Zn124  1  0.18894310  0.43836614  0.93688478  1
  Zn  Zn125  1  0.18676387  0.93957360  0.43611546  1
  Zn  Zn126  1  0.19239945  0.93038795  0.94897267  1
  Zn  Zn127  1  0.68659416  0.43233103  0.44350923  1
  Zn  Zn128  1  0.68602896  0.43511034  0.93580756  1
  Zn  Zn129  1  0.68781641  0.94038013  0.43633306  1
  Zn  Zn130  1  0.68566031  0.93878274  0.93597087  1
  Zn  Zn131  1  0.30784367  0.05308309  0.06676345  1
  Zn  Zn132  1  0.31294389  0.06452046  0.55963707  1
  Zn  Zn133  1  0.31378218  0.57454975  0.06121102  1
  Zn  Zn134  1  0.31543844  0.56095237  0.56187446  1
  Zn  Zn135  1  0.80720088  0.06037220  0.05929802  1
  Zn  Zn136  1  0.81105410  0.06178692  0.56187280  1
  Zn  Zn137  1  0.81192538  0.55395529  0.06066938  1
  Zn  Zn138  1  0.80965853  0.56128841  0.56338210  1
  Zn  Zn139  1  0.43963045  0.43620771  0.18514421  1
  Zn  Zn140  1  0.43801831  0.44008556  0.68316470  1
  Zn  Zn141  1  0.43975380  0.93737178  0.18772552  1
  Zn  Zn142  1  0.43807454  0.93969268  0.68904846  1
  Zn  Zn143  1  0.94299622  0.44758220  0.19088489  1
  Zn  Zn144  1  0.93647625  0.43693330  0.68986823  1
  Zn  Zn145  1  0.94069540  0.94519589  0.18273178  1
  Zn  Zn146  1  0.93754098  0.93918485  0.68882619  1
  Zn  Zn147  1  0.05617038  0.06618814  0.30635722  1
  Zn  Zn148  1  0.06286434  0.06136816  0.81322488  1
  Zn  Zn149  1  0.06356424  0.56425199  0.31011033  1
  Zn  Zn150  1  0.05384737  0.55893152  0.80955628  1
  Zn  Zn151  1  0.56047436  0.07015685  0.31101520  1
  Zn  Zn152  1  0.56023842  0.06305220  0.81384053  1
  Zn  Zn153  1  0.56125084  0.56864517  0.31413150  1
  Zn  Zn154  1  0.56120398  0.56365399  0.81193064  1
  Zn  Zn155  1  0.43776176  0.18750404  0.43578950  1
  Zn  Zn156  1  0.43918202  0.18254753  0.93858569  1
  Zn  Zn157  1  0.43954475  0.68484393  0.43558369  1
  Zn  Zn158  1  0.41433842  0.67002315  0.94744508  1
  Zn  Zn159  1  0.93948260  0.18840079  0.43430521  1
  Zn  Zn160  1  0.93880682  0.18279892  0.93333684  1
  Zn  Zn161  1  0.93134443  0.68869347  0.43373231  1
  Zn  Zn162  1  0.93852977  0.68921870  0.93998039  1
  Zn  Zn163  1  0.08706268  0.31540693  0.05944315  1
  Zn  Zn164  1  0.05915132  0.31066199  0.56114474  1
  Zn  Zn165  1  0.06089597  0.81253574  0.06216809  1
  Zn  Zn166  1  0.06083388  0.81537444  0.55883658  1
  Zn  Zn167  1  0.56101143  0.31070789  0.06015160  1
  Zn  Zn168  1  0.56165446  0.31948563  0.56345841  1
  Zn  Zn169  1  0.56511970  0.81040345  0.06204881  1
  Zn  Zn170  1  0.56055352  0.81726941  0.56421619  1
  O  O171  1  0.13047150  0.11951872  0.11242975  1
  O  O172  1  0.12260346  0.12077903  0.61909330  1
  O  O173  1  0.11756969  0.63919114  0.13370865  1
  O  O174  1  0.11805328  0.62052136  0.61933387  1
  O  O175  1  0.62137446  0.11602712  0.11517313  1
  O  O176  1  0.61596176  0.11839774  0.63328048  1
  O  O177  1  0.62251131  0.61457415  0.11637663  1
  O  O178  1  0.62917413  0.61084297  0.63389984  1
  O  O179  1  0.37308932  0.38726071  0.37693091  1
  O  O180  1  0.37059565  0.38674711  0.88041311  1
  O  O181  1  0.37822734  0.88480938  0.37839341  1
  O  O182  1  0.37072135  0.88595685  0.86642757  1
  O  O183  1  0.87867495  0.37722080  0.38345261  1
  O  O184  1  0.88752961  0.38020344  0.86947501  1
  O  O185  1  0.87905858  0.88506559  0.38455618  1
  O  O186  1  0.88211674  0.88060753  0.88041337  1
  O  O187  1  0.26374579  0.00127857  0.37827141  1
  O  O188  1  0.25797138  0.00547000  0.87765580  1
  O  O189  1  0.25666733  0.50504304  0.36565492  1
  O  O190  1  0.25610159  0.49549927  0.86143002  1
  O  O191  1  0.75289683  0.01445279  0.37317980  1
  O  O192  1  0.75723497  0.00364887  0.87016061  1
  O  O193  1  0.75328717  0.50553223  0.38166663  1
  O  O194  1  0.76601104  0.49904795  0.88114785  1
  O  O195  1  0.25845044  0.50050919  0.13412653  1
  O  O196  1  0.24521255  0.49317959  0.63269351  1
  O  O197  1  0.22929131  0.99392437  0.12052368  1
  O  O198  1  0.24380962  0.99346308  0.62404721  1
  O  O199  1  0.73339127  0.49619522  0.12350687  1
  O  O200  1  0.74259884  0.48988008  0.62274584  1
  O  O201  1  0.73539784  1.00441543  0.13260226  1
  O  O202  1  0.74044195  0.99629611  0.62618612  1
  O  O203  1  0.00992287  0.37511949  0.25336877  1
  O  O204  1  0.00817361  0.37477073  0.75874782  1
  O  O205  1  -0.01399525  0.86683375  0.26175146  1
  O  O206  1  -0.00156520  0.86782784  0.75848300  1
  O  O207  1  0.49222053  0.35738008  0.25297854  1
  O  O208  1  0.50878696  0.37215677  0.74569562  1
  O  O209  1  0.50207750  0.86274953  0.25409697  1
  O  O210  1  0.50847012  0.86600610  0.74390649  1
  O  O211  1  0.49084028  0.13677992  0.24725168  1
  O  O212  1  0.48786074  0.12148883  0.74173076  1
  O  O213  1  0.49986695  0.63827941  0.24911128  1
  O  O214  1  0.49367056  0.63321725  0.74224530  1
  O  O215  1  0.98008500  0.13233508  0.25358819  1
  O  O216  1  0.98956915  0.12484066  0.74434266  1
  O  O217  1  0.99285303  0.62653411  0.23970243  1
  O  O218  1  0.99050060  0.63329581  0.74217452  1
  O  O219  1  0.36841990  0.25775465  -0.00868781  1
  O  O220  1  0.37261098  0.25064060  0.51193077  1
  O  O221  1  0.40171577  0.76510331  0.01238937  1
  O  O222  1  0.37132795  0.75599297  0.50377259  1
  O  O223  1  0.86755585  0.25069740  -0.00024927  1
  O  O224  1  0.88286869  0.25862522  0.50890956  1
  O  O225  1  0.87341631  0.76456674  -0.00152620  1
  O  O226  1  0.86564158  0.75945576  0.50228979  1
  O  O227  1  0.12575745  0.24423080  0.49136096  1
  O  O228  1  0.13876290  0.23911243  0.99278157  1
  O  O229  1  0.12992638  0.74473313  0.49478189  1
  O  O230  1  0.11689476  0.74512441  0.98450399  1
  O  O231  1  0.61999176  0.24904694  0.49043209  1
  O  O232  1  0.62916694  0.24457461  0.99158091  1
  O  O233  1  0.63607944  0.75361644  0.49843913  1
  O  O234  1  0.61937637  0.74041793  0.99032458  1
  O  O235  1  0.50488000  0.24650377  0.13765377  1
  O  O236  1  0.49421092  0.24027413  0.62055822  1
  O  O237  1  0.49884135  0.75132288  0.13707515  1
  O  O238  1  0.49317028  0.74951955  0.63090321  1
  O  O239  1  0.99222182  0.26660065  0.11458759  1
  O  O240  1  0.98967620  0.24413120  0.62818784  1
  O  O241  1  0.99068352  0.74055753  0.13331516  1
  O  O242  1  0.99276446  0.74840009  0.62969888  1
  O  O243  1  0.01158527  0.25828987  0.37267075  1
  O  O244  1  0.00539336  0.25867322  0.87448603  1
  O  O245  1  0.00364858  0.75909547  0.37436817  1
  O  O246  1  0.00477015  0.75929228  0.86771940  1
  O  O247  1  0.51295991  0.24835336  0.36982814  1
  O  O248  1  0.51219842  0.24762175  0.87666953  1
  O  O249  1  0.50797394  0.75178076  0.37032266  1
  O  O250  1  0.50757785  0.74261224  0.86275043  1
  O  O251  1  0.23696281  0.12806056  0.49738616  1
  O  O252  1  0.25114991  0.13023444  0.99166475  1
  O  O253  1  0.24448216  0.62830893  0.49534825  1
  O  O254  1  0.30058254  0.64239864  0.97460645  1
  O  O255  1  0.75230653  0.12599758  0.48724528  1
  O  O256  1  0.73761095  0.13102987  0.99679635  1
  O  O257  1  0.75810033  0.63710948  0.49252209  1
  O  O258  1  0.73782976  0.62111491  0.99857471  1
  O  O259  1  0.25797227  0.36950056  0.00413240  1
  O  O260  1  0.25028665  0.37560146  0.51374535  1
  O  O261  1  0.24324879  0.85638672  0.01088609  1
  O  O262  1  0.25504311  0.87091912  0.50829638  1
  O  O263  1  0.74729327  0.36158828  0.00280303  1
  O  O264  1  0.76348383  0.37585537  0.51200208  1
  O  O265  1  0.76220645  0.87682536  -0.00348050  1
  O  O266  1  0.75677213  0.87006822  0.50387382  1
  O  O267  1  0.13619374  0.48941650  0.25684306  1
  O  O268  1  0.13072683  0.49570027  0.74494924  1
  O  O269  1  0.12849720  1.00261666  0.24702646  1
  O  O270  1  0.12812504  1.00059881  0.73682284  1
  O  O271  1  0.61911958  0.50289171  0.23534944  1
  O  O272  1  0.61995169  0.48576399  0.74418775  1
  O  O273  1  0.62772416  1.00824488  0.23694974  1
  O  O274  1  0.62225803  0.99327099  0.74188129  1
  O  O275  1  0.38467734  0.01491158  0.25762348  1
  O  O276  1  0.37354968  0.00789159  0.75819681  1
  O  O277  1  0.36944697  0.50248025  0.25623706  1
  O  O278  1  0.36760424  0.50355286  0.75110430  1
  O  O279  1  0.86932997  0.01033530  0.25862221  1
  O  O280  1  0.87269422  0.00624117  0.75829109  1
  O  O281  1  0.87545918  0.50773463  0.26163919  1
  O  O282  1  0.88534470  0.50999473  0.76230001  1
  O  O283  1  0.12187940  0.36996198  0.36739447  1
  O  O284  1  0.11623653  0.36875052  0.87210575  1
  O  O285  1  0.11150508  0.87030049  0.38346199  1
  O  O286  1  0.11120021  0.87524796  0.87211772  1
  O  O287  1  0.62657171  0.35829318  0.37830007  1
  O  O288  1  0.62671243  0.37005902  0.86031417  1
  O  O289  1  0.62435324  0.86140661  0.38260675  1
  O  O290  1  0.62726511  0.86890258  0.86272866  1
  O  O291  1  0.37550554  0.11976918  0.13770847  1
  O  O292  1  0.37966046  0.13067624  0.63238354  1
  O  O293  1  0.38761724  0.63915317  0.12800788  1
  O  O294  1  0.37619454  0.63097519  0.63275396  1
  O  O295  1  0.86877319  0.12103192  0.13681543  1
  O  O296  1  0.87836187  0.13009846  0.62920897  1
  O  O297  1  0.87190076  0.62195629  0.13723601  1
  O  O298  1  0.87951346  0.63052206  0.63050494  1
  O  O299  1  0.24837142  0.26030909  0.11183441  1
  O  O300  1  0.25675277  0.25750454  0.62407139  1
  O  O301  1  0.27420916  0.73534920  0.11182447  1
  O  O302  1  0.25503555  0.75719135  0.62009367  1
  O  O303  1  0.74187215  0.24822816  0.10945040  1
  O  O304  1  0.76300791  0.25693344  0.62651841  1
  O  O305  1  0.76508217  0.75504397  0.16918814  1
  O  O306  1  0.75472965  0.75527973  0.61674799  1
  O  O307  1  0.23694556  0.25248174  0.37548110  1
  O  O308  1  0.24746360  0.24188932  0.88168999  1
  O  O309  1  0.24623365  0.74396487  0.38366486  1
  O  O310  1  0.22392789  0.75340051  0.86608118  1
  O  O311  1  0.73780744  0.23992216  0.37454622  1
  O  O312  1  0.74241435  0.24735468  0.88639796  1
  O  O313  1  0.74312733  0.74312918  0.37824370  1
  O  O314  1  0.73483264  0.74699036  0.86754364  1
  O  O315  1  0.01578432  0.12947045  -0.00255475  1
  O  O316  1  0.01119708  0.12450607  0.50500111  1
  O  O317  1  -0.00097467  0.62343897  0.01700861  1
  O  O318  1  0.00176988  0.62021058  0.50426626  1
  O  O319  1  0.51094845  0.11878679  0.00240733  1
  O  O320  1  0.49427652  0.11457104  0.51013213  1
  O  O321  1  0.50893654  0.61387385  -0.00022476  1
  O  O322  1  0.49702794  0.61080819  0.50274217  1
  O  O323  1  0.49751500  0.38785594  0.49598014  1
  O  O324  1  0.48795142  0.37935548  1.00211911  1
  O  O325  1  0.49283815  0.88887471  0.50012296  1
  O  O326  1  0.50692694  0.88971005  0.99865215  1
  O  O327  1  0.99171828  0.38132712  0.49528521  1
  O  O328  1  0.99448511  0.37479662  0.99953001  1
  O  O329  1  0.98912696  0.87733379  0.49095160  1
  O  O330  1  0.99122940  0.87189931  0.98589944  1
  O  O331  1  0.49458049  0.49892725  0.37969492  1
  O  O332  1  0.49340058  0.49905711  0.88477660  1
  O  O333  1  0.49482473  1.00338853  0.38294852  1
  O  O334  1  0.49276435  1.00382087  0.88847105  1
  O  O335  1  0.99462894  0.49478507  0.38002738  1
  O  O336  1  0.99413778  0.49161024  0.88278811  1
  O  O337  1  0.99001254  0.99514412  0.37493072  1
  O  O338  1  0.99185561  0.98738427  0.86887713  1
  O  O339  1  0.01970430  0.00792596  0.13184725  1
  O  O340  1  0.00780905  0.00618888  0.62201812  1
  O  O341  1  0.00342450  0.51785219  0.12085980  1
  O  O342  1  0.00595515  0.50409473  0.62001480  1
  O  O343  1  0.50846768  0.00099356  0.11535122  1
  O  O344  1  0.50500018  0.01019928  0.61960236  1
  O  O345  1  0.50934140  0.49857765  0.11370727  1
  O  O346  1  0.50997423  0.50201008  0.61799557  1
  O  O347  1  0.24823684  0.38290720  0.24109157  1
  O  O348  1  0.24534486  0.38120628  0.74043390  1
  O  O349  1  0.23382476  0.82894114  0.23413232  1
  O  O350  1  0.24558537  0.87637644  0.73530137  1
  O  O351  1  0.75194828  0.37954213  0.24591000  1
  O  O352  1  0.75197952  0.37417552  0.74067839  1
  O  O353  1  0.75126385  0.89987123  0.26880506  1
  O  O354  1  0.74129121  0.87570248  0.74114014  1
  O  O355  1  0.26482761  0.13465169  0.25042598  1
  O  O356  1  0.25927071  0.12251623  0.76225310  1
  O  O357  1  0.25168832  0.62121194  0.25725058  1
  O  O358  1  0.25795197  0.61515192  0.74298418  1
  O  O359  1  0.75932074  0.11957425  0.25915784  1
  O  O360  1  0.76260863  0.12404473  0.74929119  1
  O  O361  1  0.75496279  0.61230868  0.26208252  1
  O  O362  1  0.76564762  0.62879721  0.75156214  1
  O  O363  1  0.37164341  0.11945082  0.36671228  1
  O  O364  1  0.36985079  0.11843150  0.86875800  1
  O  O365  1  0.36754184  0.61294767  0.37556197  1
  O  O366  1  0.38594405  0.60805651  0.85303452  1
  O  O367  1  0.86480870  0.12087870  0.37370349  1
  O  O368  1  0.87406888  0.11640744  0.86738854  1
  O  O369  1  0.86506829  0.61668263  0.37090273  1
  O  O370  1  0.87717823  0.61795261  0.86901210  1
  O  O371  1  0.14245419  0.37962850  0.13287209  1
  O  O372  1  0.13050937  0.37815582  0.62975719  1
  O  O373  1  0.11542946  0.88489676  0.12966455  1
  O  O374  1  0.13084235  0.88411003  0.62278522  1
  O  O375  1  0.62365423  0.38808940  0.11896829  1
  O  O376  1  0.63252675  0.37895679  0.63696438  1
  O  O377  1  0.62492397  0.89012812  0.12205771  1
  O  O378  1  0.62894364  0.88384429  0.63347606  1
  O  O379  1  0.12198190  0.26039873  0.25273657  1
  O  O380  1  0.12408926  0.25461775  0.75703245  1
  O  O381  1  0.10284157  0.74042620  0.26407352  1
  O  O382  1  0.10956852  0.75170186  0.75207749  1
  O  O383  1  0.61254010  0.24269103  0.25738050  1
  O  O384  1  0.63019162  0.26465532  0.75649057  1
  O  O385  1  0.61322556  0.74530448  0.26096186  1
  O  O386  1  0.61687915  0.75761425  0.75349662  1
  O  O387  1  0.38678381  0.23735072  0.25638670  1
  O  O388  1  0.37072269  0.24133114  0.73809984  1
  O  O389  1  0.39264031  0.74661235  0.25499819  1
  O  O390  1  0.37932708  0.74282844  0.74702762  1
  O  O391  1  0.87526432  0.23810727  0.25002486  1
  O  O392  1  0.87743855  0.24070848  0.74399587  1
  O  O393  1  0.88894601  0.73263189  0.26743381  1
  O  O394  1  0.88339075  0.74605415  0.74588991  1
  O  O395  1  0.38142079  0.49686088  0.49216811  1
  O  O396  1  0.38195478  0.49321167  0.99092427  1
  O  O397  1  0.38183886  0.99715582  0.49290258  1
  O  O398  1  0.38874069  1.00336673  0.99528134  1
  O  O399  1  0.88031738  0.49232164  0.49620543  1
  O  O400  1  0.89015799  0.50385993  0.99112504  1
  O  O401  1  0.87464962  0.99491798  0.48948032  1
  O  O402  1  0.87097238  0.99288132  0.98740900  1
  O  O403  1  0.12392910  0.01297425  -0.00481611  1
  O  O404  1  0.12364957  0.00856652  0.50901175  1
  O  O405  1  0.10848614  0.49352201  -0.00530530  1
  O  O406  1  0.12020205  0.50462279  0.50440588  1
  O  O407  1  0.61815586  0.00553602  0.00537562  1
  O  O408  1  0.61682499  -0.00387510  0.51275192  1
  O  O409  1  0.61902584  0.50438096  0.00275278  1
  O  O410  1  0.61859354  0.49434334  0.51343399  1
  O  O411  1  0.36537838  0.37952176  0.11392652  1
  O  O412  1  0.36725157  0.36708345  0.62592302  1
  O  O413  1  0.37459094  0.85853719  0.13559149  1
  O  O414  1  0.36723873  0.87201472  0.61965431  1
  O  O415  1  0.87480935  0.38136000  0.11991388  1
  O  O416  1  0.87116395  0.36822697  0.62145734  1
  O  O417  1  0.88015099  0.87992702  0.10748765  1
  O  O418  1  0.87076117  0.87252712  0.61490053  1
  O  O419  1  0.12419345  0.13286598  0.37983805  1
  O  O420  1  0.13386358  0.12737570  0.88023762  1
  O  O421  1  0.13021288  0.63092643  0.38163798  1
  O  O422  1  0.11388156  0.63603387  0.86951336  1
  O  O423  1  0.63682672  0.13324320  0.37453865  1
  O  O424  1  0.62554686  0.13280349  0.87913167  1
  O  O425  1  0.63634743  0.63359262  0.37697808  1
  O  O426  1  0.62823076  0.63126660  0.87992215  1
