# generated using pymatgen
data_V85Zn86O256
_symmetry_space_group_name_H-M   'P 1'
_cell_length_a   16.94128556
_cell_length_b   16.93760170
_cell_length_c   16.92956340
_cell_angle_alpha   90.00066095
_cell_angle_beta   89.99033736
_cell_angle_gamma   90.06947092
_symmetry_Int_Tables_number   1
_chemical_formula_structural   V85Zn86O256
_chemical_formula_sum   'V85 Zn86 O256'
_cell_volume   4857.84564547
_cell_formula_units_Z   1
loop_
 _symmetry_equiv_pos_site_id
 _symmetry_equiv_pos_as_xyz
  1  'x, y, z'
loop_
 _atom_site_type_symbol
 _atom_site_label
 _atom_site_symmetry_multiplicity
 _atom_site_fract_x
 _atom_site_fract_y
 _atom_site_fract_z
 _atom_site_occupancy
  V  V0  1  0.12664176  0.12086394  0.48887539  1
  V  V1  1  0.24901900  0.49872757  0.75201925  1
  V  V2  1  0.49842098  0.25123968  0.74887708  1
  V  V3  1  0.36922550  0.74686285  0.12129305  1
  V  V4  1  0.62565309  0.12887092  0.50385016  1
  V  V5  1  0.00481094  0.86953885  0.88182982  1
  V  V6  1  0.37519011  0.49773383  0.37340031  1
  V  V7  1  0.49848487  0.37493821  0.87572097  1
  V  V8  1  0.12895823  0.24991367  0.89273329  1
  V  V9  1  0.49903694  0.50755398  -0.00016261  1
  V  V10  1  0.24452720  0.87412380  0.11865812  1
  V  V11  1  0.62412852  0.50674058  0.12126395  1
  V  V12  1  0.00091163  0.37459476  0.37540152  1
  V  V13  1  0.87394224  0.11928896  0.25127908  1
  V  V14  1  0.00266063  0.12740718  0.62838214  1
  V  V15  1  0.48121560  0.12983934  0.12503121  1
  V  V16  1  0.50124655  0.00349409  0.49887602  1
  V  V17  1  0.19462462  0.68369853  0.93272752  1
  V  V18  1  0.00152477  0.50073377  0.50228947  1
  V  V19  1  0.88311769  0.62426056  0.24527615  1
  V  V20  1  0.12368010  0.10147322  0.00394559  1
  V  V21  1  0.25467909  0.36631466  0.62446107  1
  V  V22  1  -0.00354724  0.24954900  0.25051634  1
  V  V23  1  0.88026699  0.12856652  0.75410573  1
  V  V24  1  0.12553117  0.87482096  0.24556160  1
  V  V25  1  -0.00684841  0.36982572  0.88362446  1
  V  V26  1  0.37950769  0.37290761  0.49895806  1
  V  V27  1  0.50629502  0.00339677  -0.00296337  1
  V  V28  1  0.62727776  0.62642692  0.49907688  1
  V  V29  1  0.11815653  0.86157980  0.75001738  1
  V  V30  1  0.49455663  0.24823299  0.24949579  1
  V  V31  1  0.12689040  0.49565090  0.62562035  1
  V  V32  1  0.12452597  0.00014150  0.62362242  1
  V  V33  1  0.62160457  0.37667143  0.25146475  1
  V  V34  1  0.62119340  0.87686525  0.75958515  1
  V  V35  1  0.75227916  0.25156983  0.50223834  1
  V  V36  1  0.88344878  0.74690997  0.12074728  1
  V  V37  1  0.75410216  0.62562329  0.37619632  1
  V  V38  1  0.49733999  0.75657850  0.76121694  1
  V  V39  1  0.75363607  0.37941659  0.62934530  1
  V  V40  1  0.87667467  0.25126242  0.11787621  1
  V  V41  1  0.37296458  0.62293638  0.75064409  1
  V  V42  1  0.74014256  0.61717328  0.86541146  1
  V  V43  1  0.50233064  0.49699339  0.49346069  1
  V  V44  1  0.38103549  0.87605867  0.49817667  1
  V  V45  1  0.62644763  0.75124744  0.36820595  1
  V  V46  1  0.50593089  0.87749437  0.36801549  1
  V  V47  1  0.75314549  0.37519075  0.11667128  1
  V  V48  1  0.50171030  0.62555052  0.62596686  1
  V  V49  1  0.25706251  0.00227112  0.24644096  1
  V  V50  1  0.62617460  0.01385517  0.12446570  1
  V  V51  1  0.62286369  0.25638934  0.37564353  1
  V  V52  1  0.73962545  0.87363134  0.12535509  1
  V  V53  1  0.37264797  0.13142299  0.74693751  1
  V  V54  1  0.87713725  0.37617881  0.50269999  1
  V  V55  1  0.37919758  -0.00210008  0.87436569  1
  V  V56  1  -0.01334089  0.87395902  0.37706212  1
  V  V57  1  -0.01436220  -0.00258790  0.49496447  1
  V  V58  1  0.63111666  0.50288797  0.62987044  1
  V  V59  1  0.24637919  0.49731097  0.24737731  1
  V  V60  1  -0.00640894  0.51636086  -0.00122584  1
  V  V61  1  0.11858637  0.36238665  0.75163591  1
  V  V62  1  0.25206641  0.87476717  0.62424005  1
  V  V63  1  0.12941254  0.62603387  0.49941134  1
  V  V64  1  0.74186858  0.74037623  -0.00091241  1
  V  V65  1  0.75130669  -0.00118329  0.75310095  1
  V  V66  1  0.75144134  0.49927037  0.24857256  1
  V  V67  1  0.36956977  0.36291698  0.00773348  1
  V  V68  1  0.36942397  0.49957478  0.87760142  1
  V  V69  1  0.12888443  0.75287021  0.37449911  1
  V  V70  1  0.49587778  0.13234233  0.62341497  1
  V  V71  1  0.12208135  0.51120568  0.11670689  1
  V  V72  1  0.63070206  0.37786307  0.75205933  1
  V  V73  1  0.87459033  0.88170956  -0.00077110  1
  V  V74  1  0.25502471  0.24784763  0.49283047  1
  V  V75  1  0.87990742  0.25146243  0.62931106  1
  V  V76  1  0.74881277  0.12525486  0.88259732  1
  V  V77  1  0.75331071  0.12267969  0.37748424  1
  V  V78  1  0.24769524  0.00201441  0.75101688  1
  V  V79  1  0.38231298  0.75192739  0.62554038  1
  V  V80  1  0.74505674  -0.00532570  0.25371324  1
  V  V81  1  0.50034928  0.75187463  0.24579588  1
  V  V82  1  0.00131301  0.63421906  0.63504701  1
  V  V83  1  0.37667647  0.87398800  -0.00275011  1
  V  V84  1  0.62430617  0.24767910  0.88490064  1
  Zn  Zn85  1  0.12416789  0.24786256  0.37209310  1
  Zn  Zn86  1  0.75354384  0.87536141  0.62547745  1
  Zn  Zn87  1  0.38078249  0.00453770  0.36619813  1
  Zn  Zn88  1  0.62453841  0.00275156  0.63039187  1
  Zn  Zn89  1  0.61599450  0.74961339  0.88401688  1
  Zn  Zn90  1  0.88315801  0.00311961  0.88098898  1
  Zn  Zn91  1  0.25797219  0.12430080  0.36638455  1
  Zn  Zn92  1  0.23864065  0.36046246  0.11270741  1
  Zn  Zn93  1  0.25469458  0.75080292  0.49836344  1
  Zn  Zn94  1  0.87734125  0.50131345  0.37318446  1
  Zn  Zn95  1  0.25403450  0.62724978  0.37292846  1
  Zn  Zn96  1  0.75058510  0.24887367  0.00124805  1
  Zn  Zn97  1  0.25230884  0.13080187  0.88229909  1
  Zn  Zn98  1  0.12092095  0.37511772  0.24403007  1
  Zn  Zn99  1  -0.00587732  0.10215977  0.10881262  1
  Zn  Zn100  1  0.86792952  0.49674851  0.87352221  1
  Zn  Zn101  1  0.37625641  0.62260873  0.24826790  1
  Zn  Zn102  1  0.50225339  0.62906087  0.12055024  1
  Zn  Zn103  1  0.76888878  0.76990050  0.49494122  1
  Zn  Zn104  1  0.87452112  0.76294405  0.62765329  1
  Zn  Zn105  1  0.00460329  0.74517182  0.24560636  1
  Zn  Zn106  1  0.87312403  0.62542291  0.75329045  1
  Zn  Zn107  1  0.18002325  0.18306755  0.17782553  1
  Zn  Zn108  1  0.18769680  0.18779427  0.68454498  1
  Zn  Zn109  1  0.19102997  0.68529103  0.18627444  1
  Zn  Zn110  1  0.19167680  0.68493352  0.68561116  1
  Zn  Zn111  1  0.68761726  0.18956913  0.18890531  1
  Zn  Zn112  1  0.68948073  0.18943293  0.69288203  1
  Zn  Zn113  1  0.69105779  0.68711248  0.18816872  1
  Zn  Zn114  1  0.68869735  0.69719482  0.68892046  1
  Zn  Zn115  1  0.28861450  0.28712389  0.27496612  1
  Zn  Zn116  1  0.30990693  0.31337376  0.81591858  1
  Zn  Zn117  1  0.31495836  0.81392370  0.30998558  1
  Zn  Zn118  1  0.31010368  0.81542422  0.81265147  1
  Zn  Zn119  1  0.81264120  0.31310262  0.31042287  1
  Zn  Zn120  1  0.81250812  0.31073491  0.81303326  1
  Zn  Zn121  1  0.81107147  0.80967942  0.30599942  1
  Zn  Zn122  1  0.81753114  0.80835953  0.81031891  1
  Zn  Zn123  1  0.18986376  0.43579249  0.43263253  1
  Zn  Zn124  1  0.18525821  0.43991089  0.93975773  1
  Zn  Zn125  1  0.18919353  0.93802321  0.43384230  1
  Zn  Zn126  1  0.19054682  0.92986668  0.93171029  1
  Zn  Zn127  1  0.69035636  0.43944621  0.43753037  1
  Zn  Zn128  1  0.68380559  0.43706441  0.94045026  1
  Zn  Zn129  1  0.68497953  0.94242868  0.43445573  1
  Zn  Zn130  1  0.68777424  0.93575587  0.93689138  1
  Zn  Zn131  1  0.30547781  0.05955384  0.06027020  1
  Zn  Zn132  1  0.31497547  0.06319776  0.56039247  1
  Zn  Zn133  1  0.31011318  0.55978684  0.06377626  1
  Zn  Zn134  1  0.31278421  0.55999160  0.56423670  1
  Zn  Zn135  1  0.81163184  0.06299264  0.06536757  1
  Zn  Zn136  1  0.81288623  0.06047727  0.56839864  1
  Zn  Zn137  1  0.81560815  0.56196716  0.05963489  1
  Zn  Zn138  1  0.81591827  0.56865005  0.56252909  1
  Zn  Zn139  1  0.43749458  0.43463992  0.18702164  1
  Zn  Zn140  1  0.43972485  0.43678300  0.68417191  1
  Zn  Zn141  1  0.43802370  0.93544625  0.18178859  1
  Zn  Zn142  1  0.44200463  0.94070418  0.68754104  1
  Zn  Zn143  1  0.93914663  0.43859317  0.18153983  1
  Zn  Zn144  1  0.93778128  0.44478035  0.69640068  1
  Zn  Zn145  1  0.93102210  0.93108259  0.18777313  1
  Zn  Zn146  1  0.93638185  0.93840840  0.68925281  1
  Zn  Zn147  1  0.04357185  0.03961302  0.28117513  1
  Zn  Zn148  1  0.06170726  0.05936192  0.81769873  1
  Zn  Zn149  1  0.06539815  0.56244434  0.31294786  1
  Zn  Zn150  1  0.06679735  0.55792859  0.81757131  1
  Zn  Zn151  1  0.56462286  0.06716823  0.30994116  1
  Zn  Zn152  1  0.56287164  0.06577489  0.81433904  1
  Zn  Zn153  1  0.56158465  0.56497641  0.30978110  1
  Zn  Zn154  1  0.56293213  0.56587208  0.81517089  1
  Zn  Zn155  1  0.43540568  0.19021286  0.43022003  1
  Zn  Zn156  1  0.43892046  0.18317461  0.93733535  1
  Zn  Zn157  1  0.44150578  0.68628908  0.43593894  1
  Zn  Zn158  1  0.42276545  0.68394990  0.93766136  1
  Zn  Zn159  1  0.93790444  0.18524482  0.43830668  1
  Zn  Zn160  1  0.94381637  0.18784284  0.93736150  1
  Zn  Zn161  1  0.94034187  0.69028735  0.43954004  1
  Zn  Zn162  1  0.93021614  0.69332415  0.92846785  1
  Zn  Zn163  1  0.05796157  0.31575286  0.06623776  1
  Zn  Zn164  1  0.06705267  0.30845677  0.56084753  1
  Zn  Zn165  1  0.06661539  0.80440560  0.05405339  1
  Zn  Zn166  1  0.06123338  0.81388649  0.55905344  1
  Zn  Zn167  1  0.55732113  0.31693440  0.06554231  1
  Zn  Zn168  1  0.56258504  0.31420241  0.56476747  1
  Zn  Zn169  1  0.56022171  0.81919969  0.06326402  1
  Zn  Zn170  1  0.59873451  0.82956631  0.54905167  1
  O  O171  1  0.11788313  0.12075973  0.10728238  1
  O  O172  1  0.11878922  0.11987245  0.61758679  1
  O  O173  1  0.12547242  0.61065034  0.12738480  1
  O  O174  1  0.11980131  0.61773436  0.61821921  1
  O  O175  1  0.62743592  0.11597986  0.12203644  1
  O  O176  1  0.61839492  0.12899692  0.62010107  1
  O  O177  1  0.62509870  0.61053423  0.13091325  1
  O  O178  1  0.62105239  0.61887751  0.62127667  1
  O  O179  1  0.37332362  0.39125026  0.39231539  1
  O  O180  1  0.38061621  0.38282780  0.87894083  1
  O  O181  1  0.38898016  0.87514365  0.38259805  1
  O  O182  1  0.37130234  0.88960351  0.88047753  1
  O  O183  1  0.88452596  0.37705702  0.38198128  1
  O  O184  1  0.88984736  0.37269872  0.87092612  1
  O  O185  1  0.88786902  0.86678903  0.37210720  1
  O  O186  1  0.88001829  0.87753563  0.88438531  1
  O  O187  1  0.25645953  -0.00586601  0.35953075  1
  O  O188  1  0.25628705  0.00198365  0.86180044  1
  O  O189  1  0.25840856  0.50592728  0.37109659  1
  O  O190  1  0.25746003  0.48884163  0.86277826  1
  O  O191  1  0.74337874  0.00988778  0.36672199  1
  O  O192  1  0.75308913  0.00825777  0.86872937  1
  O  O193  1  0.75354781  0.50778416  0.36686537  1
  O  O194  1  0.74625975  0.51391881  0.88461741  1
  O  O195  1  0.23809567  0.49482815  0.13003246  1
  O  O196  1  0.24502343  0.48631341  0.62808938  1
  O  O197  1  0.25210178  0.98653703  0.13481338  1
  O  O198  1  0.24774871  0.99473352  0.63366774  1
  O  O199  1  0.74449591  0.49389554  0.12810624  1
  O  O200  1  0.73783866  0.49728774  0.61828107  1
  O  O201  1  0.74258711  0.99441195  0.13011694  1
  O  O202  1  0.74498035  1.00652852  0.64275665  1
  O  O203  1  -0.00384434  0.36855445  0.25887815  1
  O  O204  1  0.01200637  0.38175673  0.76486047  1
  O  O205  1  0.00808175  0.86792216  0.26197851  1
  O  O206  1  0.01542683  0.87744353  0.75096072  1
  O  O207  1  0.51555796  0.36777608  0.24198907  1
  O  O208  1  0.50599337  0.36912576  0.75402638  1
  O  O209  1  0.49635280  0.86423778  0.25505618  1
  O  O210  1  0.50338920  0.86689180  0.75123614  1
  O  O211  1  0.50585025  0.13287181  0.23482010  1
  O  O212  1  0.49286614  0.13070211  0.74326926  1
  O  O213  1  0.49769415  0.63844954  0.24722785  1
  O  O214  1  0.49314046  0.63079556  0.74350189  1
  O  O215  1  0.98086455  0.13710991  0.27073427  1
  O  O216  1  0.99350550  0.11885525  0.74057975  1
  O  O217  1  0.98691728  0.62591920  0.25570418  1
  O  O218  1  1.01032303  0.61847468  0.73517784  1
  O  O219  1  0.37891099  0.26459750  -0.00793056  1
  O  O220  1  0.36381810  0.25882505  0.49503211  1
  O  O221  1  0.38232084  0.76203788  0.00851998  1
  O  O222  1  0.38132453  0.76104403  0.50616814  1
  O  O223  1  0.87548349  0.24423292  0.01426644  1
  O  O224  1  0.87100408  0.25597774  0.50801242  1
  O  O225  1  0.86245681  0.75755271  0.00572312  1
  O  O226  1  0.87550331  0.74086811  0.51207051  1
  O  O227  1  0.13636919  0.24072151  0.49644760  1
  O  O228  1  0.12559631  0.25133908  0.99331820  1
  O  O229  1  0.12937866  0.74271949  0.49371737  1
  O  O230  1  0.13722001  0.74575808  0.99117403  1
  O  O231  1  0.63157489  0.24830725  0.49498333  1
  O  O232  1  0.62338992  0.25844929  0.98764019  1
  O  O233  1  0.61473470  0.73685233  0.48165614  1
  O  O234  1  0.63736577  0.75743403  1.00283801  1
  O  O235  1  0.50326423  0.23707492  0.13137655  1
  O  O236  1  0.50284438  0.24058635  0.63195986  1
  O  O237  1  0.49411250  0.75099107  0.13033332  1
  O  O238  1  0.49036537  0.74605645  0.63412813  1
  O  O239  1  0.99101124  0.24841386  0.13503513  1
  O  O240  1  0.99672401  0.23535049  0.61789419  1
  O  O241  1  0.98687931  0.75406986  0.12350219  1
  O  O242  1  1.00671700  0.73532509  0.62285578  1
  O  O243  1  -0.00154112  0.25978891  0.37202693  1
  O  O244  1  0.01230098  0.26194006  0.87727149  1
  O  O245  1  0.01019824  0.75890248  0.37442222  1
  O  O246  1  -0.00838455  0.76934084  0.86841450  1
  O  O247  1  0.51854351  0.24476460  0.37060727  1
  O  O248  1  0.50688520  0.25318305  0.86888485  1
  O  O249  1  0.50550210  0.75624570  0.36560304  1
  O  O250  1  0.49442548  0.74258364  0.86422192  1
  O  O251  1  0.24316247  0.13240682  0.50271821  1
  O  O252  1  0.23242417  0.11968406  0.99691967  1
  O  O253  1  0.23880052  0.62538715  0.50196806  1
  O  O254  1  0.25139868  0.62141530  0.99089616  1
  O  O255  1  0.74576771  0.13003120  0.49660653  1
  O  O256  1  0.75422281  0.12569352  0.98697144  1
  O  O257  1  0.74512870  0.62016904  0.48557871  1
  O  O258  1  0.74828587  0.63844363  1.00161823  1
  O  O259  1  0.26442643  0.37706839  -0.00157446  1
  O  O260  1  0.25464608  0.36715015  0.50435594  1
  O  O261  1  0.26305396  0.88327813  0.00771505  1
  O  O262  1  0.26271185  0.87515883  0.50606942  1
  O  O263  1  0.74767868  0.37287917  0.01284010  1
  O  O264  1  0.75794955  0.37198998  0.50758850  1
  O  O265  1  0.75619809  0.86807058  0.00641366  1
  O  O266  1  0.71134726  0.86854445  0.51189262  1
  O  O267  1  0.12778734  0.50056188  0.23924978  1
  O  O268  1  0.13388905  0.48773110  0.74579196  1
  O  O269  1  0.13975761  0.97828184  0.25736695  1
  O  O270  1  0.13400415  0.99681832  0.74356925  1
  O  O271  1  0.62966625  0.49330137  0.24531658  1
  O  O272  1  0.61627912  0.49026659  0.74092499  1
  O  O273  1  0.63611280  1.00564519  0.24074800  1
  O  O274  1  0.63198503  0.99578587  0.75545491  1
  O  O275  1  0.36163942  -0.00816090  0.24773755  1
  O  O276  1  0.37066761  0.00839154  0.75516575  1
  O  O277  1  0.37014194  0.49778223  0.25774026  1
  O  O278  1  0.36914880  0.49948929  0.75534345  1
  O  O279  1  0.85721775  0.01054733  0.24833839  1
  O  O280  1  0.86735970  0.01332190  0.75327263  1
  O  O281  1  0.86945786  0.50688255  0.24816405  1
  O  O282  1  0.87768429  0.51092944  0.76049142  1
  O  O283  1  0.11046766  0.37363348  0.37367348  1
  O  O284  1  0.12078069  0.36492783  0.87140913  1
  O  O285  1  0.12388221  0.86303846  0.36955024  1
  O  O286  1  0.11724928  0.87457321  0.86165756  1
  O  O287  1  0.63299008  0.36827337  0.36585959  1
  O  O288  1  0.61914164  0.37094872  0.86766106  1
  O  O289  1  0.61314696  0.86680864  0.37321523  1
  O  O290  1  0.62373431  0.87139915  0.86588822  1
  O  O291  1  0.38327642  0.12179961  0.12451630  1
  O  O292  1  0.38338462  0.12282512  0.63426546  1
  O  O293  1  0.37790187  0.63353517  0.12505560  1
  O  O294  1  0.38119634  0.63166296  0.62847704  1
  O  O295  1  0.87654106  0.13139892  0.13479021  1
  O  O296  1  0.88338044  0.13026508  0.63264841  1
  O  O297  1  0.86703756  0.63452744  0.13327672  1
  O  O298  1  0.89673753  0.61791316  0.62585251  1
  O  O299  1  0.25451542  0.26326893  0.16754929  1
  O  O300  1  0.24715541  0.26081730  0.61475811  1
  O  O301  1  0.26263650  0.75718603  0.12941693  1
  O  O302  1  0.26540122  0.75576966  0.62288116  1
  O  O303  1  0.75603606  0.25738306  0.12407523  1
  O  O304  1  0.75690317  0.25763413  0.62076868  1
  O  O305  1  0.75314963  0.75675984  0.11706626  1
  O  O306  1  0.74627445  0.75352339  0.61403477  1
  O  O307  1  0.24406666  0.24550154  0.37769181  1
  O  O308  1  0.23255963  0.24855381  0.87106229  1
  O  O309  1  0.24537758  0.74785777  0.37774858  1
  O  O310  1  0.26084614  0.73972351  0.87678057  1
  O  O311  1  0.74302497  0.24589038  0.38164715  1
  O  O312  1  0.74224311  0.24492540  0.87827290  1
  O  O313  1  0.74290641  0.74472952  0.37575260  1
  O  O314  1  0.74559355  0.74302059  0.88897806  1
  O  O315  1  0.01458496  0.12111509  -0.00349034  1
  O  O316  1  0.00835469  0.11686022  0.50296349  1
  O  O317  1  -0.00527011  0.61506860  -0.00998462  1
  O  O318  1  0.01342567  0.61663552  0.50548098  1
  O  O319  1  0.49696991  0.11850545  0.01477618  1
  O  O320  1  0.50499773  0.12630348  0.50742154  1
  O  O321  1  0.49369784  0.61143587  -0.00062090  1
  O  O322  1  0.50620987  0.61648384  0.50666891  1
  O  O323  1  0.49224411  0.38361503  0.50671560  1
  O  O324  1  0.48963781  0.38311561  0.99454142  1
  O  O325  1  0.50036737  0.88291779  0.49263337  1
  O  O326  1  0.48680005  0.88984105  1.00711032  1
  O  O327  1  0.99760870  0.38070186  0.49589057  1
  O  O328  1  1.00199344  0.37973846  0.98625726  1
  O  O329  1  1.00578509  0.88325398  0.48605674  1
  O  O330  1  0.99313477  0.87030853  0.99012199  1
  O  O331  1  0.49661114  0.50358631  0.38676562  1
  O  O332  1  0.49397642  0.49364006  0.88114163  1
  O  O333  1  0.50322066  0.99345940  0.37727609  1
  O  O334  1  0.49230155  1.00951739  0.88585956  1
  O  O335  1  1.00049322  0.49473961  0.38662878  1
  O  O336  1  1.00460381  0.48900066  0.88787186  1
  O  O337  1  1.00358333  0.98224749  0.37878576  1
  O  O338  1  0.99638409  0.97909757  0.86642117  1
  O  O339  1  0.00371003  0.01199487  0.17408806  1
  O  O340  1  0.00491512  0.00942430  0.61516783  1
  O  O341  1  0.00792886  0.49897394  0.10985227  1
  O  O342  1  0.00925599  0.50077638  0.61444206  1
  O  O343  1  0.50628415  0.01190211  0.12199460  1
  O  O344  1  0.50246612  0.01488026  0.61938789  1
  O  O345  1  0.50686618  0.50124096  0.11817959  1
  O  O346  1  0.51104591  0.50373029  0.61578619  1
  O  O347  1  0.24104567  0.39305905  0.26323333  1
  O  O348  1  0.24629511  0.37915454  0.74077210  1
  O  O349  1  0.24541267  0.87695563  0.23957181  1
  O  O350  1  0.24220554  0.88343476  0.74453147  1
  O  O351  1  0.74154366  0.37983306  0.24211412  1
  O  O352  1  0.73859257  0.37217913  0.74599187  1
  O  O353  1  0.75259432  0.88347620  0.24036957  1
  O  O354  1  0.74224405  0.88552888  0.75587393  1
  O  O355  1  0.23807723  0.10364679  0.24718616  1
  O  O356  1  0.25706169  0.11894215  0.74863847  1
  O  O357  1  0.25451113  0.61173691  0.25152659  1
  O  O358  1  0.25787567  0.60618787  0.73654867  1
  O  O359  1  0.75525696  0.12173604  0.25867953  1
  O  O360  1  0.75768186  0.12138256  0.76154808  1
  O  O361  1  0.75817715  0.62062814  0.25956500  1
  O  O362  1  0.73926148  0.62415321  0.76376798  1
  O  O363  1  0.37023368  0.11572987  0.38315245  1
  O  O364  1  0.37171312  0.11562177  0.86781236  1
  O  O365  1  0.37608850  0.61224808  0.37578746  1
  O  O366  1  0.37772967  0.60684581  0.86555802  1
  O  O367  1  0.85909660  0.13222780  0.37109997  1
  O  O368  1  0.87142140  0.12573683  0.86943962  1
  O  O369  1  0.86878805  0.62466798  0.36757490  1
  O  O370  1  0.85285012  0.62517396  0.87780766  1
  O  O371  1  0.12389417  0.38693456  0.12665833  1
  O  O372  1  0.13045915  0.37657138  0.63238968  1
  O  O373  1  0.13515934  0.86305008  0.13081675  1
  O  O374  1  0.12942944  0.88025585  0.63201964  1
  O  O375  1  0.63236387  0.38328375  0.13205653  1
  O  O376  1  0.63100352  0.38238503  0.63290030  1
  O  O377  1  0.63582611  0.88685540  0.12196506  1
  O  O378  1  0.62297525  0.88349778  0.64677828  1
  O  O379  1  0.10537423  0.24690195  0.25253632  1
  O  O380  1  0.12752700  0.25979759  0.75290711  1
  O  O381  1  0.12602825  0.75479387  0.25683704  1
  O  O382  1  0.13208856  0.76406294  0.74269180  1
  O  O383  1  0.62190088  0.25765369  0.25738554  1
  O  O384  1  0.61932393  0.26033126  0.75769375  1
  O  O385  1  0.61922150  0.74553639  0.25984445  1
  O  O386  1  0.61286883  0.75831137  0.75528483  1
  O  O387  1  0.39848301  0.25912087  0.27068611  1
  O  O388  1  0.37872388  0.23830553  0.75719669  1
  O  O389  1  0.38317894  0.74851195  0.24092782  1
  O  O390  1  0.37952635  0.74718193  0.74311142  1
  O  O391  1  0.87843611  0.24289665  0.24293088  1
  O  O392  1  0.87173204  0.23720790  0.74408414  1
  O  O393  1  0.87559752  0.74165562  0.23851370  1
  O  O394  1  0.86801133  0.73854322  0.74081634  1
  O  O395  1  0.38430648  0.49646206  0.49722912  1
  O  O396  1  0.37988086  0.49225750  0.99239371  1
  O  O397  1  0.38337114  0.98708204  0.50256277  1
  O  O398  1  0.38172795  0.99757378  0.99180660  1
  O  O399  1  0.88588224  0.49469788  0.49934719  1
  O  O400  1  0.88907744  0.49968684  0.99633598  1
  O  O401  1  0.88666408  1.00848765  0.49783639  1
  O  O402  1  0.87284830  0.98634488  1.00417993  1
  O  O403  1  0.12444036  0.00283340  -0.00664918  1
  O  O404  1  0.12304321  0.00514762  0.50588299  1
  O  O405  1  0.11521618  0.49954422  0.00950263  1
  O  O406  1  0.12115635  0.50506004  0.50339099  1
  O  O407  1  0.61331827  -0.00433495  0.00629202  1
  O  O408  1  0.61752573  0.01505569  0.50189439  1
  O  O409  1  0.61189045  0.49237901  0.01043948  1
  O  O410  1  0.61901620  0.50496172  0.50484470  1
  O  O411  1  0.37432106  0.37665691  0.10971626  1
  O  O412  1  0.36614339  0.38067744  0.61214252  1
  O  O413  1  0.36727826  0.86841528  0.11616925  1
  O  O414  1  0.37522880  0.86912786  0.61927626  1
  O  O415  1  0.86463282  0.36491563  0.13257847  1
  O  O416  1  0.87393319  0.37173852  0.62425220  1
  O  O417  1  0.86464879  0.86654213  0.11939667  1
  O  O418  1  0.86850269  0.88070138  0.62499363  1
  O  O419  1  0.12710133  0.12023492  0.38624380  1
  O  O420  1  0.12307861  0.13645620  0.88331131  1
  O  O421  1  0.12617583  0.63550518  0.38214211  1
  O  O422  1  0.13690277  0.62798142  0.86909634  1
  O  O423  1  0.63547692  0.13413402  0.38183909  1
  O  O424  1  0.63466927  0.13741337  0.86957882  1
  O  O425  1  0.63412987  0.63003095  0.37623929  1
  O  O426  1  0.63438622  0.62965471  0.87946351  1
