# generated using pymatgen
data_V85Zn86O256
_symmetry_space_group_name_H-M   'P 1'
_cell_length_a   16.91692788
_cell_length_b   16.92398979
_cell_length_c   16.92531216
_cell_angle_alpha   89.97805011
_cell_angle_beta   90.00835834
_cell_angle_gamma   89.98497763
_symmetry_Int_Tables_number   1
_chemical_formula_structural   V85Zn86O256
_chemical_formula_sum   'V85 Zn86 O256'
_cell_volume   4845.74870568
_cell_formula_units_Z   1
loop_
 _symmetry_equiv_pos_site_id
 _symmetry_equiv_pos_as_xyz
  1  'x, y, z'
loop_
 _atom_site_type_symbol
 _atom_site_label
 _atom_site_symmetry_multiplicity
 _atom_site_fract_x
 _atom_site_fract_y
 _atom_site_fract_z
 _atom_site_occupancy
  V  V0  1  -0.00936523  0.88108684  0.86526382  1
  V  V1  1  0.50160552  0.49941103  0.50089482  1
  V  V2  1  0.12175949  0.50592312  0.62601858  1
  V  V3  1  0.76828992  0.12656198  0.36695347  1
  V  V4  1  0.25353573  0.62773841  0.36751929  1
  V  V5  1  0.12450594  0.62694993  -0.00139056  1
  V  V6  1  0.26413074  0.00176003  0.25197627  1
  V  V7  1  0.87002115  0.36534376  0.01422894  1
  V  V8  1  0.12919490  -0.01051318  0.62614445  1
  V  V9  1  0.25051939  0.25028052  0.50036711  1
  V  V10  1  0.37716562  0.62512900  0.74905818  1
  V  V11  1  0.62631750  0.76084476  0.37086363  1
  V  V12  1  0.87800028  0.11604373  0.75810646  1
  V  V13  1  0.12286865  0.62675889  0.50001584  1
  V  V14  1  0.62313109  0.49740759  0.12782173  1
  V  V15  1  0.73505785  0.25017163  0.00708061  1
  V  V16  1  0.25030054  0.75585296  0.50318989  1
  V  V17  1  0.50284520  0.13031841  0.62918296  1
  V  V18  1  0.12601163  0.25001194  0.87361887  1
  V  V19  1  0.63060996  0.36294448  0.24850681  1
  V  V20  1  0.75281119  0.25364963  0.50887093  1
  V  V21  1  0.37749148  0.37694284  0.50083577  1
  V  V22  1  0.87085443  0.49797511  0.87651082  1
  V  V23  1  -0.00315665  0.62729811  0.12681466  1
  V  V24  1  0.25882969  0.87592572  0.12332780  1
  V  V25  1  0.12628823  0.12543890  0.50173274  1
  V  V26  1  0.62556811  -0.00284815  0.14296233  1
  V  V27  1  0.49613883  0.24510672  0.25233671  1
  V  V28  1  0.63397543  0.62814328  0.00758685  1
  V  V29  1  -0.00103692  0.37490824  0.87605847  1
  V  V30  1  0.37329302  0.24234102  0.12835849  1
  V  V31  1  0.37664990  0.50341839  0.36685573  1
  V  V32  1  0.12338390  0.75762958  0.37459845  1
  V  V33  1  0.12126061  0.87872718  0.24575513  1
  V  V34  1  -0.00059018  -0.00308335  0.49378872  1
  V  V35  1  0.26358868  0.12218411  0.37073326  1
  V  V36  1  0.50262757  0.62539078  0.62449802  1
  V  V37  1  0.62894128  0.13038875  0.49074280  1
  V  V38  1  -0.01707521  0.12584459  0.12660656  1
  V  V39  1  0.37881032  0.50073790  0.87379399  1
  V  V40  1  -0.01107058  0.00053160  -0.00628143  1
  V  V41  1  -0.00079345  0.49825286  0.00190605  1
  V  V42  1  0.74872650  0.49445189  0.24986890  1
  V  V43  1  0.25126562  0.50117244  0.74943453  1
  V  V44  1  0.62479989  0.87641516  0.75034991  1
  V  V45  1  0.50529631  0.36317923  0.87003637  1
  V  V46  1  0.87310932  0.37396248  0.51467841  1
  V  V47  1  0.25455388  0.75529155  0.00058940  1
  V  V48  1  0.24967249  -0.01330208  0.74526710  1
  V  V49  1  0.37745862  0.25103347  0.63045250  1
  V  V50  1  0.49805311  0.87300442  0.88656140  1
  V  V51  1  -0.00147442  0.50505788  0.50129376  1
  V  V52  1  0.37420427  -0.00468844  0.88227254  1
  V  V53  1  0.12457572  0.12461139  0.00294455  1
  V  V54  1  0.75102420  0.74735195  0.49976257  1
  V  V55  1  0.37633689  0.12651159  0.75205254  1
  V  V56  1  0.62864463  0.00094417  0.62429311  1
  V  V57  1  0.50204880  0.50534750  0.00315515  1
  V  V58  1  0.12521968  0.24940695  0.37287299  1
  V  V59  1  0.37713939  0.37432974  -0.00063856  1
  V  V60  1  0.37926687  0.73237287  0.12761165  1
  V  V61  1  -0.00639600  0.25254517  0.74420214  1
  V  V62  1  0.63237134  0.49738766  0.63016183  1
  V  V63  1  0.37372957  0.75918211  0.62568059  1
  V  V64  1  0.86657308  0.62531426  0.25444519  1
  V  V65  1  0.87604140  0.87732503  0.49451320  1
  V  V66  1  0.49580130  0.74186664  0.24998752  1
  V  V67  1  0.87635590  0.62375513  0.74222244  1
  V  V68  1  0.12614979  0.76034358  0.87153197  1
  V  V69  1  0.50723211  0.37026795  0.37557258  1
  V  V70  1  0.63503547  0.74968850  0.88012274  1
  V  V71  1  0.63210415  0.35879561  0.75043450  1
  V  V72  1  0.62934999  0.62245899  0.48993474  1
  V  V73  1  0.50215173  0.74989633  0.75112180  1
  V  V74  1  0.25151865  0.37731207  0.62481561  1
  V  V75  1  0.86892741  0.50015051  0.37755121  1
  V  V76  1  0.00528117  0.74687449  0.74242581  1
  V  V77  1  0.49760622  0.00108996  0.49503148  1
  V  V78  1  0.61603084  0.11818188  -0.00691095  1
  V  V79  1  -0.00595368  0.75433185  0.25430097  1
  V  V80  1  0.12490301  0.37594427  0.24916695  1
  V  V81  1  -0.00444086  0.12807515  0.62194654  1
  V  V82  1  0.37397509  0.87937359  0.49242441  1
  V  V83  1  -0.01372792  0.24837842  0.24590976  1
  V  V84  1  0.25077575  0.37540273  0.12439651  1
  Zn  Zn85  1  0.25115486  0.62659891  0.87512255  1
  Zn  Zn86  1  0.75296583  0.62651624  0.87657069  1
  Zn  Zn87  1  0.49312289  -0.00544424  0.00958104  1
  Zn  Zn88  1  0.77030695  -0.00279774  0.25483137  1
  Zn  Zn89  1  0.75230334  0.87445868  0.62363068  1
  Zn  Zn90  1  0.24883053  0.12263561  0.87331897  1
  Zn  Zn91  1  0.12483543  0.37532616  0.74953592  1
  Zn  Zn92  1  -0.06378169  0.94112878  0.33006076  1
  Zn  Zn93  1  0.12407032  -0.00315094  0.12078113  1
  Zn  Zn94  1  0.12589565  0.50108297  0.12640123  1
  Zn  Zn95  1  0.74527306  0.86556182  0.12656478  1
  Zn  Zn96  1  0.25244916  0.50453563  0.24722624  1
  Zn  Zn97  1  0.86196960  0.86268127  -0.00594782  1
  Zn  Zn98  1  0.74710169  0.12686222  0.87544528  1
  Zn  Zn99  1  0.24995340  0.24933617  -0.00179997  1
  Zn  Zn100  1  0.75789713  -0.00520242  0.75506552  1
  Zn  Zn101  1  -0.00274274  0.37384226  0.37580628  1
  Zn  Zn102  1  0.88030408  0.74713995  0.62161344  1
  Zn  Zn103  1  0.49843077  0.88240005  0.36596108  1
  Zn  Zn104  1  0.75161464  0.49447216  0.74931014  1
  Zn  Zn105  1  0.85329915  0.74235302  0.10782029  1
  Zn  Zn106  1  0.49548602  0.12091943  0.13123168  1
  Zn  Zn107  1  0.18656085  0.18711148  0.18802659  1
  Zn  Zn108  1  0.18746319  0.18382724  0.68896889  1
  Zn  Zn109  1  0.18512393  0.69098425  0.18613980  1
  Zn  Zn110  1  0.18927218  0.68797688  0.68695766  1
  Zn  Zn111  1  0.68954099  0.18128933  0.18154135  1
  Zn  Zn112  1  0.69353777  0.18619887  0.68413681  1
  Zn  Zn113  1  0.68367442  0.68330954  0.19194658  1
  Zn  Zn114  1  0.69073582  0.68499629  0.68725467  1
  Zn  Zn115  1  0.31363459  0.31484946  0.31315329  1
  Zn  Zn116  1  0.31383263  0.31338180  0.81202145  1
  Zn  Zn117  1  0.31379450  0.81348678  0.30798765  1
  Zn  Zn118  1  0.31352751  0.81290334  0.81382945  1
  Zn  Zn119  1  0.80831875  0.31122537  0.32418775  1
  Zn  Zn120  1  0.81135806  0.30611490  0.81977474  1
  Zn  Zn121  1  0.80338680  0.81286789  0.30757908  1
  Zn  Zn122  1  0.81324695  0.81094893  0.80772547  1
  Zn  Zn123  1  0.18818312  0.43840992  0.43629791  1
  Zn  Zn124  1  0.18790007  0.43777513  0.93722576  1
  Zn  Zn125  1  0.18848598  0.93896788  0.43607582  1
  Zn  Zn126  1  0.18430315  0.93832228  0.93597818  1
  Zn  Zn127  1  0.68894983  0.43499639  0.43598432  1
  Zn  Zn128  1  0.68783222  0.43234418  0.93829674  1
  Zn  Zn129  1  0.69232940  0.94153092  0.43541213  1
  Zn  Zn130  1  0.69380216  0.94295244  0.93758350  1
  Zn  Zn131  1  0.30724455  0.06274874  0.06219972  1
  Zn  Zn132  1  0.31281290  0.06305719  0.56328166  1
  Zn  Zn133  1  0.30961315  0.56088762  0.05898079  1
  Zn  Zn134  1  0.31284109  0.56775691  0.55897459  1
  Zn  Zn135  1  0.80322897  0.05845138  0.05897804  1
  Zn  Zn136  1  0.81474938  0.06356359  0.56189739  1
  Zn  Zn137  1  0.81078759  0.55743927  0.06660532  1
  Zn  Zn138  1  0.81033109  0.56349550  0.56293636  1
  Zn  Zn139  1  0.43995495  0.43393381  0.18744998  1
  Zn  Zn140  1  0.44407663  0.43631654  0.68952201  1
  Zn  Zn141  1  0.44197789  0.92868607  0.18716981  1
  Zn  Zn142  1  0.44020877  0.94027432  0.68748524  1
  Zn  Zn143  1  0.93952445  0.43862911  0.19039213  1
  Zn  Zn144  1  0.94024929  0.44057191  0.68868753  1
  Zn  Zn145  1  0.92642879  0.93967234  0.16813949  1
  Zn  Zn146  1  0.94071089  0.93533645  0.67913123  1
  Zn  Zn147  1  0.06767389  0.06796420  0.30764144  1
  Zn  Zn148  1  0.06548023  0.06297203  0.81000037  1
  Zn  Zn149  1  0.06079424  0.56340611  0.31535036  1
  Zn  Zn150  1  0.06138831  0.56522689  0.81402119  1
  Zn  Zn151  1  0.56028992  0.06699139  0.31625817  1
  Zn  Zn152  1  0.56265152  0.06002764  0.81518849  1
  Zn  Zn153  1  0.56113993  0.56238466  0.31074044  1
  Zn  Zn154  1  0.56584816  0.56105428  0.81548968  1
  Zn  Zn155  1  0.44027875  0.18952246  0.44152661  1
  Zn  Zn156  1  0.43589515  0.18557983  0.93981226  1
  Zn  Zn157  1  0.43988251  0.68801780  0.43608352  1
  Zn  Zn158  1  0.44069626  0.68723977  0.94058239  1
  Zn  Zn159  1  0.93799969  0.19188750  0.43907923  1
  Zn  Zn160  1  0.93806373  0.18982055  0.93692444  1
  Zn  Zn161  1  0.93590969  0.68655250  0.43531329  1
  Zn  Zn162  1  0.93996588  0.68543533  0.92833154  1
  Zn  Zn163  1  0.05991507  0.30922135  0.06367492  1
  Zn  Zn164  1  0.06232661  0.31750521  0.56283193  1
  Zn  Zn165  1  0.04720747  0.81058796  0.05861805  1
  Zn  Zn166  1  0.06203729  0.81596342  0.56118746  1
  Zn  Zn167  1  0.55993376  0.31514283  0.06631584  1
  Zn  Zn168  1  0.56806635  0.31085801  0.56613567  1
  Zn  Zn169  1  0.56640431  0.81068638  0.06805395  1
  Zn  Zn170  1  0.56232854  0.81380633  0.55966261  1
  O  O171  1  0.12326437  0.12581826  0.11132806  1
  O  O172  1  0.11783368  0.11914029  0.61926544  1
  O  O173  1  0.11936649  0.62461875  0.11517234  1
  O  O174  1  0.13316193  0.61344563  0.61593439  1
  O  O175  1  0.61746052  0.11406463  0.11744534  1
  O  O176  1  0.61929053  0.11940937  0.62120120  1
  O  O177  1  0.62366359  0.60924104  0.11984529  1
  O  O178  1  0.61925712  0.61746559  0.61938161  1
  O  O179  1  0.38196792  0.38339782  0.38271882  1
  O  O180  1  0.38474477  0.38090216  0.87786933  1
  O  O181  1  0.37549324  0.86923629  0.38919541  1
  O  O182  1  0.38564953  0.88277314  0.86866009  1
  O  O183  1  0.87654648  0.38752317  0.38455917  1
  O  O184  1  0.88129078  0.38073502  0.88272484  1
  O  O185  1  0.87517059  0.86447073  0.38873072  1
  O  O186  1  0.88752327  0.87251176  0.87365069  1
  O  O187  1  0.24557168  0.01031215  0.36562990  1
  O  O188  1  0.25581531  -0.00179732  0.86350190  1
  O  O189  1  0.25891211  0.50891675  0.37618487  1
  O  O190  1  0.25904939  0.50077696  0.86769224  1
  O  O191  1  0.74604761  0.02093513  0.37567403  1
  O  O192  1  0.73470831  0.01484608  0.86327013  1
  O  O193  1  0.75638582  0.49815371  0.36482279  1
  O  O194  1  0.76237773  0.49749965  0.87567162  1
  O  O195  1  0.24825188  0.48910802  0.12698695  1
  O  O196  1  0.24673303  0.49742504  0.62922727  1
  O  O197  1  0.24602010  0.99163502  0.13054922  1
  O  O198  1  0.24497821  1.00451250  0.63676197  1
  O  O199  1  0.74280935  0.49953453  0.14130271  1
  O  O200  1  0.73594812  0.50008473  0.62558858  1
  O  O201  1  0.73310714  1.00790144  0.13319022  1
  O  O202  1  0.73837532  1.00117029  0.62882335  1
  O  O203  1  0.00917086  0.36748863  0.25002274  1
  O  O204  1  0.00241680  0.36812995  0.75539842  1
  O  O205  1  0.00459597  0.86757380  0.25131075  1
  O  O206  1  -0.00216575  0.86916192  0.75889118  1
  O  O207  1  0.50809769  0.36799943  0.25828043  1
  O  O208  1  0.50953900  0.37675632  0.76347282  1
  O  O209  1  0.49252239  0.85419900  0.25547336  1
  O  O210  1  0.50964348  0.86941004  0.75415612  1
  O  O211  1  0.49976083  0.14117908  0.25311126  1
  O  O212  1  0.48737654  0.11684757  0.74187535  1
  O  O213  1  0.49696094  0.63973310  0.25908535  1
  O  O214  1  0.49669573  0.62978699  0.74514188  1
  O  O215  1  1.00705857  0.13281115  0.23344627  1
  O  O216  1  0.99431214  0.12998668  0.74271401  1
  O  O217  1  0.99179950  0.62825202  0.24428171  1
  O  O218  1  0.99114732  0.63520743  0.75627061  1
  O  O219  1  0.37227379  0.25775155  0.00788371  1
  O  O220  1  0.36997427  0.25715477  0.50932509  1
  O  O221  1  0.36583006  0.74361556  0.01128680  1
  O  O222  1  0.36911821  0.75547513  0.50673321  1
  O  O223  1  0.87821042  0.26372303  0.00202116  1
  O  O224  1  0.86749739  0.26207296  0.49723309  1
  O  O225  1  0.90364773  0.75337937  0.00563992  1
  O  O226  1  0.86726199  0.75134584  0.50082351  1
  O  O227  1  0.13014637  0.24817570  0.49245625  1
  O  O228  1  0.12424772  0.24414020  0.99064707  1
  O  O229  1  0.13069131  0.74895863  0.49367139  1
  O  O230  1  0.12856936  0.74403595  0.99303055  1
  O  O231  1  0.63890835  0.24343457  0.50614332  1
  O  O232  1  0.62932221  0.24387792  1.00636619  1
  O  O233  1  0.62890665  0.74244574  0.49278373  1
  O  O234  1  0.61428852  0.73764867  0.99252837  1
  O  O235  1  0.48913107  0.25192742  0.13427875  1
  O  O236  1  0.49496381  0.23725610  0.62092287  1
  O  O237  1  0.48623042  0.74987922  0.13034631  1
  O  O238  1  0.49501378  0.74489157  0.63014061  1
  O  O239  1  1.00100495  0.23620247  0.13107814  1
  O  O240  1  1.00851038  0.24269991  0.63296146  1
  O  O241  1  1.00608822  0.73719865  0.14062966  1
  O  O242  1  1.00482695  0.75268453  0.63813991  1
  O  O243  1  0.00985633  0.25121133  0.36748438  1
  O  O244  1  0.00913517  0.25563941  0.86825192  1
  O  O245  1  0.01014889  0.74264006  0.36337004  1
  O  O246  1  0.00849397  0.76115308  0.86343574  1
  O  O247  1  0.49329401  0.26231917  0.36957646  1
  O  O248  1  0.49384340  0.26538784  0.87825004  1
  O  O249  1  0.51063566  0.75289552  0.37391166  1
  O  O250  1  0.50539480  0.75556231  0.86867210  1
  O  O251  1  0.24459604  0.13075313  0.49441933  1
  O  O252  1  0.24006708  0.12839496  0.99394836  1
  O  O253  1  0.24457490  0.63704698  0.49034018  1
  O  O254  1  0.24115542  0.63502545  0.99863440  1
  O  O255  1  0.74627709  0.13215811  0.49637401  1
  O  O256  1  0.73190294  0.13097108  1.00015991  1
  O  O257  1  0.74058029  0.63232265  0.50230284  1
  O  O258  1  0.73755863  0.61627100  0.99770683  1
  O  O259  1  0.25622424  0.37379688  0.00772923  1
  O  O260  1  0.25655851  0.37104599  0.50529196  1
  O  O261  1  0.24212959  0.86282457  0.00699960  1
  O  O262  1  0.25588799  0.86402923  0.49725210  1
  O  O263  1  0.75884573  0.36270404  -0.00098919  1
  O  O264  1  0.75575271  0.36234508  0.49631858  1
  O  O265  1  0.75104010  0.88353656  0.00910748  1
  O  O266  1  0.75667207  0.86848161  0.50105384  1
  O  O267  1  0.12538413  0.48723716  0.25195463  1
  O  O268  1  0.13137195  0.50245043  0.74287328  1
  O  O269  1  0.12751971  0.98710339  0.24781881  1
  O  O270  1  0.14151658  1.00643297  0.74279398  1
  O  O271  1  0.63005498  0.49373601  0.24651930  1
  O  O272  1  0.62773825  0.49356505  0.74376990  1
  O  O273  1  0.62020262  1.00313207  0.24350346  1
  O  O274  1  0.61950672  0.99113456  0.73999044  1
  O  O275  1  0.36318506  -0.00704031  0.24707175  1
  O  O276  1  0.36597854  0.00466324  0.75382835  1
  O  O277  1  0.37459733  0.49433655  0.26342573  1
  O  O278  1  0.37184042  0.50474183  0.75320640  1
  O  O279  1  0.88696644  0.00171083  0.25128104  1
  O  O280  1  0.87815305  0.01248159  0.74274834  1
  O  O281  1  0.86833993  0.50221518  0.25735148  1
  O  O282  1  0.87454579  0.50479046  0.75832526  1
  O  O283  1  0.12598804  0.36482072  0.36911673  1
  O  O284  1  0.11755906  0.36902694  0.87381605  1
  O  O285  1  0.13053718  0.86314518  0.36755694  1
  O  O286  1  0.11801348  0.86432201  0.87433376  1
  O  O287  1  0.61463429  0.37911198  0.36592430  1
  O  O288  1  0.61474474  0.37657572  0.86465087  1
  O  O289  1  0.62139478  0.86309537  0.38329809  1
  O  O290  1  0.61712919  0.86809529  0.86781477  1
  O  O291  1  0.37207357  0.13879552  0.12193397  1
  O  O292  1  0.38269034  0.13055654  0.63077173  1
  O  O293  1  0.37021673  0.63369165  0.12503242  1
  O  O294  1  0.38301629  0.63408701  0.62805970  1
  O  O295  1  0.88498081  0.12271250  0.11908465  1
  O  O296  1  0.89090658  0.12252837  0.63125367  1
  O  O297  1  0.88194295  0.62439470  0.13403928  1
  O  O298  1  0.87466999  0.62383739  0.63761332  1
  O  O299  1  0.25494122  0.26088521  0.12561051  1
  O  O300  1  0.25438853  0.25623092  0.62026313  1
  O  O301  1  0.25802390  0.75350038  0.11941959  1
  O  O302  1  0.26047061  0.74483879  0.61522158  1
  O  O303  1  0.75441966  0.24293313  0.10612039  1
  O  O304  1  0.75652994  0.24484640  0.60845374  1
  O  O305  1  0.74141025  0.74691688  0.12380969  1
  O  O306  1  0.74853319  0.75129185  0.61076640  1
  O  O307  1  0.24466014  0.24601730  0.37961387  1
  O  O308  1  0.23681668  0.25107413  0.87322960  1
  O  O309  1  0.24489262  0.74503610  0.37971745  1
  O  O310  1  0.24470566  0.75007051  0.88233656  1
  O  O311  1  0.75193202  0.23555846  0.38923977  1
  O  O312  1  0.76081252  0.24037777  0.89860874  1
  O  O313  1  0.73519140  0.75002392  0.38487872  1
  O  O314  1  0.73816807  0.75046087  0.87380595  1
  O  O315  1  0.00451696  0.12226143  0.00674173  1
  O  O316  1  0.00609279  0.12196723  0.50585065  1
  O  O317  1  0.00654071  0.61798762  0.00744494  1
  O  O318  1  0.00558937  0.61346945  0.49656184  1
  O  O319  1  0.50686041  0.12533709  0.00689660  1
  O  O320  1  0.50740109  0.12082533  0.50774541  1
  O  O321  1  0.51090146  0.61008692  -0.00573236  1
  O  O322  1  0.50787607  0.61958373  0.50596995  1
  O  O323  1  0.49944917  0.37822994  0.49387682  1
  O  O324  1  0.49844719  0.38313930  0.98910959  1
  O  O325  1  0.49178846  0.88481795  0.49969069  1
  O  O326  1  0.50166538  0.87299404  0.98917319  1
  O  O327  1  0.99251449  0.38633014  0.49957548  1
  O  O328  1  0.99166650  0.37975696  0.99752009  1
  O  O329  1  0.99335150  0.88529732  0.50082321  1
  O  O330  1  1.00340026  0.88700806  0.98389377  1
  O  O331  1  0.49425269  0.49248525  0.38080668  1
  O  O332  1  0.49488288  0.49226949  0.88125188  1
  O  O333  1  0.50181376  1.00057368  0.39011383  1
  O  O334  1  0.49083609  0.98937578  0.87615413  1
  O  O335  1  0.99382461  0.49632104  0.38434519  1
  O  O336  1  0.99134353  0.49484376  0.88086565  1
  O  O337  1  1.01290095  1.00584984  0.38923773  1
  O  O338  1  1.00654852  0.98730076  0.87503573  1
  O  O339  1  0.00459807  0.01233166  0.11275711  1
  O  O340  1  0.01052095  0.00786053  0.61585569  1
  O  O341  1  0.00290769  0.51206416  0.12281518  1
  O  O342  1  0.01151541  0.49850432  0.61721888  1
  O  O343  1  0.50489465  0.00217007  0.12660481  1
  O  O344  1  0.50769236  0.00989166  0.61691475  1
  O  O345  1  0.50693560  0.49333019  0.11500980  1
  O  O346  1  0.50899758  0.50491875  0.61938680  1
  O  O347  1  0.24229850  0.37756662  0.24307714  1
  O  O348  1  0.24902075  0.38493505  0.74352202  1
  O  O349  1  0.24218969  0.88022514  0.24230672  1
  O  O350  1  0.25480437  0.88761382  0.74701115  1
  O  O351  1  0.74009888  0.37898065  0.25770892  1
  O  O352  1  0.73632405  0.37272308  0.75820520  1
  O  O353  1  0.75188162  0.88427010  0.24279258  1
  O  O354  1  0.73785138  0.87446153  0.74573577  1
  O  O355  1  0.24375008  0.11476305  0.25816569  1
  O  O356  1  0.26282725  0.11773146  0.75136739  1
  O  O357  1  0.24185747  0.62390000  0.26321264  1
  O  O358  1  0.25851660  0.61719548  0.75177195  1
  O  O359  1  0.74937076  0.12849627  0.26478142  1
  O  O360  1  0.77107658  0.13039179  0.74807518  1
  O  O361  1  0.76158298  0.61515843  0.25124512  1
  O  O362  1  0.76046520  0.62117466  0.75475871  1
  O  O363  1  0.36253023  0.13059003  0.38099944  1
  O  O364  1  0.37464513  0.11704324  0.86725795  1
  O  O365  1  0.36595969  0.61606416  0.38335495  1
  O  O366  1  0.37602949  0.61872422  0.86839496  1
  O  O367  1  0.86756249  0.12598245  0.37751605  1
  O  O368  1  0.88374161  0.12223915  0.86002910  1
  O  O369  1  0.88011038  0.61029144  0.36760322  1
  O  O370  1  0.87430365  0.61457707  0.86685871  1
  O  O371  1  0.13198610  0.37493965  0.13162451  1
  O  O372  1  0.13325186  0.38851070  0.62537063  1
  O  O373  1  0.13037693  0.87137389  0.13191981  1
  O  O374  1  0.12506914  0.88982859  0.62249968  1
  O  O375  1  0.62217846  0.38586353  0.13577568  1
  O  O376  1  0.61663208  0.38206476  0.64283078  1
  O  O377  1  0.62089660  0.89529165  0.12097634  1
  O  O378  1  0.62387900  0.88341284  0.63136184  1
  O  O379  1  0.12112909  0.25920987  0.25624970  1
  O  O380  1  0.11593205  0.24925962  0.75708829  1
  O  O381  1  0.11937984  0.75965639  0.25631026  1
  O  O382  1  0.12018106  0.74104008  0.76040148  1
  O  O383  1  0.61799461  0.25898007  0.24117733  1
  O  O384  1  0.62722166  0.25960844  0.74523489  1
  O  O385  1  0.61779109  0.74249002  0.26711205  1
  O  O386  1  0.62104227  0.75501755  0.75672786  1
  O  O387  1  0.38354079  0.26016511  0.24070987  1
  O  O388  1  0.37096399  0.24110974  0.74212186  1
  O  O389  1  0.37589728  0.74727542  0.23572872  1
  O  O390  1  0.37947009  0.74552722  0.74281599  1
  O  O391  1  0.88821854  0.25973898  0.25716923  1
  O  O392  1  0.88924186  0.24187878  0.75484056  1
  O  O393  1  0.88170815  0.73928701  0.25619712  1
  O  O394  1  0.88377823  0.74133689  0.74710707  1
  O  O395  1  0.38194144  0.49520118  0.49449698  1
  O  O396  1  0.38248768  0.49534909  0.99459274  1
  O  O397  1  0.38305254  0.99037883  0.50930981  1
  O  O398  1  0.37303401  1.00365130  0.98653183  1
  O  O399  1  0.87938960  0.49789800  0.49557840  1
  O  O400  1  0.87840574  0.49150924  0.99476426  1
  O  O401  1  0.88609281  0.99166282  0.50340513  1
  O  O402  1  0.88694776  1.00363273  0.99787905  1
  O  O403  1  0.11645479  0.00983865  -0.00238036  1
  O  O404  1  0.12329376  0.00620961  0.50728870  1
  O  O405  1  0.11893828  0.50852819  0.00052223  1
  O  O406  1  0.11786241  0.50403894  0.50458901  1
  O  O407  1  0.61628618  0.01274801  0.00189045  1
  O  O408  1  0.61932122  0.00753956  0.50799914  1
  O  O409  1  0.62099019  0.50084443  0.00819119  1
  O  O410  1  0.62160151  0.50480765  0.50532883  1
  O  O411  1  0.36781752  0.36970701  0.11921558  1
  O  O412  1  0.37340798  0.37094569  0.62137255  1
  O  O413  1  0.36124304  0.86536915  0.12493550  1
  O  O414  1  0.38221822  0.86324565  0.61801759  1
  O  O415  1  0.87731092  0.38116275  0.11173063  1
  O  O416  1  0.87442684  0.38392964  0.61408230  1
  O  O417  1  0.87500050  0.86121810  0.11330503  1
  O  O418  1  0.87337588  0.86898299  0.61223067  1
  O  O419  1  0.13223996  0.13771196  0.37971307  1
  O  O420  1  0.12356418  0.13333112  0.88334993  1
  O  O421  1  0.13172722  0.63488108  0.38068266  1
  O  O422  1  0.12493464  0.63325975  0.88692013  1
  O  O423  1  0.62461523  0.12871656  0.38969328  1
  O  O424  1  0.61458575  0.13079769  0.89001560  1
  O  O425  1  0.62042427  0.63023512  0.38737701  1
  O  O426  1  0.62756232  0.63315665  0.88319418  1
