# generated using pymatgen
data_V85Zn86O256
_symmetry_space_group_name_H-M   'P 1'
_cell_length_a   16.93123405
_cell_length_b   16.94236490
_cell_length_c   16.93462628
_cell_angle_alpha   90.06953815
_cell_angle_beta   90.04248461
_cell_angle_gamma   90.06608147
_symmetry_Int_Tables_number   1
_chemical_formula_structural   V85Zn86O256
_chemical_formula_sum   'V85 Zn86 O256'
_cell_volume   4857.77653388
_cell_formula_units_Z   1
loop_
 _symmetry_equiv_pos_site_id
 _symmetry_equiv_pos_as_xyz
  1  'x, y, z'
loop_
 _atom_site_type_symbol
 _atom_site_label
 _atom_site_symmetry_multiplicity
 _atom_site_fract_x
 _atom_site_fract_y
 _atom_site_fract_z
 _atom_site_occupancy
  V  V0  1  0.25315914  0.85869249  0.62199474  1
  V  V1  1  0.75049953  0.36831051  0.11984347  1
  V  V2  1  0.37333973  0.85961779  0.50227503  1
  V  V3  1  0.75948369  0.49616575  0.75647575  1
  V  V4  1  0.25050525  0.38227703  0.12784762  1
  V  V5  1  0.12084349  0.74941188  0.87697651  1
  V  V6  1  0.74505972  0.12739515  0.88356797  1
  V  V7  1  0.12515039  -0.00003218  0.12632272  1
  V  V8  1  0.87232711  0.13115735  0.24744357  1
  V  V9  1  0.37517558  0.24940972  0.12873345  1
  V  V10  1  0.38701895  0.88005204  0.00050064  1
  V  V11  1  0.25124180  0.87440689  0.12432433  1
  V  V12  1  0.50065076  0.49685135  0.49957613  1
  V  V13  1  -0.00176923  0.12899948  0.12316728  1
  V  V14  1  0.12373154  0.87557781  0.74941679  1
  V  V15  1  0.36053050  0.25285291  0.61553332  1
  V  V16  1  0.87864058  0.62516254  0.73250673  1
  V  V17  1  0.75374278  0.37096248  0.62556929  1
  V  V18  1  0.49550947  0.37268908  0.37801072  1
  V  V19  1  -0.01140873  0.62860429  0.13757189  1
  V  V20  1  0.75338646  -0.00602307  0.74203299  1
  V  V21  1  0.62937590  0.75277093  0.37553226  1
  V  V22  1  0.12648252  0.25211422  0.37834522  1
  V  V23  1  -0.00175110  0.00244992  0.49933488  1
  V  V24  1  0.36756757  0.49663210  0.36685145  1
  V  V25  1  0.49952685  0.12133952  0.11322682  1
  V  V26  1  -0.00561820  0.74778921  0.73607121  1
  V  V27  1  0.24881285  -0.00149499  0.25358376  1
  V  V28  1  0.74655508  0.00454371  0.25199308  1
  V  V29  1  0.49941523  0.00400940  0.51753463  1
  V  V30  1  0.37887988  0.12421424  0.74523220  1
  V  V31  1  0.62019182  0.00440536  0.10951978  1
  V  V32  1  0.61937658  0.75058931  0.87078111  1
  V  V33  1  0.62785604  0.62261993  -0.00179367  1
  V  V34  1  0.36863705  0.49956616  0.86765965  1
  V  V35  1  0.75508030  0.62341892  0.37178351  1
  V  V36  1  0.11340921  0.87190192  0.24956276  1
  V  V37  1  0.50410712  0.74928371  0.24921296  1
  V  V38  1  0.13291265  0.26650583  0.86960908  1
  V  V39  1  0.37500821  0.37717765  0.00277432  1
  V  V40  1  0.62495218  0.62342442  0.50218717  1
  V  V41  1  0.31743488  0.42943126  0.55416250  1
  V  V42  1  0.12630582  0.50341304  0.12697687  1
  V  V43  1  0.87395014  -0.00214760  0.88048878  1
  V  V44  1  0.12725205  0.00200113  0.62402545  1
  V  V45  1  0.39036386  0.00636251  0.87886352  1
  V  V46  1  0.51226415  0.62429807  0.12635035  1
  V  V47  1  0.62242028  0.86970535  0.73829984  1
  V  V48  1  0.76106777  0.62362599  0.87497384  1
  V  V49  1  0.12062371  0.12952244  0.50601601  1
  V  V50  1  0.12622504  0.37668264  0.24638405  1
  V  V51  1  0.87573603  0.50206408  0.36338412  1
  V  V52  1  -0.00082415  -0.00569678  -0.00010768  1
  V  V53  1  0.89010734  0.24678543  0.62292877  1
  V  V54  1  0.62810182  0.24812038  0.37726480  1
  V  V55  1  0.12036897  0.74967698  0.37027408  1
  V  V56  1  0.24777659  0.62326188  0.86557838  1
  V  V57  1  0.75506983  0.75305801  0.51180878  1
  V  V58  1  0.25557444  0.24462250  0.00554400  1
  V  V59  1  0.87243591  0.87304087  0.51118336  1
  V  V60  1  0.49855121  0.25214833  0.74017441  1
  V  V61  1  -0.00199907  0.25279836  0.23810432  1
  V  V62  1  0.24888649  0.62787356  0.36545371  1
  V  V63  1  0.12172112  0.63310482  0.50455837  1
  V  V64  1  0.88236089  0.12386661  0.74697835  1
  V  V65  1  0.12558824  0.62088387  -0.00030515  1
  V  V66  1  -0.00052058  0.50484877  0.50889609  1
  V  V67  1  0.62416527  0.38173846  0.24252128  1
  V  V68  1  -0.00634954  0.87184433  0.87782617  1
  V  V69  1  -0.00102167  0.37634193  0.37243653  1
  V  V70  1  0.24967584  0.12809642  0.38289528  1
  V  V71  1  0.87093003  0.35084894  -0.00093054  1
  V  V72  1  0.50061382  0.24536616  0.25023000  1
  V  V73  1  0.37791792  -0.00239971  0.37877775  1
  V  V74  1  0.62521519  0.87908549  0.24898355  1
  V  V75  1  0.12763562  0.12209406  -0.00219035  1
  V  V76  1  0.25552283  0.11883168  0.87557788  1
  V  V77  1  0.75855869  0.75674714  -0.00212038  1
  V  V78  1  0.75696226  0.88054307  0.11688967  1
  V  V79  1  0.62673244  0.37424174  0.75228708  1
  V  V80  1  0.50135521  0.50170536  0.00495778  1
  V  V81  1  0.50258906  0.37524976  0.87686145  1
  V  V82  1  0.37721980  0.74840087  0.12444476  1
  V  V83  1  -0.01883834  0.50563298  -0.00450368  1
  V  V84  1  0.87621630  0.37535543  0.49831974  1
  Zn  Zn85  1  0.87357013  0.00055847  0.37579137  1
  Zn  Zn86  1  0.49994827  0.87587162  0.37641857  1
  Zn  Zn87  1  0.49923391  0.87297663  0.86916933  1
  Zn  Zn88  1  0.38106647  0.64101085  0.74672635  1
  Zn  Zn89  1  -0.00556519  0.37846782  0.87249360  1
  Zn  Zn90  1  -0.00590801  0.87116641  0.37292567  1
  Zn  Zn91  1  0.63395615  0.24802556  0.88546849  1
  Zn  Zn92  1  0.37156025  0.62052656  0.24434237  1
  Zn  Zn93  1  0.37427712  0.12344727  0.25328774  1
  Zn  Zn94  1  0.49778816  0.64036882  0.62934310  1
  Zn  Zn95  1  0.62715903  0.49864343  0.62588725  1
  Zn  Zn96  1  0.12944339  0.38930013  0.73844915  1
  Zn  Zn97  1  0.25524002  -0.00255474  0.74708704  1
  Zn  Zn98  1  0.75097382  0.24632131  0.50173358  1
  Zn  Zn99  1  0.88380979  0.75906976  0.13549471  1
  Zn  Zn100  1  0.74991444  0.12719699  0.37884240  1
  Zn  Zn101  1  0.74832932  0.50220526  0.23860416  1
  Zn  Zn102  1  0.25035601  0.75038360  0.00005377  1
  Zn  Zn103  1  0.62270190  0.13030602  0.51597516  1
  Zn  Zn104  1  0.62807784  0.00593031  0.62764254  1
  Zn  Zn105  1  0.14033513  0.50041866  0.62679425  1
  Zn  Zn106  1  0.00600104  0.25086260  0.74975578  1
  Zn  Zn107  1  0.18662803  0.18685569  0.19095013  1
  Zn  Zn108  1  0.19177801  0.18793032  0.68838898  1
  Zn  Zn109  1  0.18601948  0.68845611  0.18749269  1
  Zn  Zn110  1  0.18045896  0.68508353  0.69223191  1
  Zn  Zn111  1  0.68418532  0.18889059  0.18354348  1
  Zn  Zn112  1  0.69250734  0.18511750  0.69211017  1
  Zn  Zn113  1  0.72578041  0.70854943  0.20606171  1
  Zn  Zn114  1  0.68697939  0.68482841  0.68687391  1
  Zn  Zn115  1  0.31075565  0.31302767  0.31371188  1
  Zn  Zn116  1  0.31066259  0.31164588  0.81373179  1
  Zn  Zn117  1  0.30929819  0.81069012  0.31293734  1
  Zn  Zn118  1  0.30774329  0.81528770  0.81736555  1
  Zn  Zn119  1  0.81117908  0.31391444  0.30770273  1
  Zn  Zn120  1  0.81731556  0.30681942  0.81401819  1
  Zn  Zn121  1  0.81694878  0.81788289  0.31519731  1
  Zn  Zn122  1  0.81140071  0.80969656  0.80807510  1
  Zn  Zn123  1  0.18350194  0.44440693  0.43585698  1
  Zn  Zn124  1  0.18898508  0.43003812  0.92407657  1
  Zn  Zn125  1  0.18792818  0.93473114  0.43954055  1
  Zn  Zn126  1  0.19137866  0.93525171  0.93765615  1
  Zn  Zn127  1  0.68839091  0.43408709  0.43433523  1
  Zn  Zn128  1  0.69187825  0.43867685  0.93957845  1
  Zn  Zn129  1  0.68858344  0.93955585  0.44039645  1
  Zn  Zn130  1  0.68671923  0.93744067  0.93006356  1
  Zn  Zn131  1  0.31856229  0.06037698  0.06541443  1
  Zn  Zn132  1  0.31333838  0.06165102  0.56435764  1
  Zn  Zn133  1  0.31242050  0.56476071  0.05883707  1
  Zn  Zn134  1  0.30435572  0.61258265  0.56225733  1
  Zn  Zn135  1  0.81347187  0.06591599  0.06254395  1
  Zn  Zn136  1  0.81196581  0.06665330  0.56152027  1
  Zn  Zn137  1  0.80495037  0.56120540  0.06889708  1
  Zn  Zn138  1  0.81017036  0.55727474  0.55888543  1
  Zn  Zn139  1  0.44130675  0.43815142  0.18887874  1
  Zn  Zn140  1  0.44797064  0.46978889  0.69945011  1
  Zn  Zn141  1  0.43897184  0.93718935  0.19002773  1
  Zn  Zn142  1  0.43944448  0.80887369  0.68829698  1
  Zn  Zn143  1  0.93525349  0.43657188  0.17829720  1
  Zn  Zn144  1  0.94299744  0.43525572  0.69168179  1
  Zn  Zn145  1  0.93410698  0.94459231  0.18716739  1
  Zn  Zn146  1  0.94156069  0.93995370  0.68665955  1
  Zn  Zn147  1  0.06031160  0.06397476  0.31530436  1
  Zn  Zn148  1  0.06470202  0.06294555  0.81261622  1
  Zn  Zn149  1  0.06236070  0.56122354  0.31236978  1
  Zn  Zn150  1  0.05990676  0.55820359  0.80814766  1
  Zn  Zn151  1  0.56186319  0.06432541  0.31234499  1
  Zn  Zn152  1  0.56482465  0.06323660  0.80128124  1
  Zn  Zn153  1  0.56278012  0.56356813  0.31572407  1
  Zn  Zn154  1  0.56616203  0.56102031  0.81347738  1
  Zn  Zn155  1  0.43837816  0.18495510  0.44068945  1
  Zn  Zn156  1  0.46325037  0.19781836  0.94419038  1
  Zn  Zn157  1  0.44131508  0.68292661  0.43480361  1
  Zn  Zn158  1  0.43478524  0.68824367  0.93434282  1
  Zn  Zn159  1  0.93901253  0.18855701  0.43322275  1
  Zn  Zn160  1  0.94397548  0.18304133  0.93022681  1
  Zn  Zn161  1  0.93870408  0.69009881  0.43455837  1
  Zn  Zn162  1  0.93654047  0.68864853  0.94058146  1
  Zn  Zn163  1  0.06695077  0.31998585  0.04511348  1
  Zn  Zn164  1  0.07092148  0.32202915  0.56309348  1
  Zn  Zn165  1  0.06112891  0.80929643  0.06346056  1
  Zn  Zn166  1  0.06209067  0.81595242  0.55867391  1
  Zn  Zn167  1  0.56856415  0.30826865  0.06144243  1
  Zn  Zn168  1  0.56226659  0.31339757  0.56384608  1
  Zn  Zn169  1  0.56985479  0.81109651  0.06108777  1
  Zn  Zn170  1  0.56733989  0.81978035  0.55651611  1
  O  O171  1  0.12089907  0.11801286  0.11947982  1
  O  O172  1  0.13234236  0.12000411  0.61295529  1
  O  O173  1  0.11778924  0.62041199  0.11932545  1
  O  O174  1  0.13188175  0.62411427  0.60734114  1
  O  O175  1  0.61671856  0.11280492  0.12579917  1
  O  O176  1  0.62620907  0.12066641  0.63085321  1
  O  O177  1  0.61469364  0.63060984  0.11350730  1
  O  O178  1  0.62543785  0.61880892  0.61290691  1
  O  O179  1  0.38428752  0.38196960  0.36765578  1
  O  O180  1  0.37820450  0.38125759  0.88592651  1
  O  O181  1  0.37200912  0.88192762  0.38312464  1
  O  O182  1  0.37671381  0.88699587  0.88425147  1
  O  O183  1  0.87916027  0.38087248  0.37869254  1
  O  O184  1  0.87678181  0.36710277  0.89368248  1
  O  O185  1  0.87683889  0.88193716  0.38405514  1
  O  O186  1  0.88630407  0.88084529  0.87006534  1
  O  O187  1  0.25761535  0.00413075  0.37148765  1
  O  O188  1  0.25765909  0.00841693  0.87421349  1
  O  O189  1  0.25863174  0.50878792  0.37498522  1
  O  O190  1  0.25905964  0.51264106  0.89215129  1
  O  O191  1  0.74750070  0.00486061  0.36265173  1
  O  O192  1  0.75950022  0.00535930  0.86835168  1
  O  O193  1  0.75984503  0.50529611  0.37545798  1
  O  O194  1  0.74875924  0.50724140  0.86391872  1
  O  O195  1  0.24105790  0.49348239  0.11937188  1
  O  O196  1  0.26121497  0.50169486  0.59856328  1
  O  O197  1  0.24508392  0.99611694  0.13523850  1
  O  O198  1  0.23963722  0.99343130  0.62544150  1
  O  O199  1  0.74638417  0.48289299  0.12445581  1
  O  O200  1  0.75176507  0.48693398  0.63523690  1
  O  O201  1  0.73862971  0.99905449  0.12829440  1
  O  O202  1  0.75550067  1.00118225  0.63959949  1
  O  O203  1  0.00453866  0.36946610  0.24935941  1
  O  O204  1  0.00945334  0.37181809  0.75782061  1
  O  O205  1  0.00979302  0.88310778  0.24943128  1
  O  O206  1  0.00427205  0.86797686  0.75695113  1
  O  O207  1  0.50597437  0.36481589  0.25448613  1
  O  O208  1  0.51071776  0.37991743  0.75695790  1
  O  O209  1  0.50876016  0.86776871  0.25263642  1
  O  O210  1  0.51946327  0.87695800  0.75059403  1
  O  O211  1  0.49832862  0.13617448  0.24549974  1
  O  O212  1  0.49075232  0.14044971  0.75667909  1
  O  O213  1  0.50167371  0.63049872  0.24146608  1
  O  O214  1  0.48919427  0.58264475  0.73562029  1
  O  O215  1  0.99496755  0.13297612  0.24429731  1
  O  O216  1  0.98661624  0.12260759  0.75418378  1
  O  O217  1  1.00116730  0.62128041  0.23545981  1
  O  O218  1  0.98443896  0.63217672  0.75529082  1
  O  O219  1  0.37438084  0.25694733  0.00928368  1
  O  O220  1  0.38003709  0.24732337  0.51700940  1
  O  O221  1  0.37552036  0.75666590  0.01075399  1
  O  O222  1  0.37784246  0.76018809  0.49092345  1
  O  O223  1  0.88331409  0.25332685  0.00335510  1
  O  O224  1  0.87572153  0.25627903  0.50562807  1
  O  O225  1  0.86079793  0.74674958  0.00813488  1
  O  O226  1  0.87004417  0.76338481  0.49533274  1
  O  O227  1  0.11605052  0.24369123  0.48634250  1
  O  O228  1  0.13629318  0.23207881  1.00006031  1
  O  O229  1  0.11818003  0.73952964  0.49039933  1
  O  O230  1  0.12202318  0.73726135  0.99503880  1
  O  O231  1  0.62571692  0.25049429  0.49145275  1
  O  O232  1  0.57256835  0.23678650  0.97834045  1
  O  O233  1  0.63332120  0.74563198  0.49178597  1
  O  O234  1  0.63160831  0.73952747  0.98995193  1
  O  O235  1  0.49507538  0.24166579  0.13360193  1
  O  O236  1  0.48783515  0.26408456  0.63722127  1
  O  O237  1  0.49733031  0.74374560  0.12875179  1
  O  O238  1  0.50826976  0.75257222  0.62114960  1
  O  O239  1  1.01272712  0.24812398  0.13305713  1
  O  O240  1  0.99259729  0.25520662  0.62414358  1
  O  O241  1  0.99730947  0.73498460  0.12246151  1
  O  O242  1  1.00571223  0.75379957  0.63740316  1
  O  O243  1  0.00709331  0.25719310  0.36290990  1
  O  O244  1  0.01815169  0.24823349  0.87322194  1
  O  O245  1  0.01327551  0.75199545  0.37121673  1
  O  O246  1  0.00163714  0.75724732  0.87209509  1
  O  O247  1  0.50217231  0.25564882  0.36876648  1
  O  O248  1  0.48294415  0.27153429  0.85584726  1
  O  O249  1  0.51381984  0.74932138  0.36888333  1
  O  O250  1  0.51618405  0.74704644  0.87837922  1
  O  O251  1  0.24068063  0.11908154  0.48821787  1
  O  O252  1  0.24580476  0.12281105  0.99753103  1
  O  O253  1  0.23142602  0.62777959  0.48169793  1
  O  O254  1  0.23951632  0.62996510  0.99616012  1
  O  O255  1  0.74332932  0.12801786  0.49596180  1
  O  O256  1  0.75264584  0.11925922  0.98301596  1
  O  O257  1  0.74412626  0.62916282  0.49215127  1
  O  O258  1  0.74368363  0.63008442  0.99373599  1
  O  O259  1  0.25620018  0.36750310  0.01188994  1
  O  O260  1  0.25856527  0.37699150  0.49285055  1
  O  O261  1  0.25819853  0.87183430  0.00883088  1
  O  O262  1  0.25765338  0.87782326  0.51326131  1
  O  O263  1  0.76107874  0.37357350  0.00509864  1
  O  O264  1  0.75729362  0.37376824  0.50963631  1
  O  O265  1  0.74551004  0.86957583  0.00371582  1
  O  O266  1  0.76275232  0.86892452  0.49770626  1
  O  O267  1  0.11856653  0.49295185  0.23470331  1
  O  O268  1  0.12910523  0.50587200  0.74170636  1
  O  O269  1  0.13069432  0.99461490  0.24798882  1
  O  O270  1  0.12610947  0.99457296  0.74095356  1
  O  O271  1  0.62082305  0.48366865  0.25672976  1
  O  O272  1  0.63800086  0.48710128  0.74992839  1
  O  O273  1  0.63125646  0.99750362  0.24490060  1
  O  O274  1  0.63618574  0.98710878  0.75118972  1
  O  O275  1  0.36489120  -0.00162229  0.25854559  1
  O  O276  1  0.37351797  0.01787383  0.76130985  1
  O  O277  1  0.38180479  0.50312114  0.26236260  1
  O  O278  1  0.35804844  0.48470070  0.76867252  1
  O  O279  1  0.86276957  0.00947793  0.25040229  1
  O  O280  1  0.87261665  0.00252357  0.75848192  1
  O  O281  1  0.87352318  0.49361052  0.26031856  1
  O  O282  1  0.87151315  0.51185205  0.74831946  1
  O  O283  1  0.12067385  0.36978566  0.36787411  1
  O  O284  1  0.10089375  0.35727493  0.92893674  1
  O  O285  1  0.12483535  0.86825772  0.36667555  1
  O  O286  1  0.11682827  0.87133116  0.86969866  1
  O  O287  1  0.61858611  0.36487051  0.36600927  1
  O  O288  1  0.61855207  0.37322761  0.87192300  1
  O  O289  1  0.62586029  0.86795718  0.36927218  1
  O  O290  1  0.62254689  0.86588641  0.86669973  1
  O  O291  1  0.37975769  0.13009301  0.13403611  1
  O  O292  1  0.36844464  0.13799649  0.63451935  1
  O  O293  1  0.38540650  0.63346772  0.12342232  1
  O  O294  1  0.38335265  0.62069031  0.63266716  1
  O  O295  1  0.88363994  0.12115567  0.13614703  1
  O  O296  1  0.87284689  0.13542384  0.63312184  1
  O  O297  1  0.88628551  0.62354125  0.12439735  1
  O  O298  1  0.87167827  0.62273099  0.63410548  1
  O  O299  1  0.25568188  0.25436057  0.12339267  1
  O  O300  1  0.26106566  0.25384362  0.62487405  1
  O  O301  1  0.26044342  0.75576236  0.12553138  1
  O  O302  1  0.24216065  0.75970691  0.62582514  1
  O  O303  1  0.74120480  0.26641937  0.12315835  1
  O  O304  1  0.76085233  0.26157905  0.62939645  1
  O  O305  1  0.73408030  0.76861552  0.10897397  1
  O  O306  1  0.74820429  0.74461986  0.61042609  1
  O  O307  1  0.23951420  0.23975126  0.36806257  1
  O  O308  1  0.25094587  0.23185766  0.88852152  1
  O  O309  1  0.23619809  0.74175935  0.36916005  1
  O  O310  1  0.23810224  0.74305189  0.87976615  1
  O  O311  1  0.74099178  0.25159456  0.37559186  1
  O  O312  1  0.75073863  0.23313827  0.87238118  1
  O  O313  1  0.74124456  0.74198628  0.38262532  1
  O  O314  1  0.74340338  0.74336282  0.88136243  1
  O  O315  1  0.01001671  0.11647913  0.00291756  1
  O  O316  1  0.00978900  0.11746862  0.49491418  1
  O  O317  1  0.00375269  0.61713390  0.00543798  1
  O  O318  1  0.01181346  0.61932421  0.49195022  1
  O  O319  1  0.48131681  0.11020166  0.01634175  1
  O  O320  1  0.50269915  0.10760902  0.49496599  1
  O  O321  1  0.50628718  0.61955114  0.00344857  1
  O  O322  1  0.50871044  0.61370131  0.49913625  1
  O  O323  1  0.50801269  0.37850909  0.48320410  1
  O  O324  1  0.49649524  0.38583402  0.99593317  1
  O  O325  1  0.49033804  0.88679127  0.49574504  1
  O  O326  1  0.48986053  0.86992307  0.99848773  1
  O  O327  1  0.99554666  0.38350735  0.49054839  1
  O  O328  1  0.97597561  0.39021291  1.01404545  1
  O  O329  1  0.98987631  0.88176184  0.49672900  1
  O  O330  1  1.00632813  0.88210672  0.99099320  1
  O  O331  1  0.49300478  0.49328552  0.38197109  1
  O  O332  1  0.49177765  0.49141752  0.88447509  1
  O  O333  1  0.48522749  0.99873706  0.37068313  1
  O  O334  1  0.49228106  1.00052795  0.87156721  1
  O  O335  1  0.99294492  0.49467712  0.37896868  1
  O  O336  1  1.00354940  0.49868079  0.89397784  1
  O  O337  1  1.00055393  0.99739852  0.38797721  1
  O  O338  1  0.99463457  0.99202856  0.87923902  1
  O  O339  1  0.00635194  0.00596971  0.11855975  1
  O  O340  1  0.01577509  -0.00550648  0.61307866  1
  O  O341  1  0.00427322  0.51041600  0.11525828  1
  O  O342  1  -0.00309414  0.49810767  0.60979851  1
  O  O343  1  0.51302544  0.00669853  0.13386241  1
  O  O344  1  0.49747053  -0.00027771  0.61435114  1
  O  O345  1  0.49742701  0.50825054  0.11339652  1
  O  O346  1  0.50768685  0.48323473  0.60334981  1
  O  O347  1  0.24311108  0.36999737  0.23527944  1
  O  O348  1  0.20434092  0.35687600  0.82350496  1
  O  O349  1  0.24279092  0.88532300  0.24556843  1
  O  O350  1  0.24245896  0.87625526  0.73924842  1
  O  O351  1  0.74153428  0.37632552  0.23854304  1
  O  O352  1  0.74974786  0.37925668  0.74875918  1
  O  O353  1  0.74194121  0.88893870  0.24037531  1
  O  O354  1  0.74174729  0.88438673  0.75771901  1
  O  O355  1  0.24676685  0.11236589  0.26104237  1
  O  O356  1  0.25922959  0.12434873  0.76073638  1
  O  O357  1  0.25139504  0.62609072  0.25921758  1
  O  O358  1  0.25170448  0.62947877  0.76346797  1
  O  O359  1  0.75617152  0.12181918  0.24745232  1
  O  O360  1  0.76452849  0.11492807  0.75884090  1
  O  O361  1  0.73108642  0.61367194  0.26898280  1
  O  O362  1  0.75965470  0.61730699  0.75397637  1
  O  O363  1  0.36577963  0.11853262  0.37474679  1
  O  O364  1  0.37221998  0.12214399  0.87437513  1
  O  O365  1  0.36620270  0.61735277  0.37351364  1
  O  O366  1  0.36654578  0.61625095  0.87528005  1
  O  O367  1  0.87405019  0.12314944  0.36056190  1
  O  O368  1  0.87014523  0.11584492  0.86864371  1
  O  O369  1  0.86566178  0.61647939  0.37950434  1
  O  O370  1  0.86282458  0.63022756  0.87100616  1
  O  O371  1  0.13186724  0.38403747  0.12319336  1
  O  O372  1  0.13665837  0.38382471  0.62465019  1
  O  O373  1  0.12957027  0.87965938  0.13126164  1
  O  O374  1  0.13463730  0.88122732  0.62656460  1
  O  O375  1  0.63013696  0.37287810  0.13082832  1
  O  O376  1  0.63657760  0.37332783  0.63470355  1
  O  O377  1  0.62864584  0.88844931  0.12907608  1
  O  O378  1  0.62981296  0.88105465  0.63614083  1
  O  O379  1  0.11796851  0.25505876  0.25828136  1
  O  O380  1  0.12419937  0.24076872  0.76369653  1
  O  O381  1  0.12809831  0.76283837  0.25407755  1
  O  O382  1  0.11372837  0.75357478  0.75846312  1
  O  O383  1  0.61633833  0.25783513  0.25463407  1
  O  O384  1  0.61720206  0.26122796  0.75610487  1
  O  O385  1  0.62723181  0.75916854  0.25712601  1
  O  O386  1  0.63650586  0.76164653  0.75575296  1
  O  O387  1  0.38348100  0.24942818  0.24598758  1
  O  O388  1  0.37621404  0.24663344  0.74137517  1
  O  O389  1  0.38256669  0.75055059  0.23858044  1
  O  O390  1  0.38471277  0.75307175  0.76800650  1
  O  O391  1  0.88592420  0.24435676  0.25053316  1
  O  O392  1  0.88108497  0.24125870  0.74206824  1
  O  O393  1  0.83348326  0.74480685  0.23534249  1
  O  O394  1  0.87900642  0.73585653  0.75019124  1
  O  O395  1  0.38268034  0.48936381  0.49032105  1
  O  O396  1  0.38417735  0.49557968  0.99650701  1
  O  O397  1  0.38274491  0.99458655  0.49549941  1
  O  O398  1  0.37119613  0.99020469  0.99247069  1
  O  O399  1  0.88129492  0.49425420  0.49053822  1
  O  O400  1  0.88136931  0.50770360  0.99734192  1
  O  O401  1  0.88181921  0.99329697  0.50054602  1
  O  O402  1  0.88203056  1.00361422  0.98788036  1
  O  O403  1  0.12283118  0.00661569  0.00451424  1
  O  O404  1  0.11939100  0.00757370  0.50418172  1
  O  O405  1  0.11778093  0.51050090  0.00944887  1
  O  O406  1  0.11468173  0.51402819  0.49676132  1
  O  O407  1  0.62442389  -0.00336707  0.01138913  1
  O  O408  1  0.60986101  -0.00375942  0.50258700  1
  O  O409  1  0.61748042  0.51422180  -0.00910684  1
  O  O410  1  0.62028864  0.50764645  0.49569798  1
  O  O411  1  0.36931271  0.37251345  0.12280627  1
  O  O412  1  0.36867646  0.37217028  0.62432491  1
  O  O413  1  0.37273090  0.86997480  0.11976754  1
  O  O414  1  0.36053996  0.87125797  0.61921436  1
  O  O415  1  0.86094940  0.37361900  0.11443016  1
  O  O416  1  0.87179447  0.36860127  0.62013734  1
  O  O417  1  0.86099600  0.87946391  0.12489321  1
  O  O418  1  0.87949908  0.87798577  0.61054111  1
  O  O419  1  0.12967757  0.13287515  0.38217172  1
  O  O420  1  0.13584667  0.12518969  0.88354102  1
  O  O421  1  0.12913991  0.63124788  0.37553291  1
  O  O422  1  0.12914513  0.62763220  0.88276936  1
  O  O423  1  0.62381813  0.14082207  0.37189500  1
  O  O424  1  0.64272300  0.12184904  0.86576022  1
  O  O425  1  0.62866022  0.63198834  0.38650614  1
  O  O426  1  0.63509094  0.63049409  0.87693449  1
