# generated using pymatgen
data_V85Zn86O256
_symmetry_space_group_name_H-M   'P 1'
_cell_length_a   16.96609161
_cell_length_b   16.95197458
_cell_length_c   16.95490434
_cell_angle_alpha   90.00317251
_cell_angle_beta   90.03202855
_cell_angle_gamma   89.96027976
_symmetry_Int_Tables_number   1
_chemical_formula_structural   V85Zn86O256
_chemical_formula_sum   'V85 Zn86 O256'
_cell_volume   4876.37696589
_cell_formula_units_Z   1
loop_
 _symmetry_equiv_pos_site_id
 _symmetry_equiv_pos_as_xyz
  1  'x, y, z'
loop_
 _atom_site_type_symbol
 _atom_site_label
 _atom_site_symmetry_multiplicity
 _atom_site_fract_x
 _atom_site_fract_y
 _atom_site_fract_z
 _atom_site_occupancy
  V  V0  1  0.62423314  0.36980665  0.25507396  1
  V  V1  1  0.12462536  0.62760871  0.49886364  1
  V  V2  1  0.62189292  0.86428613  0.74773298  1
  V  V3  1  0.75297443  0.11165343  0.38487838  1
  V  V4  1  0.12325937  0.12569593  0.50804243  1
  V  V5  1  0.37432986  0.74848301  0.12950054  1
  V  V6  1  0.37518017  0.87527105  0.00099963  1
  V  V7  1  0.00756290  0.50660331  -0.00085055  1
  V  V8  1  0.00022043  0.74861567  0.75230372  1
  V  V9  1  0.86962110  0.87764014  -0.00332702  1
  V  V10  1  0.25316154  0.38325435  0.12870306  1
  V  V11  1  0.49579982  0.63809917  0.62750152  1
  V  V12  1  0.12473529  0.38493103  0.24760278  1
  V  V13  1  0.74994314  0.00122518  0.23238773  1
  V  V14  1  0.86462554  0.62170151  0.74999970  1
  V  V15  1  0.63217960  0.50234287  0.62747068  1
  V  V16  1  0.24905681  0.24584718  0.49862704  1
  V  V17  1  0.00292889  0.88685014  0.37318271  1
  V  V18  1  0.87380627  0.37357495  0.49810624  1
  V  V19  1  0.88012637  0.11921255  0.75212734  1
  V  V20  1  0.00019037  0.75123490  0.24974314  1
  V  V21  1  0.00566896  0.62937172  0.12445332  1
  V  V22  1  0.00051764  0.49949431  0.50019880  1
  V  V23  1  0.36926454  0.01314068  0.36894494  1
  V  V24  1  0.38028393  0.24936893  0.14111790  1
  V  V25  1  0.74967636  0.62464336  0.88057528  1
  V  V26  1  0.87057555  0.75091120  0.12051587  1
  V  V27  1  0.24765569  0.61905369  0.36974096  1
  V  V28  1  0.88017891  0.24406396  0.62512800  1
  V  V29  1  0.12607892  0.24983928  0.87638132  1
  V  V30  1  0.50222076  0.12674718  0.62351626  1
  V  V31  1  0.62405352  0.62686341  0.00128029  1
  V  V32  1  0.62146588  0.49499280  0.12362613  1
  V  V33  1  0.74582339  0.24787909  0.50289108  1
  V  V34  1  0.62373948  0.24259525  0.38112883  1
  V  V35  1  0.50778197  0.74372883  0.25371199  1
  V  V36  1  0.49481234  0.49667283  -0.00279938  1
  V  V37  1  0.37422216  0.49611661  0.87326294  1
  V  V38  1  0.00244966  0.24451482  0.74754716  1
  V  V39  1  0.24857931  -0.00022249  0.74786526  1
  V  V40  1  0.63262157  0.37847486  0.75110004  1
  V  V41  1  0.51319495  0.00559500  0.00422925  1
  V  V42  1  0.25455273  0.74872706  0.50552994  1
  V  V43  1  0.87495845  0.75126802  0.62109484  1
  V  V44  1  0.74715399  0.24917284  -0.00156769  1
  V  V45  1  0.00017525  0.00082742  -0.00041319  1
  V  V46  1  0.50124577  0.25089218  0.74855710  1
  V  V47  1  0.86962594  0.51453038  0.37276667  1
  V  V48  1  0.37507754  0.00137197  0.87615497  1
  V  V49  1  -0.00460773  0.00719263  0.50509330  1
  V  V50  1  0.75402497  -0.00190766  0.75556333  1
  V  V51  1  0.49695264  0.37174443  0.37696139  1
  V  V52  1  0.25176134  0.49698504  0.74045446  1
  V  V53  1  0.37480411  0.63785974  0.74747237  1
  V  V54  1  0.62869528  0.74936722  0.87699171  1
  V  V55  1  0.75140929  0.87628982  0.62261913  1
  V  V56  1  0.12743194  0.24561255  0.37211869  1
  V  V57  1  0.36997397  0.25445916  0.62602037  1
  V  V58  1  0.36620785  0.37668605  0.50141315  1
  V  V59  1  0.26006132  0.25563144  -0.00052668  1
  V  V60  1  -0.00342610  0.25096536  0.24933312  1
  V  V61  1  -0.00300823  0.88088011  0.87410856  1
  V  V62  1  0.49958440  0.37359560  0.87834647  1
  V  V63  1  0.86971345  0.49895053  0.87171911  1
  V  V64  1  0.12982605  0.37311269  0.74197624  1
  V  V65  1  0.50263368  0.00127787  0.50071659  1
  V  V66  1  0.00044747  0.62478404  0.62681937  1
  V  V67  1  0.62451390  0.87766925  0.24348586  1
  V  V68  1  0.87721877  0.37829845  0.00128648  1
  V  V69  1  0.75115775  0.37482290  0.12812195  1
  V  V70  1  0.62510936  0.00445603  0.62598619  1
  V  V71  1  0.24826888  0.74559074  0.00227068  1
  V  V72  1  0.24436769  0.62292530  0.87614793  1
  V  V73  1  -0.00047337  0.11897239  0.12801499  1
  V  V74  1  0.12763283  0.12231823  0.00360282  1
  V  V75  1  0.49963049  0.50128422  0.50396087  1
  V  V76  1  0.87351447  0.87885799  0.49152810  1
  V  V77  1  0.37003663  0.61397265  0.24851341  1
  V  V78  1  0.00129136  0.37543520  0.87419645  1
  V  V79  1  0.37438566  0.87259560  0.50403832  1
  V  V80  1  0.24757825  0.88536614  0.13229621  1
  V  V81  1  0.74755193  0.12322500  0.87731624  1
  V  V82  1  0.12320074  0.74923201  0.87911162  1
  V  V83  1  0.50107020  0.87001444  0.37413843  1
  V  V84  1  0.49867448  0.86800078  0.87190257  1
  Zn  Zn85  1  0.74678984  0.74408680  0.46895881  1
  Zn  Zn86  1  0.24660523  0.02698897  0.24618614  1
  Zn  Zn87  1  -0.00110358  0.37592117  0.37248296  1
  Zn  Zn88  1  0.49663248  0.62109213  0.12361052  1
  Zn  Zn89  1  0.87410460  0.12118323  0.25279448  1
  Zn  Zn90  1  0.62304770  0.24371434  0.87306281  1
  Zn  Zn91  1  0.25142156  0.12454336  0.87651040  1
  Zn  Zn92  1  0.87548776  0.24937907  0.12492339  1
  Zn  Zn93  1  0.12436762  0.88534899  0.24805659  1
  Zn  Zn94  1  0.12630916  0.75370201  0.37205262  1
  Zn  Zn95  1  0.37473541  0.12491921  0.75017031  1
  Zn  Zn96  1  0.12451909  0.87545282  0.74645000  1
  Zn  Zn97  1  0.36883908  0.49303348  0.36992115  1
  Zn  Zn98  1  0.74542049  0.50614187  0.26334160  1
  Zn  Zn99  1  0.12948749  0.49576660  0.62062509  1
  Zn  Zn100  1  0.62848644  0.62971604  0.47181136  1
  Zn  Zn101  1  0.75340654  0.37732761  0.63033990  1
  Zn  Zn102  1  0.74037391  0.87029448  0.11394904  1
  Zn  Zn103  1  0.12455584  -0.00128102  0.62493667  1
  Zn  Zn104  1  0.50512750  0.11593678  0.13767431  1
  Zn  Zn105  1  0.25021696  0.87272113  0.62518207  1
  Zn  Zn106  1  0.12780037  0.50677712  0.12405697  1
  Zn  Zn107  1  0.18351630  0.19620205  0.18105283  1
  Zn  Zn108  1  0.19139331  0.18477717  0.68623556  1
  Zn  Zn109  1  0.18358491  0.69138981  0.18929121  1
  Zn  Zn110  1  0.18686575  0.68674713  0.68775682  1
  Zn  Zn111  1  0.64638850  0.16124479  0.21157328  1
  Zn  Zn112  1  0.68966250  0.18734483  0.68929055  1
  Zn  Zn113  1  0.69831641  0.67868557  0.29452136  1
  Zn  Zn114  1  0.68572041  0.68894276  0.61514658  1
  Zn  Zn115  1  0.31506039  0.19760390  0.31506980  1
  Zn  Zn116  1  0.31268991  0.31301882  0.81256801  1
  Zn  Zn117  1  0.31635028  0.80837490  0.31780683  1
  Zn  Zn118  1  0.30924763  0.81573610  0.81353470  1
  Zn  Zn119  1  0.81009957  0.31219759  0.31474165  1
  Zn  Zn120  1  0.81386044  0.30937104  0.81247401  1
  Zn  Zn121  1  0.81949878  0.82194743  0.30361701  1
  Zn  Zn122  1  0.81158832  0.80904609  0.81209287  1
  Zn  Zn123  1  0.18701345  0.43498034  0.43312274  1
  Zn  Zn124  1  0.18822786  0.43417650  0.93670915  1
  Zn  Zn125  1  0.18728842  0.94021772  0.43576732  1
  Zn  Zn126  1  0.18630134  0.93589914  0.93890855  1
  Zn  Zn127  1  0.68692022  0.43860847  0.44283852  1
  Zn  Zn128  1  0.68672897  0.43611852  0.93856474  1
  Zn  Zn129  1  0.68254793  0.92940945  0.43735159  1
  Zn  Zn130  1  0.68746023  0.93831865  0.93334428  1
  Zn  Zn131  1  0.32085540  0.06941122  0.06391459  1
  Zn  Zn132  1  0.31347837  0.06477830  0.56162623  1
  Zn  Zn133  1  0.31243315  0.56144061  0.06021696  1
  Zn  Zn134  1  0.31453435  0.56475485  0.56162700  1
  Zn  Zn135  1  0.81798574  0.06433711  0.06029690  1
  Zn  Zn136  1  0.81486407  0.06243800  0.56574714  1
  Zn  Zn137  1  0.76991834  0.61137856  0.11187321  1
  Zn  Zn138  1  0.81268381  0.56216605  0.55950150  1
  Zn  Zn139  1  0.43958917  0.42629651  0.18816808  1
  Zn  Zn140  1  0.43991198  0.43813995  0.68847373  1
  Zn  Zn141  1  0.43547458  0.93755197  0.18846214  1
  Zn  Zn142  1  0.43602331  0.93490131  0.68877475  1
  Zn  Zn143  1  0.93844713  0.44274287  0.18780880  1
  Zn  Zn144  1  0.93913189  0.43495548  0.68667436  1
  Zn  Zn145  1  0.93414831  0.93864473  0.18612147  1
  Zn  Zn146  1  0.93979020  0.93708661  0.68445470  1
  Zn  Zn147  1  0.06946576  0.06363190  0.31302952  1
  Zn  Zn148  1  0.06512367  0.06204345  0.81474846  1
  Zn  Zn149  1  0.05562729  0.56665849  0.31272417  1
  Zn  Zn150  1  0.06286643  0.56101412  0.81157417  1
  Zn  Zn151  1  0.56462238  0.05595618  0.32026791  1
  Zn  Zn152  1  0.56335814  0.05870895  0.81182710  1
  Zn  Zn153  1  0.55440528  0.55428313  0.30908572  1
  Zn  Zn154  1  0.56205446  0.56521938  0.80667665  1
  Zn  Zn155  1  0.44246600  0.18752908  0.44351153  1
  Zn  Zn156  1  0.43893888  0.18538907  0.93700685  1
  Zn  Zn157  1  0.43559482  0.68442625  0.43649609  1
  Zn  Zn158  1  0.43648106  0.68604925  0.93537844  1
  Zn  Zn159  1  0.93617870  0.18586763  0.43369226  1
  Zn  Zn160  1  0.93467142  0.18671855  0.93488107  1
  Zn  Zn161  1  0.93899561  0.69356741  0.43556554  1
  Zn  Zn162  1  0.93700125  0.68732894  0.94160713  1
  Zn  Zn163  1  0.06388950  0.31082270  0.06357248  1
  Zn  Zn164  1  0.06063212  0.31161832  0.56222310  1
  Zn  Zn165  1  0.06529076  0.81517182  0.06134589  1
  Zn  Zn166  1  0.06362036  0.81610217  0.56122530  1
  Zn  Zn167  1  0.58219395  0.27397164  0.08490773  1
  Zn  Zn168  1  0.56249781  0.31608151  0.56347398  1
  Zn  Zn169  1  0.55853578  0.81106615  0.06201215  1
  Zn  Zn170  1  0.56234434  0.81450316  0.55963592  1
  O  O171  1  0.11486520  0.13333218  0.11015946  1
  O  O172  1  0.12396553  0.12674854  0.61203924  1
  O  O173  1  0.11245968  0.62516611  0.12641147  1
  O  O174  1  0.11806513  0.62141103  0.61707811  1
  O  O175  1  0.60695315  0.16555444  0.10733904  1
  O  O176  1  0.62014665  0.11189319  0.63088229  1
  O  O177  1  0.61494829  0.60805223  0.11339358  1
  O  O178  1  0.60549734  0.61326808  0.63991649  1
  O  O179  1  0.38602267  0.37538972  0.38820657  1
  O  O180  1  0.38213541  0.38883576  0.86741191  1
  O  O181  1  0.38416108  0.88390715  0.38282341  1
  O  O182  1  0.38228421  0.87907538  0.87965445  1
  O  O183  1  0.87680148  0.37571446  0.38954394  1
  O  O184  1  0.88080225  0.38142030  0.87681931  1
  O  O185  1  0.88399842  0.87530361  0.38625996  1
  O  O186  1  0.88694643  0.86510271  0.88260142  1
  O  O187  1  0.26890337  0.00036964  0.37933124  1
  O  O188  1  0.25841390  -0.00169956  0.86991288  1
  O  O189  1  0.25087168  0.51388204  0.37935766  1
  O  O190  1  0.25565288  0.50616164  0.87074960  1
  O  O191  1  0.74416156  0.01083354  0.38070745  1
  O  O192  1  0.74975011  0.00510833  0.86289529  1
  O  O193  1  0.76517674  0.49668212  0.38068319  1
  O  O194  1  0.76335847  0.50569958  0.88148868  1
  O  O195  1  0.24484101  0.48827914  0.11601058  1
  O  O196  1  0.24926607  0.50441890  0.63704825  1
  O  O197  1  0.26506930  0.98774104  0.12811480  1
  O  O198  1  0.25065781  0.99971993  0.63412005  1
  O  O199  1  0.73052099  0.48434085  0.11290420  1
  O  O200  1  0.73584621  0.49792240  0.62281559  1
  O  O201  1  0.74650431  1.00256323  0.13080501  1
  O  O202  1  0.74219377  0.99540211  0.63154250  1
  O  O203  1  0.00605550  0.36753503  0.24824644  1
  O  O204  1  0.00747038  0.36697822  0.75554048  1
  O  O205  1  0.00108226  0.87625398  0.25801993  1
  O  O206  1  -0.00091439  0.86773933  0.75817165  1
  O  O207  1  0.50847657  0.37768919  0.26806394  1
  O  O208  1  0.50731391  0.36962578  0.75721081  1
  O  O209  1  0.50412523  0.86953945  0.25547281  1
  O  O210  1  0.50922752  0.88115616  0.75983484  1
  O  O211  1  0.53633288  0.13132434  0.24646223  1
  O  O212  1  0.49955969  0.12946056  0.73989827  1
  O  O213  1  0.48856143  0.63000588  0.24605061  1
  O  O214  1  0.48717838  0.62148968  0.73835786  1
  O  O215  1  0.99945542  0.13075533  0.24384485  1
  O  O216  1  0.99306654  0.13201246  0.75657317  1
  O  O217  1  1.00030726  0.63849682  0.24114986  1
  O  O218  1  0.99498149  0.63010055  0.74486234  1
  O  O219  1  0.36087891  0.24910560  -0.00742640  1
  O  O220  1  0.36742467  0.25515948  0.50592336  1
  O  O221  1  0.36913859  0.75410781  0.00699487  1
  O  O222  1  0.36638244  0.75908772  0.49378701  1
  O  O223  1  0.87053576  0.26394617  -0.00290908  1
  O  O224  1  0.86996619  0.25445343  0.50657165  1
  O  O225  1  0.88549060  0.76413794  0.01068360  1
  O  O226  1  0.87328914  0.75805116  0.50786914  1
  O  O227  1  0.13056241  0.24819461  0.49528798  1
  O  O228  1  0.13165071  0.24406888  0.99317154  1
  O  O229  1  0.12830391  0.73792352  0.49798488  1
  O  O230  1  0.13378422  0.75375993  0.98790915  1
  O  O231  1  0.63896924  0.25571913  0.49860557  1
  O  O232  1  0.64573688  0.26631054  0.98724117  1
  O  O233  1  0.63618637  0.74247428  0.51804082  1
  O  O234  1  0.61678331  0.73965847  0.99066774  1
  O  O235  1  0.47191323  0.28044851  0.11325186  1
  O  O236  1  0.49631171  0.24273828  0.62787322  1
  O  O237  1  0.48659992  0.74770440  0.13154513  1
  O  O238  1  0.49981597  0.73636963  0.62340079  1
  O  O239  1  0.99805277  0.24066490  0.13203828  1
  O  O240  1  0.98757798  0.25288824  0.63037212  1
  O  O241  1  1.00017926  0.74763831  0.12862507  1
  O  O242  1  0.99037410  0.74674565  0.62947223  1
  O  O243  1  0.00617966  0.25321366  0.36696500  1
  O  O244  1  0.00746159  0.25533414  0.86952501  1
  O  O245  1  -0.00064920  0.76153166  0.36532278  1
  O  O246  1  0.00810637  0.75374847  0.87313590  1
  O  O247  1  0.51469918  0.25816876  0.39022746  1
  O  O248  1  0.50087474  0.25652016  0.86817175  1
  O  O249  1  0.48983258  0.75826485  0.36510818  1
  O  O250  1  0.50744977  0.76084788  0.87765328  1
  O  O251  1  0.24073126  0.13544691  0.50262468  1
  O  O252  1  0.24252534  0.13240899  1.00109090  1
  O  O253  1  0.24299788  0.62913380  0.49490104  1
  O  O254  1  0.25573050  0.63717693  0.99129984  1
  O  O255  1  0.75525478  0.13124600  0.49245726  1
  O  O256  1  0.76215861  0.13524317  0.98886618  1
  O  O257  1  0.73969792  0.63613405  0.52061099  1
  O  O258  1  0.73149195  0.62032567  0.99947455  1
  O  O259  1  0.24052494  0.36522049  0.01273630  1
  O  O260  1  0.26115852  0.37128633  0.49923504  1
  O  O261  1  0.25601216  0.86634327  0.00849186  1
  O  O262  1  0.25746439  0.86642073  0.49768747  1
  O  O263  1  0.76077275  0.37203018  0.00267282  1
  O  O264  1  0.75808081  0.36592299  0.50491101  1
  O  O265  1  0.76476396  0.88350488  -0.00239382  1
  O  O266  1  0.75767199  0.87301369  0.50533375  1
  O  O267  1  0.11511684  0.48805334  0.24999513  1
  O  O268  1  0.13353238  0.49118356  0.74912997  1
  O  O269  1  0.13822305  0.99685360  0.25855294  1
  O  O270  1  0.13443322  0.99898721  0.74876478  1
  O  O271  1  0.62185214  0.48545658  0.23928718  1
  O  O272  1  0.61803838  0.48922306  0.74095188  1
  O  O273  1  0.63824556  0.98809597  0.25599170  1
  O  O274  1  0.63352748  0.99111437  0.74368291  1
  O  O275  1  0.37400123  -0.00076909  0.26650671  1
  O  O276  1  0.36984202  -0.00120686  0.76103121  1
  O  O277  1  0.38063115  0.51072835  0.24841971  1
  O  O278  1  0.36770132  0.50571336  0.75535492  1
  O  O279  1  0.85474577  0.00033528  0.24811630  1
  O  O280  1  0.86641064  0.00669425  0.74172835  1
  O  O281  1  0.87792086  0.49479259  0.27150589  1
  O  O282  1  0.88417312  0.50765802  0.76010924  1
  O  O283  1  0.12253061  0.36596924  0.36632925  1
  O  O284  1  0.12029092  0.36864910  0.86488900  1
  O  O285  1  0.11515624  0.87207182  0.37743728  1
  O  O286  1  0.11566603  0.86606059  0.87306112  1
  O  O287  1  0.62007700  0.37012698  0.37395835  1
  O  O288  1  0.61733065  0.37693150  0.86495328  1
  O  O289  1  0.60835414  0.87686360  0.36586950  1
  O  O290  1  0.61928788  0.86733806  0.87002413  1
  O  O291  1  0.38725991  0.14455628  0.12130819  1
  O  O292  1  0.38378481  0.13651804  0.62626709  1
  O  O293  1  0.37407694  0.63108610  0.13058012  1
  O  O294  1  0.38683882  0.62174734  0.63227598  1
  O  O295  1  0.88412571  0.12931581  0.13048038  1
  O  O296  1  0.87159707  0.13352048  0.63796122  1
  O  O297  1  0.88749500  0.64563287  0.11467660  1
  O  O298  1  0.88048726  0.63065479  0.63235944  1
  O  O299  1  0.26168303  0.25985515  0.11646771  1
  O  O300  1  0.25993793  0.24893115  0.61636184  1
  O  O301  1  0.25779679  0.75328604  0.11794398  1
  O  O302  1  0.24683041  0.74777375  0.61012996  1
  O  O303  1  0.75674731  0.26603994  0.11442245  1
  O  O304  1  0.76049978  0.24987258  0.61905015  1
  O  O305  1  0.77023629  0.75113062  0.12294047  1
  O  O306  1  0.76853035  0.76209814  0.64019559  1
  O  O307  1  0.24244307  0.25384009  0.38942275  1
  O  O308  1  0.24224121  0.25011429  0.88083776  1
  O  O309  1  0.24778650  0.73914882  0.38526328  1
  O  O310  1  0.24369366  0.74444973  0.88174425  1
  O  O311  1  0.74418893  0.24374062  0.38608209  1
  O  O312  1  0.75091017  0.24037560  0.87936591  1
  O  O313  1  0.75411358  0.75261357  0.35890854  1
  O  O314  1  0.73641594  0.74361116  0.87372436  1
  O  O315  1  0.00301694  0.11936035  0.00436859  1
  O  O316  1  0.00531208  0.11686574  0.49482075  1
  O  O317  1  -0.00081165  0.61583460  0.00653662  1
  O  O318  1  0.00657822  0.62063019  0.50418172  1
  O  O319  1  0.49925529  0.10605053  -0.00724308  1
  O  O320  1  0.49994865  0.11644602  0.51469620  1
  O  O321  1  0.50638749  0.61535325  -0.00258516  1
  O  O322  1  0.49915458  0.61857040  0.51058571  1
  O  O323  1  0.49366978  0.38222780  0.49600358  1
  O  O324  1  0.50427761  0.38349882  0.98057190  1
  O  O325  1  0.49393072  0.87997614  0.49329597  1
  O  O326  1  0.49274392  0.88172251  0.99262003  1
  O  O327  1  0.99389181  0.38386779  0.49899819  1
  O  O328  1  0.99516080  0.37789962  0.99401633  1
  O  O329  1  0.99294240  0.88110454  0.49222848  1
  O  O330  1  0.99716336  0.88365516  0.99402168  1
  O  O331  1  0.49580225  0.49104038  0.38903194  1
  O  O332  1  0.49163692  0.49663019  0.87651723  1
  O  O333  1  0.49186773  0.99478010  0.38469526  1
  O  O334  1  0.49460432  0.98971974  0.88129757  1
  O  O335  1  0.99022027  0.49959396  0.38667393  1
  O  O336  1  0.99433478  0.49568884  0.88022770  1
  O  O337  1  1.00230605  0.99227524  0.38533569  1
  O  O338  1  1.00310834  0.98810483  0.88110907  1
  O  O339  1  -0.00113704  0.01194458  0.11895311  1
  O  O340  1  0.00453630  -0.00432296  0.60966371  1
  O  O341  1  -0.00103281  0.51136069  0.11662045  1
  O  O342  1  0.00038086  0.50476526  0.61311652  1
  O  O343  1  0.49122141  -0.00091700  0.10851090  1
  O  O344  1  0.50462902  0.00616970  0.62151976  1
  O  O345  1  0.50564468  0.49097244  0.11397601  1
  O  O346  1  0.50448380  0.50212567  0.61487581  1
  O  O347  1  0.23606140  0.37154921  0.23123868  1
  O  O348  1  0.24167979  0.38468161  0.75533383  1
  O  O349  1  0.25389657  0.86716849  0.23516127  1
  O  O350  1  0.24967405  0.88691711  0.74802030  1
  O  O351  1  0.74572381  0.38234977  0.24354168  1
  O  O352  1  0.73722341  0.36932258  0.74965449  1
  O  O353  1  0.74250473  0.88725927  0.24222816  1
  O  O354  1  0.74541525  0.88265434  0.74593710  1
  O  O355  1  0.25091957  0.13883380  0.24640021  1
  O  O356  1  0.25296155  0.11338888  0.75386157  1
  O  O357  1  0.25636993  0.63196592  0.25776201  1
  O  O358  1  0.25469203  0.61710019  0.75650352  1
  O  O359  1  0.74250591  0.11020440  0.26052008  1
  O  O360  1  0.75760169  0.11656001  0.75466014  1
  O  O361  1  0.74875979  0.60964878  0.22153099  1
  O  O362  1  0.76468336  0.62589290  0.76064788  1
  O  O363  1  0.37939240  0.11840856  0.37733339  1
  O  O364  1  0.37341052  0.11434174  0.87133086  1
  O  O365  1  0.36620305  0.62052909  0.36602127  1
  O  O366  1  0.36622643  0.61678836  0.86728093  1
  O  O367  1  0.85621839  0.13001082  0.37008344  1
  O  O368  1  0.86567638  0.12841834  0.85992056  1
  O  O369  1  0.87614096  0.61301957  0.38258865  1
  O  O370  1  0.87196066  0.61834776  0.87197212  1
  O  O371  1  0.12950593  0.37715326  0.13183349  1
  O  O372  1  0.12075295  0.37582760  0.63799495  1
  O  O373  1  0.14493952  0.87441121  0.12266327  1
  O  O374  1  0.13045980  0.87742166  0.62804528  1
  O  O375  1  0.63038185  0.37079577  0.13659867  1
  O  O376  1  0.62554123  0.38415060  0.63335590  1
  O  O377  1  0.62408178  0.86778066  0.13770784  1
  O  O378  1  0.62783703  0.88444313  0.63216131  1
  O  O379  1  0.11360569  0.25812386  0.25605840  1
  O  O380  1  0.12345117  0.25403403  0.75459538  1
  O  O381  1  0.11294236  0.76072386  0.25059509  1
  O  O382  1  0.12024576  0.74975186  0.76166340  1
  O  O383  1  0.63821080  0.26462944  0.26891103  1
  O  O384  1  0.61757068  0.25789766  0.74911770  1
  O  O385  1  0.60981292  0.75495152  0.24758191  1
  O  O386  1  0.62742252  0.76333763  0.75631462  1
  O  O387  1  0.38045417  0.25700254  0.24029807  1
  O  O388  1  0.38124845  0.25001270  0.74221083  1
  O  O389  1  0.38043546  0.74118763  0.24325991  1
  O  O390  1  0.36731293  0.73703775  0.75475772  1
  O  O391  1  0.88636730  0.25130945  0.25027274  1
  O  O392  1  0.88142474  0.24379987  0.74254175  1
  O  O393  1  0.89100478  0.76486527  0.23050640  1
  O  O394  1  0.88343537  0.74135162  0.74596718  1
  O  O395  1  0.38068478  0.49158416  0.50160057  1
  O  O396  1  0.38638257  0.50560128  0.98957526  1
  O  O397  1  0.38500302  0.99691064  0.49255566  1
  O  O398  1  0.37643555  0.99437797  0.98860668  1
  O  O399  1  0.88091687  0.49275102  0.49557449  1
  O  O400  1  0.88850038  0.48617003  0.98767319  1
  O  O401  1  0.88244647  0.99169127  0.50510201  1
  O  O402  1  0.89047034  0.99300013  1.00169971  1
  O  O403  1  0.11420440  0.00889526  -0.00451650  1
  O  O404  1  0.11886600  0.01114117  0.49919583  1
  O  O405  1  0.11058444  0.49361230  -0.00141056  1
  O  O406  1  0.11791936  0.50792265  0.49932147  1
  O  O407  1  0.61153601  -0.00695491  -0.00127739  1
  O  O408  1  0.61050325  -0.00914473  0.50980567  1
  O  O409  1  0.61180871  0.50245607  0.00106745  1
  O  O410  1  0.61616460  0.50402531  0.50895295  1
  O  O411  1  0.35639953  0.37415712  0.12901923  1
  O  O412  1  0.38419044  0.36231742  0.61733301  1
  O  O413  1  0.36776801  0.86559368  0.12141400  1
  O  O414  1  0.37440506  0.87998540  0.60863686  1
  O  O415  1  0.86890103  0.37940816  0.11651363  1
  O  O416  1  0.87380481  0.36846433  0.61581120  1
  O  O417  1  0.87497796  0.86984644  0.11276979  1
  O  O418  1  0.87357575  0.86823038  0.61497140  1
  O  O419  1  0.12012712  0.14143534  0.38621967  1
  O  O420  1  0.12642512  0.13246260  0.88664938  1
  O  O421  1  0.12932059  0.62754712  0.38150327  1
  O  O422  1  0.13776120  0.63027563  0.87077476  1
  O  O423  1  0.63890305  0.13536484  0.38171543  1
  O  O424  1  0.64143256  0.12483057  0.86660079  1
  O  O425  1  0.62506095  0.62111717  0.36145790  1
  O  O426  1  0.62730032  0.63114759  0.87797922  1
