# generated using pymatgen
data_V85Zn86O256
_symmetry_space_group_name_H-M   'P 1'
_cell_length_a   16.94481944
_cell_length_b   16.94739473
_cell_length_c   16.93306718
_cell_angle_alpha   89.98177431
_cell_angle_beta   89.99972513
_cell_angle_gamma   90.01405306
_symmetry_Int_Tables_number   1
_chemical_formula_structural   V85Zn86O256
_chemical_formula_sum   'V85 Zn86 O256'
_cell_volume   4862.67771513
_cell_formula_units_Z   1
loop_
 _symmetry_equiv_pos_site_id
 _symmetry_equiv_pos_as_xyz
  1  'x, y, z'
loop_
 _atom_site_type_symbol
 _atom_site_label
 _atom_site_symmetry_multiplicity
 _atom_site_fract_x
 _atom_site_fract_y
 _atom_site_fract_z
 _atom_site_occupancy
  V  V0  1  0.49900453  -0.00838664  0.49169054  1
  V  V1  1  0.24628064  0.24809450  0.49399754  1
  V  V2  1  0.37483325  0.62124772  0.75650901  1
  V  V3  1  -0.01153050  0.87178315  0.37772949  1
  V  V4  1  0.75926813  0.49796713  0.25586574  1
  V  V5  1  0.62521828  0.62543283  0.00433750  1
  V  V6  1  0.36991632  -0.01120432  0.37107063  1
  V  V7  1  -0.01125379  0.50201658  0.50073911  1
  V  V8  1  0.74943233  -0.00370863  0.75083443  1
  V  V9  1  0.76785258  0.00946748  0.25648662  1
  V  V10  1  0.49470726  0.87430229  0.87599060  1
  V  V11  1  0.74658531  0.37333354  0.12708892  1
  V  V12  1  0.63121872  0.87353621  0.74658369  1
  V  V13  1  0.87698552  -0.00289326  0.87624412  1
  V  V14  1  0.62814438  -0.00368888  0.62157222  1
  V  V15  1  0.87634463  0.61973005  0.75066706  1
  V  V16  1  0.49521385  0.62733500  0.13371660  1
  V  V17  1  0.49983840  0.74927470  0.74532513  1
  V  V18  1  0.49293381  0.62726336  0.62250370  1
  V  V19  1  0.86998430  0.24952113  0.61422844  1
  V  V20  1  0.00164592  0.37920508  0.87359788  1
  V  V21  1  0.24803943  0.87000644  0.11553691  1
  V  V22  1  0.00018394  0.25121167  0.75198377  1
  V  V23  1  0.13157223  0.61648458  0.50549151  1
  V  V24  1  0.49580407  -0.00028546  0.00309410  1
  V  V25  1  0.62333954  0.37391795  0.74851451  1
  V  V26  1  0.00414924  0.00046147  0.00528253  1
  V  V27  1  0.49109319  0.24313446  0.75016650  1
  V  V28  1  0.38196594  0.12405764  0.25269717  1
  V  V29  1  0.60892965  0.36596830  0.25774841  1
  V  V30  1  0.62154158  0.87891255  0.25820054  1
  V  V31  1  0.37002850  0.74841793  0.11942555  1
  V  V32  1  -0.00143723  0.62178011  0.11800808  1
  V  V33  1  0.75273444  0.25586354  0.00328322  1
  V  V34  1  -0.05582540  0.05970077  0.44340435  1
  V  V35  1  0.49154681  0.12077375  0.62376326  1
  V  V36  1  0.37754333  0.50280497  0.37049468  1
  V  V37  1  0.62448844  0.49972580  0.62479872  1
  V  V38  1  0.00192747  0.74895418  0.75277428  1
  V  V39  1  0.37921851  0.25014285  0.13195760  1
  V  V40  1  0.86958670  0.75546865  0.62472328  1
  V  V41  1  0.14215930  0.62296648  -0.00409805  1
  V  V42  1  0.25856793  0.00569454  0.74930799  1
  V  V43  1  0.24829911  0.49875294  0.75480762  1
  V  V44  1  0.62372171  0.00215257  0.12982689  1
  V  V45  1  0.11878203  0.49865305  0.12334856  1
  V  V46  1  0.37396792  0.37497270  0.00030282  1
  V  V47  1  0.49959257  0.49608635  0.49466647  1
  V  V48  1  0.13144012  0.87389858  0.25286281  1
  V  V49  1  0.74862853  0.12369568  0.87579457  1
  V  V50  1  0.74709962  0.36910807  0.61679542  1
  V  V51  1  0.13011017  0.37175610  0.26319745  1
  V  V52  1  0.12620859  0.75040348  0.38299104  1
  V  V53  1  0.24895854  0.37834081  0.62131108  1
  V  V54  1  0.24614335  0.12212860  0.36413416  1
  V  V55  1  0.75098874  0.74827055  0.00377205  1
  V  V56  1  0.25582117  0.63236547  0.37807763  1
  V  V57  1  0.49960196  0.50131049  -0.00008979  1
  V  V58  1  0.14376732  0.74619434  0.87657300  1
  V  V59  1  0.87870999  0.49530200  0.88634814  1
  V  V60  1  0.25057111  0.50882753  0.25051326  1
  V  V61  1  0.75255098  0.87497793  0.12832286  1
  V  V62  1  0.62335104  0.75251765  0.37576527  1
  V  V63  1  0.62546400  0.62627403  0.50008001  1
  V  V64  1  0.12346358  0.37893026  0.73879195  1
  V  V65  1  0.00914387  0.87072578  0.87477966  1
  V  V66  1  0.37827135  0.37044079  0.49410212  1
  V  V67  1  0.87409866  0.12682759  0.75385150  1
  V  V68  1  0.75824116  0.62297385  0.37800293  1
  V  V69  1  0.49361470  0.75403377  0.25259886  1
  V  V70  1  -0.00660350  0.37165143  0.37644722  1
  V  V71  1  0.62584451  0.75016156  0.87718728  1
  V  V72  1  -0.00138928  0.12056017  0.62698642  1
  V  V73  1  0.13200958  -0.00052694  0.12588060  1
  V  V74  1  0.36218846  0.86489226  0.51703864  1
  V  V75  1  0.87689296  0.87202779  0.00082422  1
  V  V76  1  0.62504018  0.12485403  0.00239624  1
  V  V77  1  0.61760923  0.24576010  0.38468337  1
  V  V78  1  0.25230947  0.24834681  0.00294117  1
  V  V79  1  0.75167680  0.62227297  0.87794260  1
  V  V80  1  0.62242861  0.50080668  0.13295008  1
  V  V81  1  0.12709772  0.12198458  0.49524939  1
  V  V82  1  0.62329083  0.25013203  0.87423420  1
  V  V83  1  0.12536111  -0.00315773  0.62947185  1
  V  V84  1  0.12882407  0.12300896  -0.00403376  1
  Zn  Zn85  1  0.75024068  0.49691811  0.75106560  1
  Zn  Zn86  1  0.00339815  0.61986116  0.62774170  1
  Zn  Zn87  1  -0.07705101  0.21282539  0.15821824  1
  Zn  Zn88  1  0.37191318  0.24424804  0.62592806  1
  Zn  Zn89  1  0.12920920  0.25045606  0.87151770  1
  Zn  Zn90  1  -0.00071681  0.74537445  0.24955743  1
  Zn  Zn91  1  0.36859987  0.87214348  -0.00569635  1
  Zn  Zn92  1  0.74609285  0.75960492  0.50550221  1
  Zn  Zn93  1  0.63038563  0.12624803  0.50030161  1
  Zn  Zn94  1  0.38039667  0.00912595  0.86850775  1
  Zn  Zn95  1  0.36898373  0.50349733  0.88067177  1
  Zn  Zn96  1  0.49909097  0.37770496  0.87339982  1
  Zn  Zn97  1  0.16399472  0.83952624  0.69914408  1
  Zn  Zn98  1  0.76410825  0.13672365  0.37944121  1
  Zn  Zn99  1  0.25076041  0.37784054  0.12826042  1
  Zn  Zn100  1  0.26545095  0.13312109  0.86742272  1
  Zn  Zn101  1  0.87256365  0.88519201  0.50448126  1
  Zn  Zn102  1  0.50224206  0.13029367  0.13012433  1
  Zn  Zn103  1  0.88194112  0.61974229  0.25325625  1
  Zn  Zn104  1  0.90706431  0.36263988  0.02678070  1
  Zn  Zn105  1  0.87624917  0.74447485  0.12824628  1
  Zn  Zn106  1  0.86581326  0.37635808  0.49190006  1
  Zn  Zn107  1  0.13546618  0.16786203  0.20971815  1
  Zn  Zn108  1  0.18739795  0.18800381  0.68319250  1
  Zn  Zn109  1  0.18481864  0.68771958  0.19053155  1
  Zn  Zn110  1  0.19334016  0.67732679  0.68321326  1
  Zn  Zn111  1  0.69136513  0.18988094  0.19421888  1
  Zn  Zn112  1  0.68304532  0.18423523  0.68497226  1
  Zn  Zn113  1  0.68800685  0.68703491  0.19303935  1
  Zn  Zn114  1  0.68813112  0.68437906  0.68870540  1
  Zn  Zn115  1  0.31115785  0.31196231  0.31417533  1
  Zn  Zn116  1  0.31250164  0.31611255  0.81571451  1
  Zn  Zn117  1  0.31001980  0.81253303  0.30984493  1
  Zn  Zn118  1  0.30378832  0.80641275  0.76770494  1
  Zn  Zn119  1  0.80684324  0.31028286  0.31032485  1
  Zn  Zn120  1  0.81189509  0.31239744  0.80977142  1
  Zn  Zn121  1  0.81101701  0.80611716  0.30843882  1
  Zn  Zn122  1  0.81535602  0.80956153  0.81389065  1
  Zn  Zn123  1  0.19044488  0.44314274  0.43895791  1
  Zn  Zn124  1  0.18408350  0.43557017  0.93566884  1
  Zn  Zn125  1  0.18727417  0.93903117  0.44157268  1
  Zn  Zn126  1  0.19364553  0.93733647  0.92747634  1
  Zn  Zn127  1  0.68355686  0.43520578  0.43332199  1
  Zn  Zn128  1  0.68552136  0.43912399  0.93708033  1
  Zn  Zn129  1  0.69728272  0.94086584  0.43912129  1
  Zn  Zn130  1  0.68446096  0.93610845  0.93903108  1
  Zn  Zn131  1  0.31094342  0.06285031  0.06548151  1
  Zn  Zn132  1  0.31011642  0.05587811  0.55963895  1
  Zn  Zn133  1  0.31368178  0.56320948  0.06785642  1
  Zn  Zn134  1  0.31375754  0.56052261  0.56367044  1
  Zn  Zn135  1  0.81293660  0.06243764  0.06991254  1
  Zn  Zn136  1  0.80374882  0.06848490  0.56740226  1
  Zn  Zn137  1  0.81392353  0.55292329  0.06512634  1
  Zn  Zn138  1  0.81035382  0.56437499  0.56591154  1
  Zn  Zn139  1  0.43413581  0.43919903  0.18735480  1
  Zn  Zn140  1  0.43562065  0.43576624  0.68350312  1
  Zn  Zn141  1  0.43308982  0.93742428  0.18984119  1
  Zn  Zn142  1  0.44047466  0.93569947  0.68509525  1
  Zn  Zn143  1  0.94610510  0.40899175  0.18317066  1
  Zn  Zn144  1  0.93619109  0.43911187  0.68211360  1
  Zn  Zn145  1  0.94385318  0.93310014  0.18799214  1
  Zn  Zn146  1  0.94176519  0.93591136  0.69116980  1
  Zn  Zn147  1  0.06262018  0.05600527  0.30659394  1
  Zn  Zn148  1  0.06629976  0.06398891  0.81583712  1
  Zn  Zn149  1  0.06166515  0.55932523  0.31478154  1
  Zn  Zn150  1  0.06615809  0.56132187  0.81373336  1
  Zn  Zn151  1  0.56166240  0.06485065  0.31553169  1
  Zn  Zn152  1  0.55933109  0.06282531  0.81175908  1
  Zn  Zn153  1  0.56593517  0.56411707  0.31402050  1
  Zn  Zn154  1  0.56281063  0.56247985  0.81385198  1
  Zn  Zn155  1  0.44069410  0.18448614  0.43471272  1
  Zn  Zn156  1  0.43853554  0.18627249  0.93987526  1
  Zn  Zn157  1  0.43805184  0.69073712  0.43732711  1
  Zn  Zn158  1  0.43675294  0.68806745  0.93828124  1
  Zn  Zn159  1  0.96075583  0.20100371  0.31879592  1
  Zn  Zn160  1  0.91812026  0.16855031  0.97481722  1
  Zn  Zn161  1  0.94051104  0.68766748  0.44012766  1
  Zn  Zn162  1  0.94180450  0.68364675  0.94180883  1
  Zn  Zn163  1  0.07327468  0.31177319  0.06647877  1
  Zn  Zn164  1  0.05907321  0.30839201  0.55668730  1
  Zn  Zn165  1  0.06587130  0.80537683  0.05987020  1
  Zn  Zn166  1  0.05207889  0.80753100  0.55680957  1
  Zn  Zn167  1  0.56250044  0.31378119  0.06496900  1
  Zn  Zn168  1  0.55797477  0.31055456  0.56227849  1
  Zn  Zn169  1  0.56261740  0.81473051  0.06613214  1
  Zn  Zn170  1  0.55880904  0.81512630  0.56080140  1
  O  O171  1  0.13245201  0.11118210  0.10916809  1
  O  O172  1  0.11534553  0.11885587  0.61822275  1
  O  O173  1  0.12151279  0.61999447  0.11506045  1
  O  O174  1  0.12291350  0.62843951  0.60924789  1
  O  O175  1  0.62579308  0.11532781  0.12430607  1
  O  O176  1  0.61485149  0.11326117  0.62279874  1
  O  O177  1  0.61796387  0.62061716  0.12238815  1
  O  O178  1  0.61749634  0.61899579  0.62034909  1
  O  O179  1  0.36857208  0.38494974  0.38695260  1
  O  O180  1  0.38053767  0.37862930  0.88853828  1
  O  O181  1  0.36964119  0.88663946  0.37437987  1
  O  O182  1  0.39027745  0.87905207  0.87360202  1
  O  O183  1  0.88870039  0.37400322  0.37558954  1
  O  O184  1  0.88563748  0.38502678  0.86093228  1
  O  O185  1  0.88700906  0.87014803  0.36893817  1
  O  O186  1  0.88342985  0.87832496  0.88143599  1
  O  O187  1  0.25915247  0.01023818  0.38150746  1
  O  O188  1  0.25576974  0.00977760  0.86427084  1
  O  O189  1  0.25806077  0.51153717  0.37152099  1
  O  O190  1  0.25227240  0.49119996  0.85965834  1
  O  O191  1  0.75299467  0.00117471  0.35730488  1
  O  O192  1  0.75406890  0.00280105  0.87147369  1
  O  O193  1  0.74235610  0.50972076  0.36787558  1
  O  O194  1  0.75725600  0.50400357  0.87324349  1
  O  O195  1  0.24369928  0.50192759  0.13623199  1
  O  O196  1  0.25619289  0.48439538  0.63184920  1
  O  O197  1  0.23936441  0.98813001  0.12010422  1
  O  O198  1  0.23581845  1.00336860  0.63411603  1
  O  O199  1  0.73565114  0.49893818  0.13465798  1
  O  O200  1  0.74115376  0.49253847  0.62913937  1
  O  O201  1  0.74350741  0.99472394  0.13262577  1
  O  O202  1  0.73590881  1.00180714  0.63566555  1
  O  O203  1  0.01623965  0.38552394  0.26917742  1
  O  O204  1  0.00727710  0.37013515  0.74686077  1
  O  O205  1  0.01194739  0.87277530  0.26025927  1
  O  O206  1  -0.00287383  0.86354938  0.76297814  1
  O  O207  1  0.51122805  0.38073741  0.24823035  1
  O  O208  1  0.50986247  0.36794107  0.74827163  1
  O  O209  1  0.51156844  0.86774220  0.24332227  1
  O  O210  1  0.50878582  0.86761388  0.75598454  1
  O  O211  1  0.48566339  0.12299378  0.24912720  1
  O  O212  1  0.50546981  0.13317119  0.73969357  1
  O  O213  1  0.50772237  0.63483283  0.23973243  1
  O  O214  1  0.49872969  0.62953988  0.74260382  1
  O  O215  1  1.02633710  0.14293247  0.24468931  1
  O  O216  1  0.99588244  0.13231010  0.74558391  1
  O  O217  1  1.00317992  0.62119713  0.23620162  1
  O  O218  1  0.99266199  0.63012681  0.75130236  1
  O  O219  1  0.37245055  0.25892083  0.00511984  1
  O  O220  1  0.36985150  0.25627486  0.49894750  1
  O  O221  1  0.38241591  0.75438141  0.01437348  1
  O  O222  1  0.38048435  0.76758783  0.49565493  1
  O  O223  1  0.85445772  0.26673889  -0.01934566  1
  O  O224  1  0.87679572  0.25600929  0.51581013  1
  O  O225  1  0.86781404  0.75398835  0.00312615  1
  O  O226  1  0.87703664  0.74504453  0.51933334  1
  O  O227  1  0.13417081  0.23463210  0.50763728  1
  O  O228  1  0.13472660  0.24129593  1.00144301  1
  O  O229  1  0.11869046  0.73800131  0.48982156  1
  O  O230  1  0.12577535  0.73398010  0.99043984  1
  O  O231  1  0.62152911  0.24992217  0.48937885  1
  O  O232  1  0.62815040  0.24504848  0.99241042  1
  O  O233  1  0.62383070  0.74731061  0.49196254  1
  O  O234  1  0.63088388  0.74556757  0.99809630  1
  O  O235  1  0.48469089  0.24817981  0.11901805  1
  O  O236  1  0.49855010  0.23908973  0.63223797  1
  O  O237  1  0.49601591  0.74464061  0.13228335  1
  O  O238  1  0.50816910  0.73938270  0.63371205  1
  O  O239  1  0.97276583  0.30926882  0.11494002  1
  O  O240  1  0.99311759  0.23985515  0.63175328  1
  O  O241  1  1.00051525  0.73528337  0.12587161  1
  O  O242  1  0.99162351  0.74424991  0.63639239  1
  O  O243  1  0.01168519  0.27421141  0.39160975  1
  O  O244  1  0.00043208  0.25789071  0.85734334  1
  O  O245  1  0.00708239  0.75715915  0.37356745  1
  O  O246  1  0.00251222  0.75421840  0.87067298  1
  O  O247  1  0.51521296  0.24757137  0.37383040  1
  O  O248  1  0.51093512  0.25160495  0.86939457  1
  O  O249  1  0.51334588  0.74398847  0.36557930  1
  O  O250  1  0.50830633  0.75594762  0.87095826  1
  O  O251  1  0.24444037  0.13075336  0.49475873  1
  O  O252  1  0.24709820  0.13289755  0.99730714  1
  O  O253  1  0.24007555  0.62070260  0.49545223  1
  O  O254  1  0.24127412  0.62417659  1.00117894  1
  O  O255  1  0.74235539  0.11417780  0.48968030  1
  O  O256  1  0.74249588  0.13375619  0.99485640  1
  O  O257  1  0.74234137  0.62924802  0.49536719  1
  O  O258  1  0.74539143  0.62662637  0.99817379  1
  O  O259  1  0.25802074  0.37080052  0.00134967  1
  O  O260  1  0.25379128  0.36867762  0.50380807  1
  O  O261  1  0.24969270  0.87535736  0.01034860  1
  O  O262  1  0.26310398  0.87815084  0.50143674  1
  O  O263  1  0.73263794  0.36671363  0.01195037  1
  O  O264  1  0.74813479  0.38068407  0.51223748  1
  O  O265  1  0.75335193  0.87194484  0.01152584  1
  O  O266  1  0.76136448  0.87132044  0.49629244  1
  O  O267  1  0.13387225  0.49608674  0.24417985  1
  O  O268  1  0.13418907  0.49252462  0.74729591  1
  O  O269  1  0.12275629  0.98825078  0.23643086  1
  O  O270  1  0.12700304  1.00686140  0.73523114  1
  O  O271  1  0.62761090  0.49144742  0.24734830  1
  O  O272  1  0.62322052  0.49037562  0.74498554  1
  O  O273  1  0.62784549  0.99492059  0.24490436  1
  O  O274  1  0.62732828  0.99075373  0.74459844  1
  O  O275  1  0.37421752  0.00877776  0.25869203  1
  O  O276  1  0.36204010  -0.00294055  0.74475505  1
  O  O277  1  0.36934491  0.49766494  0.26295737  1
  O  O278  1  0.37154521  0.50397372  0.75288028  1
  O  O279  1  0.86596659  -0.00059305  0.24104512  1
  O  O280  1  0.87001377  0.00469209  0.75671544  1
  O  O281  1  0.86055669  0.49844017  0.24748538  1
  O  O282  1  0.87308240  0.51054626  0.75297613  1
  O  O283  1  0.12435024  0.38285491  0.36713062  1
  O  O284  1  0.11896314  0.37342354  0.85774187  1
  O  O285  1  0.12110295  0.86915910  0.37197260  1
  O  O286  1  0.11542026  0.86236743  0.88442155  1
  O  O287  1  0.62253111  0.36615609  0.36422355  1
  O  O288  1  0.62223610  0.36804475  0.86651504  1
  O  O289  1  0.63029736  0.86961636  0.36414886  1
  O  O290  1  0.61654564  0.86953416  0.86875760  1
  O  O291  1  0.37353214  0.13164225  0.13576996  1
  O  O292  1  0.38715573  0.12294836  0.61841355  1
  O  O293  1  0.38453407  0.63352514  0.12562954  1
  O  O294  1  0.38781257  0.61894681  0.63399554  1
  O  O295  1  0.89166369  0.13707607  0.08459125  1
  O  O296  1  0.87980015  0.13050121  0.63343888  1
  O  O297  1  0.88782302  0.61937853  0.12271987  1
  O  O298  1  0.87693852  0.63138622  0.63679917  1
  O  O299  1  0.26372618  0.25546932  0.11034639  1
  O  O300  1  0.25387834  0.25839505  0.61508508  1
  O  O301  1  0.25974368  0.75482315  0.13184979  1
  O  O302  1  0.24882362  0.77071023  0.67075250  1
  O  O303  1  0.74408905  0.25963018  0.11626602  1
  O  O304  1  0.75567149  0.25749967  0.63206606  1
  O  O305  1  0.74858914  0.75895273  0.12218154  1
  O  O306  1  0.76557960  0.74594623  0.62929843  1
  O  O307  1  0.25255392  0.24145137  0.38780054  1
  O  O308  1  0.24942383  0.25228802  0.88706642  1
  O  O309  1  0.24396247  0.73931639  0.37095945  1
  O  O310  1  0.24088685  0.75688471  0.86167966  1
  O  O311  1  0.72853945  0.24880037  0.36506823  1
  O  O312  1  0.73709860  0.24738573  0.87730110  1
  O  O313  1  0.73685986  0.74121334  0.37259954  1
  O  O314  1  0.74554968  0.74380737  0.88353740  1
  O  O315  1  0.01507146  0.10828927  -0.01321713  1
  O  O316  1  0.00574231  0.11897946  0.50565372  1
  O  O317  1  0.00993270  0.62207270  0.01327689  1
  O  O318  1  0.00877533  0.61424294  0.49962859  1
  O  O319  1  0.50847977  0.11601322  0.00580464  1
  O  O320  1  0.50341920  0.11065450  0.50640855  1
  O  O321  1  0.50481192  0.61998946  0.01044483  1
  O  O322  1  0.50393314  0.61952735  0.50711122  1
  O  O323  1  0.49133394  0.38570766  0.50417887  1
  O  O324  1  0.49382271  0.38547726  1.00224517  1
  O  O325  1  0.49027346  0.88801754  0.50302719  1
  O  O326  1  0.50271833  0.88272661  0.99306610  1
  O  O327  1  0.99955812  0.38712139  0.49447157  1
  O  O328  1  1.01274842  0.37146021  0.97542696  1
  O  O329  1  0.99103390  0.87305219  0.48489804  1
  O  O330  1  0.99636379  0.87710750  0.99358494  1
  O  O331  1  0.49255229  0.50913065  0.38584227  1
  O  O332  1  0.50218425  0.50026508  0.89090417  1
  O  O333  1  0.49041833  1.00424890  0.38619976  1
  O  O334  1  0.50412966  0.99188925  0.88479588  1
  O  O335  1  1.00616215  0.49167156  0.39173607  1
  O  O336  1  0.99070684  0.49166393  0.86631864  1
  O  O337  1  0.99637596  0.99412815  0.38027410  1
  O  O338  1  0.99942497  0.98857263  0.88098110  1
  O  O339  1  0.01398947  -0.01235683  0.11106828  1
  O  O340  1  0.00532626  0.01437539  0.63347687  1
  O  O341  1  0.01346052  0.50246269  0.12832159  1
  O  O342  1  -0.00006354  0.50118740  0.60833078  1
  O  O343  1  0.50848767  -0.00045905  0.11987013  1
  O  O344  1  0.50794170  0.00378223  0.61852838  1
  O  O345  1  0.50235550  0.50890220  0.11991788  1
  O  O346  1  0.50452406  0.50628021  0.61536702  1
  O  O347  1  0.24441966  0.39058633  0.25511234  1
  O  O348  1  0.24431656  0.37704324  0.74065603  1
  O  O349  1  0.23662461  0.87018868  0.24016285  1
  O  O350  1  0.23673645  0.90163723  0.76448767  1
  O  O351  1  0.73712110  0.38248653  0.24518563  1
  O  O352  1  0.73568332  0.37404084  0.74259368  1
  O  O353  1  0.74456777  0.88283525  0.24127637  1
  O  O354  1  0.73786746  0.87706188  0.75860815  1
  O  O355  1  0.24392158  0.13056578  0.26246712  1
  O  O356  1  0.24369441  0.11277590  0.74942183  1
  O  O357  1  0.24576935  0.61600275  0.26097788  1
  O  O358  1  0.26333287  0.61016692  0.74426528  1
  O  O359  1  0.75357491  0.11309357  0.25199588  1
  O  O360  1  0.75331732  0.11850061  0.75744801  1
  O  O361  1  0.74869917  0.61504241  0.25962342  1
  O  O362  1  0.75784329  0.62352794  0.76068543  1
  O  O363  1  0.36684713  0.11833636  0.36810910  1
  O  O364  1  0.38010089  0.12276208  0.87199060  1
  O  O365  1  0.36613848  0.61749900  0.38289629  1
  O  O366  1  0.38357890  0.62089345  0.86202642  1
  O  O367  1  0.89106350  0.12285573  0.38452320  1
  O  O368  1  0.86807341  0.11702241  0.87556447  1
  O  O369  1  0.86170171  0.63032801  0.37714643  1
  O  O370  1  0.87277436  0.61522556  0.87200260  1
  O  O371  1  0.13168865  0.38575112  0.13614306  1
  O  O372  1  0.13216423  0.36905371  0.63116805  1
  O  O373  1  0.13114487  0.87394591  0.13038149  1
  O  O374  1  0.10475940  0.89278891  0.61954543  1
  O  O375  1  0.62725759  0.38134022  0.13601749  1
  O  O376  1  0.62815903  0.37754790  0.63050603  1
  O  O377  1  0.63337126  0.88503925  0.13219707  1
  O  O378  1  0.61864150  0.88268300  0.63588120  1
  O  O379  1  0.14070716  0.27460861  0.24815700  1
  O  O380  1  0.11705822  0.25723322  0.74715562  1
  O  O381  1  0.12192647  0.75478131  0.26382473  1
  O  O382  1  0.11143846  0.74310129  0.75933987  1
  O  O383  1  0.61998752  0.26280518  0.24950241  1
  O  O384  1  0.61682592  0.25481222  0.75623448  1
  O  O385  1  0.61798718  0.75945679  0.25506086  1
  O  O386  1  0.61915874  0.75448839  0.75517867  1
  O  O387  1  0.36636381  0.24101758  0.24235564  1
  O  O388  1  0.38860039  0.25952193  0.74832120  1
  O  O389  1  0.38904389  0.75699370  0.24281865  1
  O  O390  1  0.39472032  0.73895249  0.75667617  1
  O  O391  1  0.88162883  0.24978416  0.25442168  1
  O  O392  1  0.88128701  0.24285373  0.74482927  1
  O  O393  1  0.87905382  0.74013030  0.24532441  1
  O  O394  1  0.88150678  0.73993106  0.74669103  1
  O  O395  1  0.38119191  0.49394754  0.49207007  1
  O  O396  1  0.38171193  0.49442177  1.00226794  1
  O  O397  1  0.38257929  0.99055971  0.49420163  1
  O  O398  1  0.38817922  0.99649785  1.00341409  1
  O  O399  1  0.88494266  0.49969001  0.50198156  1
  O  O400  1  0.87309027  0.48693024  0.98839258  1
  O  O401  1  0.88305485  1.00581770  0.50507155  1
  O  O402  1  0.88515942  0.99146915  0.99525797  1
  O  O403  1  0.12279007  0.00338534  0.00121897  1
  O  O404  1  0.13036262  0.01134828  0.51531555  1
  O  O405  1  0.13203067  0.51061806  0.00836620  1
  O  O406  1  0.12000688  0.51360255  0.49904988  1
  O  O407  1  0.61822447  0.00359425  0.00991017  1
  O  O408  1  0.61409389  -0.00656756  0.50586938  1
  O  O409  1  0.61702862  0.50470315  0.01028373  1
  O  O410  1  0.61551811  0.50393572  0.50308205  1
  O  O411  1  0.37259882  0.37053594  0.11746383  1
  O  O412  1  0.36823589  0.37174649  0.61114038  1
  O  O413  1  0.36464122  0.86805589  0.12448319  1
  O  O414  1  0.37544418  0.87338535  0.61697046  1
  O  O415  1  0.84806868  0.39784996  0.12204183  1
  O  O416  1  0.86239498  0.36698990  0.62823006  1
  O  O417  1  0.86754030  0.87273635  0.12000038  1
  O  O418  1  0.88177946  0.85878365  0.62913131  1
  O  O419  1  0.13196995  0.11343068  0.38564993  1
  O  O420  1  0.13169774  0.12948411  0.88524605  1
  O  O421  1  0.13214334  0.63095251  0.38456288  1
  O  O422  1  0.12444627  0.62894685  0.88827065  1
  O  O423  1  0.62535770  0.13691121  0.37502646  1
  O  O424  1  0.62902767  0.13158217  0.87994017  1
  O  O425  1  0.63160394  0.63309403  0.38229243  1
  O  O426  1  0.63019753  0.63016206  0.88336591  1
