# generated using pymatgen
data_V85Zn86O256
_symmetry_space_group_name_H-M   'P 1'
_cell_length_a   16.95032376
_cell_length_b   16.94134906
_cell_length_c   16.95978243
_cell_angle_alpha   90.13562721
_cell_angle_beta   90.03407874
_cell_angle_gamma   90.04222860
_symmetry_Int_Tables_number   1
_chemical_formula_structural   V85Zn86O256
_chemical_formula_sum   'V85 Zn86 O256'
_cell_volume   4870.17821183
_cell_formula_units_Z   1
loop_
 _symmetry_equiv_pos_site_id
 _symmetry_equiv_pos_as_xyz
  1  'x, y, z'
loop_
 _atom_site_type_symbol
 _atom_site_label
 _atom_site_symmetry_multiplicity
 _atom_site_fract_x
 _atom_site_fract_y
 _atom_site_fract_z
 _atom_site_occupancy
  V  V0  1  0.61422978  0.36937335  0.75476014  1
  V  V1  1  -0.00266323  0.36877123  0.37069593  1
  V  V2  1  0.13081174  0.13193715  0.01051344  1
  V  V3  1  0.50307651  0.75050015  0.74464583  1
  V  V4  1  0.00181882  0.49739207  -0.00884396  1
  V  V5  1  0.87393345  0.62785717  0.75293654  1
  V  V6  1  0.62944171  0.89128895  0.75286620  1
  V  V7  1  -0.00195468  0.50277524  0.49878307  1
  V  V8  1  0.49167490  0.12514471  0.13066155  1
  V  V9  1  0.87588868  0.87993734  0.49687361  1
  V  V10  1  0.75185396  0.12047996  0.86790580  1
  V  V11  1  0.12724067  0.87931889  0.25153344  1
  V  V12  1  0.25350925  0.74935792  0.49234308  1
  V  V13  1  0.25133639  0.37098713  0.11132004  1
  V  V14  1  0.62803198  0.24875832  0.36796504  1
  V  V15  1  0.37227266  0.25032089  0.61346257  1
  V  V16  1  0.24623698  0.87386309  0.62418691  1
  V  V17  1  0.62758041  0.87076958  0.24949524  1
  V  V18  1  0.63246277  0.62292324  0.49714757  1
  V  V19  1  0.86952499  0.50552260  0.37484537  1
  V  V20  1  0.12979619  0.37994819  0.75727600  1
  V  V21  1  0.61446326  0.62136781  0.00208876  1
  V  V22  1  0.26524427  0.00719347  0.25635641  1
  V  V23  1  0.40392724  0.37831292  -0.01959851  1
  V  V24  1  0.13085567  0.00086029  0.62358226  1
  V  V25  1  0.87309168  0.62399897  0.25153330  1
  V  V26  1  0.75196668  0.88721279  0.62855604  1
  V  V27  1  0.74668714  0.50110160  0.75323965  1
  V  V28  1  0.37274395  -0.00657931  0.86451149  1
  V  V29  1  0.75793590  0.12111232  0.37559044  1
  V  V30  1  0.62777578  -0.00251005  0.12494286  1
  V  V31  1  0.87619658  -0.00476231  0.86637552  1
  V  V32  1  0.12606448  0.50281060  0.12347342  1
  V  V33  1  0.75365032  0.74957979  0.49830187  1
  V  V34  1  0.33953074  0.56844422  0.81755101  1
  V  V35  1  0.74546732  0.37432049  0.62860122  1
  V  V36  1  0.50239197  0.62608377  0.62151876  1
  V  V37  1  -0.00192223  0.00602570  0.00937849  1
  V  V38  1  0.13031730  0.62760609  -0.01210598  1
  V  V39  1  0.62499276  0.12341671  -0.00073327  1
  V  V40  1  0.37360594  0.62261847  0.24539839  1
  V  V41  1  0.50140994  0.49673289  0.49739010  1
  V  V42  1  0.76050041  -0.00046790  0.25285461  1
  V  V43  1  0.62784585  0.74623735  0.87335308  1
  V  V44  1  0.26202595  0.13368863  0.37945270  1
  V  V45  1  0.13586138  0.62398076  0.49841301  1
  V  V46  1  0.00117639  0.62790009  0.62582085  1
  V  V47  1  0.00040601  0.62400550  0.12334527  1
  V  V48  1  0.88773136  0.24761258  0.12831258  1
  V  V49  1  0.49928752  0.88577851  0.37674750  1
  V  V50  1  -0.00044263  0.87704339  0.37794694  1
  V  V51  1  0.75155554  0.24707178  -0.00216205  1
  V  V52  1  0.13241240  0.25478184  0.87913131  1
  V  V53  1  0.12734259  0.74499177  0.37442398  1
  V  V54  1  0.37748820  0.74304603  0.12098823  1
  V  V55  1  0.36890883  0.14257464  0.75367185  1
  V  V56  1  0.87563900  0.74772790  0.12293785  1
  V  V57  1  0.49739702  -0.00337734  0.00203829  1
  V  V58  1  -0.00319058  0.25859284  0.75974025  1
  V  V59  1  0.37062033  0.50713625  0.37806818  1
  V  V60  1  0.50106917  0.87287481  0.87539493  1
  V  V61  1  0.24595299  0.74624105  -0.00594713  1
  V  V62  1  0.49874040  0.37210323  0.37219945  1
  V  V63  1  0.00141626  0.74945401  0.25220208  1
  V  V64  1  0.24666449  0.50336381  0.25317761  1
  V  V65  1  0.00181608  0.12960769  0.62786584  1
  V  V66  1  0.62729750  0.74383123  0.37507315  1
  V  V67  1  0.61146121  0.50126814  0.12120485  1
  V  V68  1  0.12829745  0.49920219  0.62980096  1
  V  V69  1  0.19084461  -0.06560890  0.79812109  1
  V  V70  1  0.36146360  0.37469630  0.49428452  1
  V  V71  1  0.37373554  0.87144919  0.00271572  1
  V  V72  1  0.75351876  0.87403627  0.12207126  1
  V  V73  1  0.75008460  0.37665512  0.12273479  1
  V  V74  1  0.37958028  0.89049483  0.49602544  1
  V  V75  1  0.88837794  0.12765885  0.24895591  1
  V  V76  1  0.87284809  0.37765862  0.50120225  1
  V  V77  1  0.37753356  0.75015807  0.62063174  1
  V  V78  1  0.74729710  0.50320044  0.25039584  1
  V  V79  1  0.87927081  0.37421551  -0.00803312  1
  V  V80  1  0.00011515  0.00392726  0.49781066  1
  V  V81  1  0.01314179  0.75475626  0.75778567  1
  V  V82  1  0.74902503  0.24845659  0.50137517  1
  V  V83  1  0.12132474  0.36771265  0.24901308  1
  V  V84  1  0.50021403  0.74248766  0.24860563  1
  Zn  Zn85  1  0.87276450  0.12390453  0.74767299  1
  Zn  Zn86  1  0.25111729  0.87595780  0.13307268  1
  Zn  Zn87  1  0.61680491  0.11179648  0.49853706  1
  Zn  Zn88  1  0.87434179  0.25040721  0.62855669  1
  Zn  Zn89  1  0.59518577  0.26761310  0.88236736  1
  Zn  Zn90  1  0.24456560  0.37131736  0.62401633  1
  Zn  Zn91  1  0.13314847  0.13676220  0.50053283  1
  Zn  Zn92  1  0.87512048  0.75284454  0.62743625  1
  Zn  Zn93  1  0.62282986  0.37435758  0.24650848  1
  Zn  Zn94  1  0.12996095  0.25182487  0.38113478  1
  Zn  Zn95  1  0.36630501  0.24839771  0.12081159  1
  Zn  Zn96  1  0.88199987  0.87231175  -0.00210011  1
  Zn  Zn97  1  0.74913650  0.62276870  0.87781533  1
  Zn  Zn98  1  0.12203762  0.01040920  0.13565133  1
  Zn  Zn99  1  0.48864757  0.24184839  0.25225807  1
  Zn  Zn100  1  0.24498976  0.12209669  0.87364972  1
  Zn  Zn101  1  0.75254348  0.74633356  -0.00205506  1
  Zn  Zn102  1  0.62304679  0.50017584  0.62806066  1
  Zn  Zn103  1  0.00917197  0.87530455  0.87382409  1
  Zn  Zn104  1  0.49560174  0.11382909  0.62253578  1
  Zn  Zn105  1  0.61564488  0.00118210  0.61849905  1
  Zn  Zn106  1  0.87787434  0.49639382  0.87187424  1
  Zn  Zn107  1  0.19171904  0.18957669  0.19343349  1
  Zn  Zn108  1  0.18992590  0.18926492  0.69015139  1
  Zn  Zn109  1  0.19100479  0.68717802  0.18474028  1
  Zn  Zn110  1  0.19383862  0.68461080  0.69309243  1
  Zn  Zn111  1  0.69275510  0.18574907  0.18592235  1
  Zn  Zn112  1  0.67935127  0.18661747  0.68744567  1
  Zn  Zn113  1  0.68807932  0.68269267  0.18408314  1
  Zn  Zn114  1  0.68835876  0.69181905  0.68427040  1
  Zn  Zn115  1  0.31361841  0.31164987  0.30238043  1
  Zn  Zn116  1  0.30864699  0.31964547  0.81625455  1
  Zn  Zn117  1  0.31522994  0.81509818  0.31392763  1
  Zn  Zn118  1  0.32111971  0.77847393  0.82187589  1
  Zn  Zn119  1  0.81377056  0.31356229  0.30987681  1
  Zn  Zn120  1  0.80769023  0.30985036  0.81400929  1
  Zn  Zn121  1  0.81389613  0.81139232  0.31496075  1
  Zn  Zn122  1  0.81376248  0.81277211  0.81017875  1
  Zn  Zn123  1  0.18403043  0.44112711  0.43451924  1
  Zn  Zn124  1  0.19724961  0.44905027  0.92730240  1
  Zn  Zn125  1  0.18995979  0.94227370  0.43631008  1
  Zn  Zn126  1  0.18600164  0.93797747  0.96142462  1
  Zn  Zn127  1  0.68660639  0.43494718  0.43589917  1
  Zn  Zn128  1  0.68538044  0.43961047  0.93689091  1
  Zn  Zn129  1  0.68904081  0.93572304  0.43399851  1
  Zn  Zn130  1  0.69063674  0.93745032  0.93787511  1
  Zn  Zn131  1  0.30810693  0.05623741  0.06527835  1
  Zn  Zn132  1  0.31074757  0.06507882  0.56507819  1
  Zn  Zn133  1  0.31650831  0.55488129  0.05665558  1
  Zn  Zn134  1  0.31360523  0.56309780  0.64790075  1
  Zn  Zn135  1  0.81736133  0.06332926  0.06365992  1
  Zn  Zn136  1  0.81409692  0.06352057  0.56183192  1
  Zn  Zn137  1  0.80816942  0.56235116  0.05879940  1
  Zn  Zn138  1  0.81105512  0.56324832  0.56749162  1
  Zn  Zn139  1  0.43270028  0.43140960  0.18970091  1
  Zn  Zn140  1  0.43800812  0.43199283  0.68266157  1
  Zn  Zn141  1  0.44114581  0.93321511  0.18905621  1
  Zn  Zn142  1  0.44007520  0.93764773  0.68514977  1
  Zn  Zn143  1  0.93719038  0.43601461  0.18345465  1
  Zn  Zn144  1  0.93696108  0.43833760  0.68800406  1
  Zn  Zn145  1  0.93937219  0.93638020  0.18899450  1
  Zn  Zn146  1  0.94253183  0.93563518  0.68455365  1
  Zn  Zn147  1  0.06947891  0.06528617  0.32056884  1
  Zn  Zn148  1  0.05689636  0.07057482  0.81889823  1
  Zn  Zn149  1  0.06040115  0.56049797  0.31367376  1
  Zn  Zn150  1  0.06280915  0.56559897  0.81207793  1
  Zn  Zn151  1  0.57253025  0.06204357  0.31060541  1
  Zn  Zn152  1  0.54438550  0.09042480  0.82566459  1
  Zn  Zn153  1  0.56181195  0.56146666  0.31068437  1
  Zn  Zn154  1  0.54915928  0.55882785  0.81254987  1
  Zn  Zn155  1  0.43472317  0.18118530  0.43381762  1
  Zn  Zn156  1  0.42983507  0.19124506  0.94193729  1
  Zn  Zn157  1  0.43982009  0.68877924  0.43593572  1
  Zn  Zn158  1  0.44160140  0.66154618  0.92222250  1
  Zn  Zn159  1  0.93740908  0.18817975  0.43970679  1
  Zn  Zn160  1  0.93953470  0.18445220  0.93804343  1
  Zn  Zn161  1  0.93833514  0.68773561  0.43848050  1
  Zn  Zn162  1  0.94117987  0.68646638  0.93550394  1
  Zn  Zn163  1  0.06420929  0.31538375  0.06170687  1
  Zn  Zn164  1  0.06174023  0.31343456  0.56378503  1
  Zn  Zn165  1  0.06246632  0.81560823  0.06344308  1
  Zn  Zn166  1  0.06415945  0.81152628  0.56501939  1
  Zn  Zn167  1  0.56361230  0.30957164  0.06334432  1
  Zn  Zn168  1  0.54059760  0.27501889  0.54295158  1
  Zn  Zn169  1  0.56184575  0.80545345  0.06200039  1
  Zn  Zn170  1  0.56629251  0.82363552  0.56038730  1
  O  O171  1  0.12649211  0.13082919  0.11447452  1
  O  O172  1  0.11799802  0.11893462  0.62575009  1
  O  O173  1  0.11992266  0.61398232  0.12405652  1
  O  O174  1  0.11870669  0.61960089  0.61994520  1
  O  O175  1  0.62582657  0.11720122  0.11434402  1
  O  O176  1  0.61797353  0.12140285  0.62321229  1
  O  O177  1  0.62799075  0.61664518  0.11174523  1
  O  O178  1  0.62078452  0.62493733  0.61327688  1
  O  O179  1  0.37960906  0.38234724  0.37651826  1
  O  O180  1  0.38273880  0.37335554  0.88197642  1
  O  O181  1  0.38739650  0.87173066  0.38308546  1
  O  O182  1  0.38031067  0.87133664  0.88713116  1
  O  O183  1  0.87864479  0.38609459  0.37812997  1
  O  O184  1  0.87062840  0.37456210  0.88888119  1
  O  O185  1  0.88225878  0.87042092  0.38869945  1
  O  O186  1  0.87661323  0.88491678  0.87787790  1
  O  O187  1  0.24756251  0.00822211  0.36215238  1
  O  O188  1  0.24917902  -0.01119312  0.86979956  1
  O  O189  1  0.25890658  0.49855381  0.36611957  1
  O  O190  1  0.27499135  0.51570230  0.87384163  1
  O  O191  1  0.75077930  0.00767015  0.36393088  1
  O  O192  1  0.76854290  0.00487491  0.88339838  1
  O  O193  1  0.75794504  0.49406187  0.36426261  1
  O  O194  1  0.75362411  0.50156456  0.86330706  1
  O  O195  1  0.24102435  0.49419922  0.13065136  1
  O  O196  1  0.23080673  0.49401744  0.61308434  1
  O  O197  1  0.24445683  0.99796293  0.14126799  1
  O  O198  1  0.23916594  0.99247602  0.62448960  1
  O  O199  1  0.74495051  0.49168234  0.12977770  1
  O  O200  1  0.74744607  0.49392366  0.63687438  1
  O  O201  1  0.74881180  0.99053570  0.12902816  1
  O  O202  1  0.75342722  0.98914354  0.62585660  1
  O  O203  1  0.00861823  0.38631026  0.25833768  1
  O  O204  1  0.00533944  0.36307066  0.74700581  1
  O  O205  1  0.00582493  0.87020331  0.25831059  1
  O  O206  1  0.00026586  0.85870411  0.74924346  1
  O  O207  1  0.50202262  0.37282807  0.26186177  1
  O  O208  1  0.51600257  0.38129326  0.74746440  1
  O  O209  1  0.50708977  0.86217050  0.25539646  1
  O  O210  1  0.51002585  0.86825109  0.75698567  1
  O  O211  1  0.50943651  0.12025865  0.23352544  1
  O  O212  1  0.46671479  0.10569308  0.74199988  1
  O  O213  1  0.49297773  0.63548430  0.25289368  1
  O  O214  1  0.51186118  0.63636276  0.72820672  1
  O  O215  1  0.98679377  0.11646004  0.25870514  1
  O  O216  1  0.99997612  0.13786373  0.74396681  1
  O  O217  1  0.99398926  0.62941189  0.24317385  1
  O  O218  1  0.99344925  0.63247331  0.74472761  1
  O  O219  1  0.38079888  0.27035764  0.00660051  1
  O  O220  1  0.37250584  0.25802600  0.50691849  1
  O  O221  1  0.36923910  0.75272061  0.00786451  1
  O  O222  1  0.36829577  0.75596251  0.50187559  1
  O  O223  1  0.87124656  0.25482654  0.00571811  1
  O  O224  1  0.86381770  0.25840237  0.50173294  1
  O  O225  1  0.87579958  0.75078619  0.00872889  1
  O  O226  1  0.86840610  0.75516946  0.50225752  1
  O  O227  1  0.11920384  0.25032248  0.49513389  1
  O  O228  1  0.11522389  0.23868164  0.99393106  1
  O  O229  1  0.13241112  0.74502185  0.49535934  1
  O  O230  1  0.13360130  0.73780977  1.01704777  1
  O  O231  1  0.64072773  0.25560385  0.48622208  1
  O  O232  1  0.63354546  0.23941272  0.99627739  1
  O  O233  1  0.63216804  0.74541233  0.49238491  1
  O  O234  1  0.62747349  0.74066045  0.99169303  1
  O  O235  1  0.50735644  0.23172114  0.12651694  1
  O  O236  1  0.47398733  0.25642648  0.63495046  1
  O  O237  1  0.48766701  0.75265633  0.13438798  1
  O  O238  1  0.49779398  0.74927922  0.62509113  1
  O  O239  1  0.98633166  0.25932762  0.12521545  1
  O  O240  1  0.99796035  0.24392418  0.63716836  1
  O  O241  1  0.99037558  0.74708846  0.13163151  1
  O  O242  1  1.00008361  0.73948452  0.63182949  1
  O  O243  1  -0.00587732  0.26683490  0.37643539  1
  O  O244  1  0.00692232  0.24584108  0.86348692  1
  O  O245  1  0.00596722  0.75600439  0.37035697  1
  O  O246  1  0.00113543  0.75373491  0.86270272  1
  O  O247  1  0.50993013  0.25426201  0.37002086  1
  O  O248  1  0.51289736  0.19625048  0.86962759  1
  O  O249  1  0.50940367  0.75500015  0.36693801  1
  O  O250  1  0.51089166  0.75098333  0.86397145  1
  O  O251  1  0.25138474  0.11951447  0.48376940  1
  O  O252  1  0.23373105  0.11782826  0.99758026  1
  O  O253  1  0.23738304  0.63481828  0.50504843  1
  O  O254  1  0.24207257  0.63209490  1.00942357  1
  O  O255  1  0.75429313  0.13422733  0.49200068  1
  O  O256  1  0.74645546  0.13077308  0.99725023  1
  O  O257  1  0.74013929  0.63184146  0.50439087  1
  O  O258  1  0.73935498  0.62842346  0.99593129  1
  O  O259  1  0.24027367  0.38147734  0.01283897  1
  O  O260  1  0.25923570  0.37894950  0.49493678  1
  O  O261  1  0.25813959  0.86842818  0.01334474  1
  O  O262  1  0.25576037  0.86862485  0.50549879  1
  O  O263  1  0.75494795  0.36834094  0.00472569  1
  O  O264  1  0.75344904  0.37129846  0.50866078  1
  O  O265  1  0.75260910  0.87014268  0.01315580  1
  O  O266  1  0.75979781  0.86900308  0.50497783  1
  O  O267  1  0.13022182  0.49786519  0.24281520  1
  O  O268  1  0.11483822  0.49316127  0.74134595  1
  O  O269  1  0.12800435  0.99166077  0.25188214  1
  O  O270  1  0.12747386  0.99936170  0.74707218  1
  O  O271  1  0.63290237  0.49999823  0.24241723  1
  O  O272  1  0.63008251  0.49510778  0.75196437  1
  O  O273  1  0.63990703  0.99130115  0.24305655  1
  O  O274  1  0.61921280  0.99051632  0.75585700  1
  O  O275  1  0.36316852  -0.00633629  0.24796480  1
  O  O276  1  0.36875051  -0.01924566  0.76520300  1
  O  O277  1  0.36743172  0.50539999  0.25515353  1
  O  O278  1  0.36921834  0.50685844  0.73273261  1
  O  O279  1  0.86577465  0.00653260  0.24312736  1
  O  O280  1  0.88432902  0.00126586  0.76344161  1
  O  O281  1  0.86886626  0.50402396  0.25527397  1
  O  O282  1  0.86808311  0.50803499  0.75109590  1
  O  O283  1  0.11430580  0.37913409  0.36566152  1
  O  O284  1  0.12835838  0.37223871  0.87064223  1
  O  O285  1  0.12087723  0.86731705  0.36825028  1
  O  O286  1  0.13048948  0.88898408  0.86609484  1
  O  O287  1  0.61738835  0.36743672  0.37122861  1
  O  O288  1  0.62755336  0.37577595  0.86206896  1
  O  O289  1  0.62285961  0.86162573  0.36735165  1
  O  O290  1  0.62169729  0.86764865  0.87144539  1
  O  O291  1  0.38943686  0.12308062  0.11569382  1
  O  O292  1  0.36941165  0.13778056  0.63276750  1
  O  O293  1  0.37327992  0.62784314  0.13657744  1
  O  O294  1  0.38805714  0.64225219  0.61007495  1
  O  O295  1  0.87155995  0.13571417  0.13504868  1
  O  O296  1  0.88806214  0.12582736  0.62882346  1
  O  O297  1  0.87951878  0.63065175  0.12871073  1
  O  O298  1  0.88340817  0.62641744  0.63497517  1
  O  O299  1  0.24336629  0.26744774  0.12465731  1
  O  O300  1  0.26490652  0.25544411  0.63250691  1
  O  O301  1  0.26542305  0.75294796  0.12525566  1
  O  O302  1  0.25773444  0.75511726  0.61591777  1
  O  O303  1  0.75428592  0.25721610  0.11372398  1
  O  O304  1  0.75123276  0.25671552  0.61810443  1
  O  O305  1  0.76226897  0.75494419  0.12763215  1
  O  O306  1  0.75092719  0.75932980  0.61171575  1
  O  O307  1  0.25151787  0.23751018  0.36696799  1
  O  O308  1  0.23531192  0.24809506  0.87250255  1
  O  O309  1  0.24660693  0.75267078  0.38610384  1
  O  O310  1  0.23585811  0.76680382  0.89740308  1
  O  O311  1  0.74668418  0.24584920  0.37980794  1
  O  O312  1  0.75328460  0.23920571  0.88872058  1
  O  O313  1  0.74289438  0.75414527  0.38790425  1
  O  O314  1  0.73730250  0.74867207  0.87302971  1
  O  O315  1  0.00936041  0.11253600  -0.00247609  1
  O  O316  1  -0.00049438  0.11834279  0.50911605  1
  O  O317  1  0.00770884  0.61909362  0.00636814  1
  O  O318  1  0.00620572  0.62305953  0.50962235  1
  O  O319  1  0.50890918  0.11435517  0.01272043  1
  O  O320  1  0.51096925  0.15909743  0.51099384  1
  O  O321  1  0.51506170  0.63300163  0.00346525  1
  O  O322  1  0.51253563  0.62263373  0.50390144  1
  O  O323  1  0.49270833  0.37309327  0.48615184  1
  O  O324  1  0.50550726  0.37230262  0.98848766  1
  O  O325  1  0.49113367  0.86831396  0.48782112  1
  O  O326  1  0.49436699  0.87651463  0.99547412  1
  O  O327  1  0.99032934  0.38473828  0.49453402  1
  O  O328  1  0.99104049  0.38560739  1.00623553  1
  O  O329  1  0.99472752  0.88089210  0.49979774  1
  O  O330  1  1.00448158  0.88863216  0.99510829  1
  O  O331  1  0.49438627  0.49213491  0.37755657  1
  O  O332  1  0.44394588  0.55851208  0.85797204  1
  O  O333  1  0.51104762  0.98447385  0.36642068  1
  O  O334  1  0.48876269  0.99420416  0.88383415  1
  O  O335  1  0.99023383  0.49405925  0.38100049  1
  O  O336  1  0.99789971  0.50425830  0.88770216  1
  O  O337  1  1.00764372  0.99359098  0.39133858  1
  O  O338  1  0.99070241  0.99841731  0.88395525  1
  O  O339  1  0.00090884  -0.00251251  0.11293421  1
  O  O340  1  0.01181383  0.00564743  0.62028123  1
  O  O341  1  0.00737897  0.50440333  0.11609182  1
  O  O342  1  0.00482767  0.51106562  0.62016244  1
  O  O343  1  0.50668122  0.00460573  0.12216710  1
  O  O344  1  0.49916144  -0.00307177  0.61585779  1
  O  O345  1  0.51342274  0.49173506  0.13341645  1
  O  O346  1  0.50190792  0.50950543  0.61457919  1
  O  O347  1  0.23947197  0.38800930  0.24297197  1
  O  O348  1  0.23366342  0.37623452  0.74819551  1
  O  O349  1  0.24360110  0.88423842  0.25437873  1
  O  O350  1  0.24609505  0.86471044  0.74531578  1
  O  O351  1  0.75002112  0.38548290  0.23990372  1
  O  O352  1  0.74759712  0.38296381  0.74521199  1
  O  O353  1  0.74986296  0.87906972  0.24159946  1
  O  O354  1  0.74253428  0.87022008  0.74018042  1
  O  O355  1  0.24847677  0.11303384  0.25773033  1
  O  O356  1  0.26360235  0.12179202  0.75217263  1
  O  O357  1  0.25698097  0.61243979  0.24651022  1
  O  O358  1  0.27073908  0.61893549  0.74093389  1
  O  O359  1  0.75664816  0.11598510  0.25601631  1
  O  O360  1  0.75121542  0.13205160  0.76524508  1
  O  O361  1  0.75677902  0.61138370  0.24461476  1
  O  O362  1  0.75636617  0.61965028  0.74881622  1
  O  O363  1  0.36257495  0.12416891  0.37109856  1
  O  O364  1  0.36458113  0.11240106  0.86682661  1
  O  O365  1  0.38149710  0.61395249  0.36455888  1
  O  O366  1  0.34805489  0.66836941  0.86016508  1
  O  O367  1  0.86393014  0.13234940  0.36711046  1
  O  O368  1  0.86975516  0.11341707  0.87478105  1
  O  O369  1  0.87984860  0.61296293  0.37021311  1
  O  O370  1  0.87322504  0.62373018  0.86339641  1
  O  O371  1  0.12880959  0.38610458  0.13058102  1
  O  O372  1  0.12053484  0.38423796  0.63461007  1
  O  O373  1  0.12497948  0.87387201  0.14320200  1
  O  O374  1  0.13835222  0.88092147  0.62121413  1
  O  O375  1  0.63593800  0.38043460  0.12383258  1
  O  O376  1  0.63785031  0.37808137  0.63683972  1
  O  O377  1  0.63379258  0.87412769  0.13084967  1
  O  O378  1  0.63488247  0.87735721  0.63574130  1
  O  O379  1  0.12567015  0.26533534  0.25336447  1
  O  O380  1  0.11582315  0.25841389  0.75840835  1
  O  O381  1  0.12190432  0.75313341  0.25603790  1
  O  O382  1  0.11139425  0.74211540  0.74733960  1
  O  O383  1  0.62931508  0.25125139  0.25958992  1
  O  O384  1  0.63064689  0.26695437  0.75536680  1
  O  O385  1  0.62053621  0.74895867  0.25438101  1
  O  O386  1  0.61878158  0.75635159  0.75477612  1
  O  O387  1  0.37768806  0.25264315  0.23406465  1
  O  O388  1  0.37244807  0.24380097  0.75210215  1
  O  O389  1  0.38067561  0.74159050  0.24637550  1
  O  O390  1  0.39475395  0.76105383  0.73453367  1
  O  O391  1  0.86871601  0.24084296  0.24001798  1
  O  O392  1  0.88574087  0.24986455  0.75147311  1
  O  O393  1  0.88014710  0.74359444  0.24525973  1
  O  O394  1  0.88328715  0.74215885  0.74734855  1
  O  O395  1  0.38412337  0.49061470  0.48837569  1
  O  O396  1  0.37970057  0.47499316  1.00780478  1
  O  O397  1  0.36956085  0.98875547  0.50216569  1
  O  O398  1  0.37482779  0.98837945  0.99367708  1
  O  O399  1  0.87538443  0.49889319  0.49275186  1
  O  O400  1  0.88309190  0.49230851  1.00016746  1
  O  O401  1  0.88658721  0.99111300  0.50524387  1
  O  O402  1  0.88725307  0.99895862  0.99514566  1
  O  O403  1  0.11525251  0.01287893  0.00848150  1
  O  O404  1  0.11907642  0.00321692  0.50990454  1
  O  O405  1  0.12075414  0.50649832  0.00549113  1
  O  O406  1  0.11647263  0.50822519  0.50387994  1
  O  O407  1  0.62007962  0.00036555  0.00825228  1
  O  O408  1  0.63528128  0.00046773  0.50338474  1
  O  O409  1  0.62659089  0.51226833  0.00501579  1
  O  O410  1  0.62136562  0.50808480  0.49878042  1
  O  O411  1  0.35643443  0.37790866  0.12364503  1
  O  O412  1  0.36903550  0.36940522  0.61165567  1
  O  O413  1  0.37873794  0.86683516  0.11484520  1
  O  O414  1  0.36529050  0.86666010  0.61632241  1
  O  O415  1  0.86429072  0.37040877  0.11703653  1
  O  O416  1  0.86360714  0.37585376  0.62023883  1
  O  O417  1  0.87002654  0.86571251  0.12435484  1
  O  O418  1  0.87070266  0.87312993  0.61586171  1
  O  O419  1  0.13898021  0.13121399  0.37800108  1
  O  O420  1  0.12677072  0.13380385  0.88575486  1
  O  O421  1  0.11714835  0.63249315  0.38588139  1
  O  O422  1  0.12537623  0.62302641  0.88841239  1
  O  O423  1  0.63895533  0.13277548  0.37539155  1
  O  O424  1  0.64022805  0.10340284  0.89263396  1
  O  O425  1  0.62187929  0.63568486  0.38063955  1
  O  O426  1  0.62257178  0.62933129  0.88297698  1
