# generated using pymatgen
data_V85Zn86O256
_symmetry_space_group_name_H-M   'P 1'
_cell_length_a   16.94258048
_cell_length_b   16.94976834
_cell_length_c   16.93766770
_cell_angle_alpha   90.05247780
_cell_angle_beta   90.00751864
_cell_angle_gamma   89.95649332
_symmetry_Int_Tables_number   1
_chemical_formula_structural   V85Zn86O256
_chemical_formula_sum   'V85 Zn86 O256'
_cell_volume   4864.03421721
_cell_formula_units_Z   1
loop_
 _symmetry_equiv_pos_site_id
 _symmetry_equiv_pos_as_xyz
  1  'x, y, z'
loop_
 _atom_site_type_symbol
 _atom_site_label
 _atom_site_symmetry_multiplicity
 _atom_site_fract_x
 _atom_site_fract_y
 _atom_site_fract_z
 _atom_site_occupancy
  V  V0  1  0.12255121  0.62451854  0.50024067  1
  V  V1  1  0.38053894  -0.00402803  0.37223484  1
  V  V2  1  0.12737651  0.12478593  0.50124453  1
  V  V3  1  0.88222941  0.36673574  -0.00272551  1
  V  V4  1  0.73884057  0.37722992  0.61971970  1
  V  V5  1  0.13052082  -0.00032013  0.12009364  1
  V  V6  1  0.10458972  0.50355604  0.12097646  1
  V  V7  1  0.50238631  0.12997205  0.12725639  1
  V  V8  1  0.87358051  0.87681925  -0.00533139  1
  V  V9  1  0.62497723  0.62789239  -0.01595295  1
  V  V10  1  0.36511348  0.87845524  0.00113029  1
  V  V11  1  -0.00486520  0.49589506  0.50025683  1
  V  V12  1  0.87542271  -0.00139520  0.37154598  1
  V  V13  1  0.00435830  0.62679985  0.63091248  1
  V  V14  1  0.26353152  0.25737373  0.50290165  1
  V  V15  1  0.12375685  0.74973595  0.37206497  1
  V  V16  1  0.74840790  0.87358381  0.12624399  1
  V  V17  1  0.50399015  0.00203434  -0.00379946  1
  V  V18  1  0.62485613  0.37678759  0.76032301  1
  V  V19  1  0.26152921  0.37738753  0.62674794  1
  V  V20  1  0.87542585  0.87296757  0.50064871  1
  V  V21  1  0.92805106  0.29499952  0.68093503  1
  V  V22  1  0.12579488  0.49298686  0.63401437  1
  V  V23  1  0.25225104  0.12401425  0.37594058  1
  V  V24  1  0.74499603  0.36571761  0.11347854  1
  V  V25  1  0.85967352  0.62867204  0.75264304  1
  V  V26  1  0.36759901  0.36954952  -0.00165009  1
  V  V27  1  0.61678737  0.60985311  0.50312689  1
  V  V28  1  0.37629064  0.62432421  0.24779211  1
  V  V29  1  0.49670541  0.13493919  0.62614319  1
  V  V30  1  0.74744927  0.74848345  0.50104160  1
  V  V31  1  0.49781744  0.37532878  0.37485171  1
  V  V32  1  0.25121581  0.75048008  0.49941535  1
  V  V33  1  0.00172228  0.87215681  0.37372582  1
  V  V34  1  0.50169081  -0.00043203  0.50001774  1
  V  V35  1  -0.00493928  0.24646168  0.24645818  1
  V  V36  1  -0.01182382  0.37231615  0.37879336  1
  V  V37  1  0.50169444  0.62873248  0.12498345  1
  V  V38  1  0.86705430  0.50712102  0.88234248  1
  V  V39  1  0.74931207  0.62392528  0.37335983  1
  V  V40  1  0.12704182  -0.00112498  0.62672572  1
  V  V41  1  0.50254856  0.76112021  0.25504961  1
  V  V42  1  0.37917653  0.13068874  0.25099715  1
  V  V43  1  0.62290683  0.37186710  0.24818805  1
  V  V44  1  0.74900185  -0.00007414  0.76363699  1
  V  V45  1  0.62054423  0.86505827  0.75434183  1
  V  V46  1  0.12981548  0.86460073  0.75562680  1
  V  V47  1  0.24768957  0.62377266  0.37054409  1
  V  V48  1  0.37977649  0.62899758  0.75574211  1
  V  V49  1  0.24936814  0.49777757  0.24461987  1
  V  V50  1  0.62032645  0.24829372  0.37164850  1
  V  V51  1  0.13147167  0.87361083  0.24284182  1
  V  V52  1  0.38791096  0.74953076  0.62892807  1
  V  V53  1  0.75167678  0.12523194  0.37336975  1
  V  V54  1  0.25085680  0.00502655  0.75681755  1
  V  V55  1  0.36642309  0.75644046  0.12461248  1
  V  V56  1  0.00160104  0.74630547  0.23840377  1
  V  V57  1  0.75043241  0.87823127  0.62678149  1
  V  V58  1  -0.00327717  0.00575702  -0.00298294  1
  V  V59  1  0.37629413  0.49605362  0.37797914  1
  V  V60  1  0.24434159  0.50458271  0.76048714  1
  V  V61  1  0.62764105  0.12551581  0.50176452  1
  V  V62  1  0.12424567  0.37226137  0.25039719  1
  V  V63  1  0.50325727  0.86297882  0.87572132  1
  V  V64  1  0.37024474  0.13339752  0.75213763  1
  V  V65  1  0.87808266  0.11775439  0.75612369  1
  V  V66  1  0.00262920  -0.00197571  0.49943811  1
  V  V67  1  0.25388727  0.87272524  0.62515530  1
  V  V68  1  -0.00007892  0.74783664  0.75852312  1
  V  V69  1  0.74882307  0.13918766  0.88073049  1
  V  V70  1  0.76409800  0.25214298  0.50322827  1
  V  V71  1  0.38233324  0.87416724  0.49581409  1
  V  V72  1  0.62611572  0.00213205  0.62803436  1
  V  V73  1  0.00034938  0.88286067  0.87412200  1
  V  V74  1  0.12915937  0.25952648  0.85409932  1
  V  V75  1  0.13750477  0.13854184  -0.00780182  1
  V  V76  1  0.62611414  0.50386906  0.12520345  1
  V  V77  1  0.87775154  0.62251134  0.24310530  1
  V  V78  1  0.36750526  0.24854497  0.12248943  1
  V  V79  1  0.74498817  0.74604942  -0.01343570  1
  V  V80  1  0.12566652  0.24890419  0.37523381  1
  V  V81  1  -0.00481623  0.12413556  0.62818861  1
  V  V82  1  0.50235844  0.24927408  0.76065898  1
  V  V83  1  0.62674052  0.13943170  -0.00321700  1
  V  V84  1  0.37379877  0.50180640  0.87937126  1
  Zn  Zn85  1  0.24442259  0.36878643  0.12123618  1
  Zn  Zn86  1  0.50175766  0.60933986  0.62584460  1
  Zn  Zn87  1  0.87519981  0.12270065  0.24465070  1
  Zn  Zn88  1  0.87619979  0.75015724  0.62571167  1
  Zn  Zn89  1  0.86867884  0.24204603  0.11930768  1
  Zn  Zn90  1  0.50307070  0.36931866  0.88419691  1
  Zn  Zn91  1  -0.00142878  0.12645857  0.11967278  1
  Zn  Zn92  1  0.87473236  0.74527216  0.12028331  1
  Zn  Zn93  1  0.25324764  -0.00241142  0.24452470  1
  Zn  Zn94  1  0.73930520  0.50691395  0.74633663  1
  Zn  Zn95  1  0.12220689  0.62766367  -0.01611867  1
  Zn  Zn96  1  0.44146173  0.44143047  0.53875740  1
  Zn  Zn97  1  0.24229981  0.74661649  -0.01957797  1
  Zn  Zn98  1  0.75167539  0.49906351  0.24959365  1
  Zn  Zn99  1  0.62014986  0.75408835  0.37848655  1
  Zn  Zn100  1  0.87318781  0.49857042  0.37642809  1
  Zn  Zn101  1  0.49929607  0.49817804  0.00090640  1
  Zn  Zn102  1  0.62678708  0.00045287  0.12528396  1
  Zn  Zn103  1  0.00089016  0.36992830  0.86607954  1
  Zn  Zn104  1  0.62505711  0.88094059  0.25681341  1
  Zn  Zn105  1  0.37442996  0.00617795  0.87587498  1
  Zn  Zn106  1  0.74957419  -0.00245464  0.24803965  1
  Zn  Zn107  1  0.18626191  0.18127917  0.18590628  1
  Zn  Zn108  1  0.18899808  0.19109761  0.68345738  1
  Zn  Zn109  1  0.19918621  0.67038508  0.14583425  1
  Zn  Zn110  1  0.19184258  0.68086663  0.81284105  1
  Zn  Zn111  1  0.68566658  0.18543691  0.18927407  1
  Zn  Zn112  1  0.68926069  0.19247667  0.68992517  1
  Zn  Zn113  1  0.68914712  0.69066976  0.18431003  1
  Zn  Zn114  1  0.68083136  0.69112619  0.67947711  1
  Zn  Zn115  1  0.31305761  0.31037168  0.31170901  1
  Zn  Zn116  1  0.30886673  0.31373181  0.81251540  1
  Zn  Zn117  1  0.31326247  0.81147212  0.31007654  1
  Zn  Zn118  1  0.32287559  0.81874442  0.81094870  1
  Zn  Zn119  1  0.80755682  0.31087750  0.30771544  1
  Zn  Zn120  1  0.80375666  0.31577106  0.81545275  1
  Zn  Zn121  1  0.81225434  0.80838431  0.31175479  1
  Zn  Zn122  1  0.81362498  0.81533836  0.81340679  1
  Zn  Zn123  1  0.18380970  0.43764194  0.43721302  1
  Zn  Zn124  1  0.18290246  0.43550738  0.93859513  1
  Zn  Zn125  1  0.19175064  0.93713844  0.43452584  1
  Zn  Zn126  1  0.18441094  0.93938818  0.93602467  1
  Zn  Zn127  1  0.68918331  0.43573969  0.43620980  1
  Zn  Zn128  1  0.68856728  0.44243306  0.93765588  1
  Zn  Zn129  1  0.68634986  0.93506445  0.43460266  1
  Zn  Zn130  1  0.68412771  0.93841468  0.94073665  1
  Zn  Zn131  1  0.31207731  0.06218782  0.06166916  1
  Zn  Zn132  1  0.31516709  0.06358123  0.56548178  1
  Zn  Zn133  1  0.30980115  0.56014501  0.05925087  1
  Zn  Zn134  1  0.30856445  0.56828540  0.56758363  1
  Zn  Zn135  1  0.81388716  0.06087859  0.05959733  1
  Zn  Zn136  1  0.81421763  0.06185393  0.56271461  1
  Zn  Zn137  1  0.80928300  0.56140937  0.06100168  1
  Zn  Zn138  1  0.81317808  0.56265059  0.56425803  1
  Zn  Zn139  1  0.43948008  0.43459814  0.18764267  1
  Zn  Zn140  1  0.43603501  0.43735840  0.70170740  1
  Zn  Zn141  1  0.43865717  0.94190449  0.18256440  1
  Zn  Zn142  1  0.43936591  0.94180555  0.68942053  1
  Zn  Zn143  1  0.93039315  0.43089992  0.18958890  1
  Zn  Zn144  1  0.93195122  0.45618327  0.69213249  1
  Zn  Zn145  1  0.94061549  0.93488444  0.18178377  1
  Zn  Zn146  1  0.93734586  0.93932625  0.68913649  1
  Zn  Zn147  1  0.06435236  0.06062432  0.31012247  1
  Zn  Zn148  1  0.06690214  0.06671180  0.81485827  1
  Zn  Zn149  1  0.06109375  0.56060501  0.30863174  1
  Zn  Zn150  1  0.03812572  0.57067440  0.85180906  1
  Zn  Zn151  1  0.56313906  0.05927249  0.31063206  1
  Zn  Zn152  1  0.56443148  0.06355682  0.81434181  1
  Zn  Zn153  1  0.56314608  0.56270747  0.31354910  1
  Zn  Zn154  1  0.55499473  0.55596485  0.80880439  1
  Zn  Zn155  1  0.44161694  0.18712216  0.43568166  1
  Zn  Zn156  1  0.43318281  0.18648558  0.93748289  1
  Zn  Zn157  1  0.43641285  0.68451279  0.43566334  1
  Zn  Zn158  1  0.43122763  0.68720581  0.94110695  1
  Zn  Zn159  1  0.94005164  0.18446146  0.43665216  1
  Zn  Zn160  1  0.94178763  0.19013999  0.93056885  1
  Zn  Zn161  1  0.93528641  0.68490682  0.43470935  1
  Zn  Zn162  1  0.93741234  0.69013884  0.94108562  1
  Zn  Zn163  1  0.05986580  0.31366480  0.06283832  1
  Zn  Zn164  1  0.07161315  0.31491069  0.55951157  1
  Zn  Zn165  1  0.06591129  0.81236720  0.05849322  1
  Zn  Zn166  1  0.06449988  0.80983026  0.56625945  1
  Zn  Zn167  1  0.55400261  0.31173213  0.06494459  1
  Zn  Zn168  1  0.56830643  0.30882731  0.56084168  1
  Zn  Zn169  1  0.56338674  0.81282856  0.06306042  1
  Zn  Zn170  1  0.56587318  0.81353026  0.56138167  1
  O  O171  1  0.12080482  0.11749316  0.11411276  1
  O  O172  1  0.11417146  0.12063294  0.62112838  1
  O  O173  1  0.10921038  0.60372606  0.14178636  1
  O  O174  1  0.11053216  0.61605348  0.61932174  1
  O  O175  1  0.61825636  0.12509108  0.11789780  1
  O  O176  1  0.62128282  0.12022364  0.62171222  1
  O  O177  1  0.61953632  0.61885957  0.12112778  1
  O  O178  1  0.62157197  0.62515726  0.60845338  1
  O  O179  1  0.38578380  0.38149650  0.36581930  1
  O  O180  1  0.37760269  0.37828675  0.88374424  1
  O  O181  1  0.37090634  0.88355652  0.38344216  1
  O  O182  1  0.38964550  0.88304596  0.88212676  1
  O  O183  1  0.88506301  0.37506862  0.37048177  1
  O  O184  1  0.86856975  0.37589400  0.88817462  1
  O  O185  1  0.88012480  0.87996071  0.38064309  1
  O  O186  1  0.88167897  0.87591597  0.88612532  1
  O  O187  1  0.26401168  0.00805205  0.37685464  1
  O  O188  1  0.25030962  -0.00212503  0.85970129  1
  O  O189  1  0.25164173  0.50330415  0.36359663  1
  O  O190  1  0.26160583  0.48727445  0.86810155  1
  O  O191  1  0.76008795  0.00785971  0.37637067  1
  O  O192  1  0.74725462  0.00336350  0.86567876  1
  O  O193  1  0.75191155  0.51135295  0.37476957  1
  O  O194  1  0.76222761  0.49469641  0.86671786  1
  O  O195  1  0.24750222  0.49421560  0.13904957  1
  O  O196  1  0.24266900  0.49497429  0.62854878  1
  O  O197  1  0.23589576  1.00219013  0.12523799  1
  O  O198  1  0.24683086  0.98946538  0.62866504  1
  O  O199  1  0.73749420  0.49154133  0.12501436  1
  O  O200  1  0.75789517  0.48040913  0.62418878  1
  O  O201  1  0.75216148  0.98563630  0.12352872  1
  O  O202  1  0.74458754  0.99698825  0.63283045  1
  O  O203  1  0.00420236  0.36363869  0.25759787  1
  O  O204  1  -0.01674448  0.35892400  0.73693412  1
  O  O205  1  0.00708439  0.86712024  0.25546797  1
  O  O206  1  0.00733483  0.87149438  0.75447897  1
  O  O207  1  0.51447662  0.37665065  0.25770607  1
  O  O208  1  0.50967124  0.36566066  0.75443196  1
  O  O209  1  0.49904707  0.86323714  0.24503688  1
  O  O210  1  0.50629310  0.88265825  0.76568783  1
  O  O211  1  0.49112523  0.11823295  0.23997152  1
  O  O212  1  0.49716211  0.13142810  0.74411918  1
  O  O213  1  0.49621933  0.63061685  0.24035048  1
  O  O214  1  0.48463976  0.62122442  0.74576401  1
  O  O215  1  1.00056793  0.13735439  0.25206212  1
  O  O216  1  0.99011055  0.11810339  0.74307458  1
  O  O217  1  0.98931578  0.63522494  0.25947426  1
  O  O218  1  0.99218066  0.63396062  0.74846101  1
  O  O219  1  0.37666387  0.25551146  0.00968498  1
  O  O220  1  0.36179512  0.24593177  0.49482688  1
  O  O221  1  0.36912929  0.75910412  0.00893081  1
  O  O222  1  0.37149072  0.75726327  0.50248459  1
  O  O223  1  0.87581974  0.26268917  0.00022950  1
  O  O224  1  0.86322003  0.24524743  0.49495245  1
  O  O225  1  0.86363263  0.75541349  -0.00070606  1
  O  O226  1  0.86455770  0.75270594  0.50174400  1
  O  O227  1  0.13307680  0.24143988  0.49249444  1
  O  O228  1  0.12712062  0.23897403  1.00625210  1
  O  O229  1  0.13064351  0.74568955  0.49369030  1
  O  O230  1  0.13002790  0.74282505  1.00562556  1
  O  O231  1  0.63535124  0.24130138  0.49132099  1
  O  O232  1  0.61864295  0.23857275  1.00310705  1
  O  O233  1  0.63770625  0.74607706  0.50010579  1
  O  O234  1  0.63635606  0.74333830  1.00280277  1
  O  O235  1  0.48841493  0.23591719  0.12496895  1
  O  O236  1  0.50527398  0.23854236  0.63003641  1
  O  O237  1  0.49390680  0.74457954  0.13317707  1
  O  O238  1  0.48921660  0.74975808  0.61965761  1
  O  O239  1  0.99547086  0.24912220  0.13461507  1
  O  O240  1  0.99608813  0.24404589  0.61828652  1
  O  O241  1  0.99615873  0.75419638  0.13612688  1
  O  O242  1  0.99975017  0.74310823  0.63702630  1
  O  O243  1  0.00645996  0.25532523  0.37151083  1
  O  O244  1  0.01790239  0.25525796  0.87884375  1
  O  O245  1  0.00531891  0.75572668  0.37032230  1
  O  O246  1  -0.00621811  0.76554774  0.86316833  1
  O  O247  1  0.51392820  0.25305538  0.37501655  1
  O  O248  1  0.50069432  0.24792582  0.86419027  1
  O  O249  1  0.49814546  0.74445645  0.35781999  1
  O  O250  1  0.49656682  0.76477611  0.88108996  1
  O  O251  1  0.24708153  0.13362143  0.49826697  1
  O  O252  1  0.23527917  0.12020030  0.99811356  1
  O  O253  1  0.24195655  0.63184033  0.49375897  1
  O  O254  1  0.23667813  0.63932939  1.03425747  1
  O  O255  1  0.74780798  0.12900039  0.49100836  1
  O  O256  1  0.74400288  0.12040155  0.98733660  1
  O  O257  1  0.74411927  0.63058300  0.49602186  1
  O  O258  1  0.74151142  0.63852052  1.00273667  1
  O  O259  1  0.26307347  0.37892558  0.00531306  1
  O  O260  1  0.24682319  0.36225950  0.50007403  1
  O  O261  1  0.26309045  0.87926103  -0.00551604  1
  O  O262  1  0.26159447  0.87326278  0.50563350  1
  O  O263  1  0.75245271  0.37685152  0.01037108  1
  O  O264  1  0.74587802  0.36727733  0.51042634  1
  O  O265  1  0.75504620  0.86754234  0.00251293  1
  O  O266  1  0.75650102  0.86822868  0.50514418  1
  O  O267  1  0.12940443  0.48868645  0.24592557  1
  O  O268  1  0.13146582  0.50119033  0.73610798  1
  O  O269  1  0.12446040  0.99219147  0.23988216  1
  O  O270  1  0.13231890  0.99465604  0.74355196  1
  O  O271  1  0.62733955  0.49369570  0.24214804  1
  O  O272  1  0.62359552  0.48339634  0.74915957  1
  O  O273  1  0.63030588  0.99847347  0.24416416  1
  O  O274  1  0.63225610  0.99500951  0.74522383  1
  O  O275  1  0.37452736  0.00605693  0.25664464  1
  O  O276  1  0.36626533  0.00784396  0.75024576  1
  O  O277  1  0.36755891  0.50250604  0.25599041  1
  O  O278  1  0.36640580  0.50733867  0.76200143  1
  O  O279  1  0.87789184  -0.00205339  0.26211869  1
  O  O280  1  0.86442073  0.01041918  0.74689293  1
  O  O281  1  0.87242699  0.50687818  0.25405198  1
  O  O282  1  0.86011251  0.51412115  0.75461693  1
  O  O283  1  0.11700682  0.36982033  0.36493045  1
  O  O284  1  0.11957130  0.36582911  0.87334254  1
  O  O285  1  0.11900078  0.87124042  0.36975454  1
  O  O286  1  0.11593499  0.88046495  0.86373956  1
  O  O287  1  0.62291317  0.36806625  0.36680589  1
  O  O288  1  0.62517547  0.37563144  0.86429481  1
  O  O289  1  0.62843518  0.86720818  0.37046419  1
  O  O290  1  0.61199637  0.87933834  0.86968893  1
  O  O291  1  0.37978679  0.12869012  0.13108143  1
  O  O292  1  0.38767032  0.11966076  0.63594046  1
  O  O293  1  0.38418940  0.63313103  0.12943387  1
  O  O294  1  0.37605451  0.63646724  0.63024251  1
  O  O295  1  0.87880285  0.12524790  0.12700720  1
  O  O296  1  0.88768425  0.12050021  0.63136328  1
  O  O297  1  0.86772948  0.62483689  0.13810702  1
  O  O298  1  0.88693003  0.62509246  0.63390794  1
  O  O299  1  0.26294732  0.24889868  0.13240402  1
  O  O300  1  0.24767401  0.26048871  0.61093047  1
  O  O301  1  0.26799518  0.76055269  0.14512658  1
  O  O302  1  0.26142150  0.76624523  0.61572739  1
  O  O303  1  0.74903821  0.26277077  0.12936171  1
  O  O304  1  0.74837336  0.26092207  0.61565327  1
  O  O305  1  0.75276081  0.76051083  0.11542613  1
  O  O306  1  0.75317087  0.75954663  0.61695287  1
  O  O307  1  0.24585654  0.24447033  0.38362613  1
  O  O308  1  0.23071517  0.25377631  0.86969811  1
  O  O309  1  0.24501996  0.74327431  0.37868952  1
  O  O310  1  0.25240686  0.75596424  0.86780094  1
  O  O311  1  0.74305703  0.24320855  0.38048086  1
  O  O312  1  0.74572035  0.23739944  0.87503085  1
  O  O313  1  0.75088804  0.73787709  0.38307711  1
  O  O314  1  0.74845246  0.75538617  0.88790099  1
  O  O315  1  0.00694928  0.11677197  -0.00344990  1
  O  O316  1  0.00584583  0.11706164  0.50636714  1
  O  O317  1  0.01008333  0.61169661  -0.03993503  1
  O  O318  1  0.00419373  0.62185233  0.50834658  1
  O  O319  1  0.50651988  0.11994082  0.00368121  1
  O  O320  1  0.50619666  0.12137357  0.50822286  1
  O  O321  1  0.50607366  0.62772460  0.01244125  1
  O  O322  1  0.51400482  0.62764889  0.49746896  1
  O  O323  1  0.50529169  0.36628490  0.48197146  1
  O  O324  1  0.48703481  0.37823397  1.00183300  1
  O  O325  1  0.48892220  0.88114442  0.50475253  1
  O  O326  1  0.49790390  0.88248989  0.99143651  1
  O  O327  1  1.00658163  0.38301168  0.49072594  1
  O  O328  1  0.98330428  0.37690628  1.00035673  1
  O  O329  1  0.99603075  0.87838288  0.49628871  1
  O  O330  1  0.99387427  0.88022988  0.99110829  1
  O  O331  1  0.48921187  0.49055632  0.37001781  1
  O  O332  1  0.48570169  0.49299055  0.87810222  1
  O  O333  1  0.48788564  1.00695655  0.38357522  1
  O  O334  1  0.49979991  0.99879852  0.88682314  1
  O  O335  1  1.00100855  0.48960372  0.38254849  1
  O  O336  1  0.96850762  0.48136988  0.85258751  1
  O  O337  1  0.99536757  0.99368754  0.38024280  1
  O  O338  1  1.00375469  0.99084260  0.87984060  1
  O  O339  1  0.00977956  0.00150948  0.11423581  1
  O  O340  1  0.00676099  0.00552844  0.61953491  1
  O  O341  1  0.00657294  0.48841471  0.12700518  1
  O  O342  1  0.00668310  0.50462180  0.62006811  1
  O  O343  1  0.49970662  0.01194299  0.11269255  1
  O  O344  1  0.50790349  0.00907310  0.62001624  1
  O  O345  1  0.50975865  0.50880302  0.12630566  1
  O  O346  1  0.48712098  0.49704744  0.62222815  1
  O  O347  1  0.23977637  0.37929015  0.25157579  1
  O  O348  1  0.25735073  0.38986305  0.73805063  1
  O  O349  1  0.23482084  0.87925382  0.25928898  1
  O  O350  1  0.24557951  0.88290593  0.74185695  1
  O  O351  1  0.73926887  0.37834922  0.24052008  1
  O  O352  1  0.73669058  0.37164194  0.73992430  1
  O  O353  1  0.75281435  0.87391547  0.23903498  1
  O  O354  1  0.74410832  0.88303403  0.74738305  1
  O  O355  1  0.25770074  0.12037007  0.25852707  1
  O  O356  1  0.25919069  0.11664674  0.73610297  1
  O  O357  1  0.25623351  0.61599567  0.24979091  1
  O  O358  1  0.26223212  0.60925351  0.74445605  1
  O  O359  1  0.75275494  0.12278571  0.26301980  1
  O  O360  1  0.75410979  0.11982011  0.75983219  1
  O  O361  1  0.75509683  0.62599244  0.25780341  1
  O  O362  1  0.75684244  0.63036744  0.74051738  1
  O  O363  1  0.37308912  0.11968048  0.36804334  1
  O  O364  1  0.37763479  0.12313611  0.85841332  1
  O  O365  1  0.36826203  0.61765898  0.36654706  1
  O  O366  1  0.37600161  0.61619159  0.87022729  1
  O  O367  1  0.86894547  0.11536140  0.37378692  1
  O  O368  1  0.86299679  0.12788006  0.86783140  1
  O  O369  1  0.86578979  0.62313197  0.36556603  1
  O  O370  1  0.87152583  0.61468973  0.86745753  1
  O  O371  1  0.12457845  0.37901395  0.13745283  1
  O  O372  1  0.13915335  0.38563191  0.61744330  1
  O  O373  1  0.11824458  0.88489973  0.13404372  1
  O  O374  1  0.13436012  0.87772745  0.63302561  1
  O  O375  1  0.62851339  0.37969513  0.12856816  1
  O  O376  1  0.63536306  0.37367806  0.63016616  1
  O  O377  1  0.63465643  0.87682088  0.12737931  1
  O  O378  1  0.62949103  0.88341237  0.63212838  1
  O  O379  1  0.11963908  0.25430738  0.25482933  1
  O  O380  1  0.12219959  0.24824396  0.75437560  1
  O  O381  1  0.11723601  0.75758200  0.25526445  1
  O  O382  1  0.11771869  0.75968541  0.74983886  1
  O  O383  1  0.63043818  0.25816014  0.25987073  1
  O  O384  1  0.61551583  0.26298006  0.74543153  1
  O  O385  1  0.60976777  0.74866384  0.24832251  1
  O  O386  1  0.62614359  0.76604854  0.74545321  1
  O  O387  1  0.37425327  0.23620689  0.24600597  1
  O  O388  1  0.38473099  0.24410510  0.74969399  1
  O  O389  1  0.38679894  0.74613945  0.24609765  1
  O  O390  1  0.37267131  0.74270476  0.73913076  1
  O  O391  1  0.88263696  0.24746908  0.24806768  1
  O  O392  1  0.87032272  0.23926964  0.74761689  1
  O  O393  1  0.88450741  0.74217330  0.24836543  1
  O  O394  1  0.88122653  0.74588472  0.74865921  1
  O  O395  1  0.36247602  0.50468682  0.48168244  1
  O  O396  1  0.37589334  0.49397230  0.99567286  1
  O  O397  1  0.38041927  0.99346076  0.49414464  1
  O  O398  1  0.38279279  0.99510887  0.99846465  1
  O  O399  1  0.89133958  0.50624191  0.49827002  1
  O  O400  1  0.86638449  0.49240311  0.98723930  1
  O  O401  1  0.88125616  0.99490646  0.48933236  1
  O  O402  1  0.88854472  0.99192622  1.00100755  1
  O  O403  1  0.11648149  0.00578385  0.00309330  1
  O  O404  1  0.12317923  0.00409845  0.50599258  1
  O  O405  1  0.13101427  0.49807550  0.02082974  1
  O  O406  1  0.11574453  0.50685008  0.50530392  1
  O  O407  1  0.61760378  0.00914321  0.00390112  1
  O  O408  1  0.62208003  0.00629029  0.50614276  1
  O  O409  1  0.62245615  0.50931878  0.00748162  1
  O  O410  1  0.62568991  0.51162960  0.49566809  1
  O  O411  1  0.37495869  0.36388001  0.12210171  1
  O  O412  1  0.36385639  0.38318319  0.61620801  1
  O  O413  1  0.38428578  0.86876934  0.11222315  1
  O  O414  1  0.37175754  0.87229224  0.61959596  1
  O  O415  1  0.86161552  0.37507274  0.11258237  1
  O  O416  1  0.86801606  0.36376183  0.63439548  1
  O  O417  1  0.87054667  0.87195545  0.11066575  1
  O  O418  1  0.86973432  0.87592839  0.61815355  1
  O  O419  1  0.13228420  0.12720495  0.38064477  1
  O  O420  1  0.12317991  0.13809695  0.88524030  1
  O  O421  1  0.12976192  0.62909444  0.37799462  1
  O  O422  1  0.14422390  0.59766837  0.86903479  1
  O  O423  1  0.63219265  0.13019322  0.37916064  1
  O  O424  1  0.63913265  0.12151368  0.88160611  1
  O  O425  1  0.63160000  0.62917435  0.38466242  1
  O  O426  1  0.61513783  0.61836990  0.88546717  1
