# generated using pymatgen
data_V85Zn86O256
_symmetry_space_group_name_H-M   'P 1'
_cell_length_a   16.94623209
_cell_length_b   16.96308651
_cell_length_c   16.94478466
_cell_angle_alpha   90.00882490
_cell_angle_beta   90.09902437
_cell_angle_gamma   89.92615963
_symmetry_Int_Tables_number   1
_chemical_formula_structural   V85Zn86O256
_chemical_formula_sum   'V85 Zn86 O256'
_cell_volume   4870.94321839
_cell_formula_units_Z   1
loop_
 _symmetry_equiv_pos_site_id
 _symmetry_equiv_pos_as_xyz
  1  'x, y, z'
loop_
 _atom_site_type_symbol
 _atom_site_label
 _atom_site_symmetry_multiplicity
 _atom_site_fract_x
 _atom_site_fract_y
 _atom_site_fract_z
 _atom_site_occupancy
  V  V0  1  0.76037599  0.49948177  0.76554059  1
  V  V1  1  0.13077473  0.87439285  0.25596773  1
  V  V2  1  0.74966945  0.62209558  0.37618354  1
  V  V3  1  0.25192895  0.86908731  0.11975076  1
  V  V4  1  -0.00686371  0.64283973  0.62973853  1
  V  V5  1  -0.00851720  0.38082165  0.87693169  1
  V  V6  1  0.36908125  0.62302592  0.74191569  1
  V  V7  1  0.50241675  0.62486997  0.11830373  1
  V  V8  1  0.12876553  0.75386946  0.85182304  1
  V  V9  1  0.37401495  0.74972154  0.11831549  1
  V  V10  1  0.49932569  0.87589485  0.37752327  1
  V  V11  1  0.13471125  0.38226207  0.74566178  1
  V  V12  1  0.25864167  0.86959022  0.63025201  1
  V  V13  1  0.37498771  0.86988003  -0.00903185  1
  V  V14  1  0.87465693  0.63676354  0.75937764  1
  V  V15  1  0.50224519  0.12789995  0.13387561  1
  V  V16  1  0.62312576  0.74436823  0.87008988  1
  V  V17  1  0.74757508  0.25332864  0.50636347  1
  V  V18  1  0.12302097  0.75147303  0.37948111  1
  V  V19  1  0.62544712  0.87101538  0.24753925  1
  V  V20  1  0.88675189  0.86795634  0.50789954  1
  V  V21  1  0.24963764  0.37441824  0.12367382  1
  V  V22  1  0.37354181  0.13101831  0.75461481  1
  V  V23  1  0.12572540  0.50176124  0.11824510  1
  V  V24  1  0.24987639  0.24691689  -0.00198764  1
  V  V25  1  0.38022604  0.25130027  0.12577143  1
  V  V26  1  0.62635811  -0.00091490  0.12558538  1
  V  V27  1  0.62534877  0.24800370  0.87090731  1
  V  V28  1  0.24676035  0.00054293  0.75297203  1
  V  V29  1  0.87743069  0.50129488  0.37962458  1
  V  V30  1  0.63421231  0.49746328  0.62629648  1
  V  V31  1  -0.05839734  0.92722998  0.32843121  1
  V  V32  1  0.00292411  0.37668562  0.37239869  1
  V  V33  1  0.75278003  0.74798459  0.51295404  1
  V  V34  1  0.75088000  0.74316883  -0.00940408  1
  V  V35  1  0.37967741  0.13022357  0.25173811  1
  V  V36  1  0.13095121  0.00056125  0.12292315  1
  V  V37  1  0.00228846  0.62893191  0.12497407  1
  V  V38  1  -0.00090673  0.25025535  0.74902524  1
  V  V39  1  0.00280270  0.87210307  0.86044866  1
  V  V40  1  0.61759431  0.88158437  0.75143938  1
  V  V41  1  0.87384505  0.74885218  0.12322320  1
  V  V42  1  0.62451037  0.12500795  -0.00124875  1
  V  V43  1  0.37132618  0.25691947  0.63025683  1
  V  V44  1  0.61571338  0.25072802  0.37187129  1
  V  V45  1  0.25604469  0.12572266  0.37803891  1
  V  V46  1  -0.05818277  0.05653636  0.45497489  1
  V  V47  1  0.50364977  -0.00051106  0.50948292  1
  V  V48  1  0.37370585  0.37391244  -0.00366533  1
  V  V49  1  0.62627561  0.12432070  0.50999486  1
  V  V50  1  0.12951668  0.64143937  -0.00072905  1
  V  V51  1  0.76084057  0.11969750  0.87737540  1
  V  V52  1  0.87442481  0.87812275  -0.01017309  1
  V  V53  1  0.49957428  0.74780059  0.24839651  1
  V  V54  1  0.12524172  0.25089788  0.36902781  1
  V  V55  1  0.00109118  0.12017267  0.62676462  1
  V  V56  1  0.25500983  0.62289516  0.37585640  1
  V  V57  1  -0.00567066  0.12758603  0.13534532  1
  V  V58  1  0.87114335  0.37388861  0.50763293  1
  V  V59  1  0.25272211  0.49810212  0.25267660  1
  V  V60  1  0.36846702  0.37851400  0.49763338  1
  V  V61  1  0.36275680  0.50069617  0.86977872  1
  V  V62  1  0.63122640  0.37423637  0.74561977  1
  V  V63  1  0.50035709  0.12695706  0.63438274  1
  V  V64  1  0.26062232  0.74960504  0.50405860  1
  V  V65  1  0.50061727  0.49593485  0.49694823  1
  V  V66  1  0.12876575  0.24769938  0.87276676  1
  V  V67  1  0.13018938  0.12111477  0.50223104  1
  V  V68  1  0.13003820  0.12371841  -0.00478533  1
  V  V69  1  0.49408098  0.74962737  0.74750469  1
  V  V70  1  0.36973282  0.00627123  0.87698097  1
  V  V71  1  0.49930350  0.49984508  -0.00625980  1
  V  V72  1  0.00342976  0.50006152  0.51029789  1
  V  V73  1  -0.00193928  0.00156577  -0.00882234  1
  V  V74  1  0.75756871  0.25579195  0.01183488  1
  V  V75  1  0.74876524  0.87405377  0.12157498  1
  V  V76  1  0.87695124  0.62636572  0.25124899  1
  V  V77  1  0.62489768  0.62247172  0.50274662  1
  V  V78  1  0.62273348  0.74539651  0.37641355  1
  V  V79  1  0.49956499  0.37071923  0.86482991  1
  V  V80  1  0.74751529  0.88376973  0.62727963  1
  V  V81  1  0.37484625  0.62197999  0.24808868  1
  V  V82  1  0.49828852  -0.00309232  -0.00429580  1
  V  V83  1  0.63020520  0.49198866  0.12216084  1
  V  V84  1  0.12422254  -0.00868892  0.62638887  1
  Zn  Zn85  1  -0.00061043  0.75301268  0.25571532  1
  Zn  Zn86  1  0.49921688  0.62726514  0.62381552  1
  Zn  Zn87  1  0.25429383  0.63668954  0.88178362  1
  Zn  Zn88  1  0.12812181  0.62268655  0.50512696  1
  Zn  Zn89  1  0.24690875  0.25645247  0.50825005  1
  Zn  Zn90  1  0.37972087  0.87351736  0.50519153  1
  Zn  Zn91  1  0.75245091  0.49680647  0.24097660  1
  Zn  Zn92  1  -0.09645253  0.26956735  0.17770611  1
  Zn  Zn93  1  0.25754238  -0.00132281  0.25246527  1
  Zn  Zn94  1  0.49357843  0.37454751  0.36843236  1
  Zn  Zn95  1  0.87200272  0.38093881  0.01536774  1
  Zn  Zn96  1  0.61758910  0.36778299  0.24280431  1
  Zn  Zn97  1  0.87438223  0.24831121  0.62507506  1
  Zn  Zn98  1  0.38239395  0.00254725  0.37518941  1
  Zn  Zn99  1  0.75175229  -0.00175983  0.75615229  1
  Zn  Zn100  1  0.63150759  0.62061602  -0.00973578  1
  Zn  Zn101  1  -0.00571560  0.50952001  -0.00975986  1
  Zn  Zn102  1  0.13759869  0.49549334  0.62639043  1
  Zn  Zn103  1  0.76734020  -0.00038736  0.25721938  1
  Zn  Zn104  1  0.12316251  0.37224740  0.24654657  1
  Zn  Zn105  1  0.87904097  0.11884928  0.75502414  1
  Zn  Zn106  1  0.75403550  0.12021885  0.37440504  1
  Zn  Zn107  1  0.19061704  0.18597914  0.18766170  1
  Zn  Zn108  1  0.18988229  0.18602499  0.68991264  1
  Zn  Zn109  1  0.18862478  0.68919304  0.18785559  1
  Zn  Zn110  1  0.19905303  0.65993267  0.67451672  1
  Zn  Zn111  1  0.69183788  0.18290832  0.19314228  1
  Zn  Zn112  1  0.68976164  0.18751116  0.68963556  1
  Zn  Zn113  1  0.68795554  0.68283346  0.18335525  1
  Zn  Zn114  1  0.68934162  0.68312261  0.69209339  1
  Zn  Zn115  1  0.31313956  0.31033947  0.31398110  1
  Zn  Zn116  1  0.30987414  0.31091576  0.81280881  1
  Zn  Zn117  1  0.31417505  0.80953750  0.31231703  1
  Zn  Zn118  1  0.31093224  0.81260843  0.81053480  1
  Zn  Zn119  1  0.79163535  0.31803467  0.31167605  1
  Zn  Zn120  1  0.81118272  0.30687451  0.81225804  1
  Zn  Zn121  1  0.80369555  0.80663493  0.31306290  1
  Zn  Zn122  1  0.81082503  0.81394015  0.81120194  1
  Zn  Zn123  1  0.18906108  0.43968761  0.43782821  1
  Zn  Zn124  1  0.18012309  0.43650269  0.93610680  1
  Zn  Zn125  1  0.19235189  0.93862335  0.44129946  1
  Zn  Zn126  1  0.18813000  0.93228668  0.93395664  1
  Zn  Zn127  1  0.68801681  0.43428415  0.43611447  1
  Zn  Zn128  1  0.68869265  0.43408677  0.93647244  1
  Zn  Zn129  1  0.68658870  0.93377587  0.44590614  1
  Zn  Zn130  1  0.68324488  0.93267021  0.93413873  1
  Zn  Zn131  1  0.31291885  0.06266665  0.06362474  1
  Zn  Zn132  1  0.31712323  0.06014492  0.56511655  1
  Zn  Zn133  1  0.31137907  0.56304238  0.05831253  1
  Zn  Zn134  1  0.31241766  0.55618499  0.56268959  1
  Zn  Zn135  1  0.81327709  0.06396530  0.06270631  1
  Zn  Zn136  1  0.80776263  0.06223741  0.57039680  1
  Zn  Zn137  1  0.81668966  0.56049724  0.05566636  1
  Zn  Zn138  1  0.81411232  0.56107085  0.56922985  1
  Zn  Zn139  1  0.43983943  0.43657970  0.18675414  1
  Zn  Zn140  1  0.44006748  0.44156464  0.68351264  1
  Zn  Zn141  1  0.43925522  0.94014184  0.18730795  1
  Zn  Zn142  1  0.43735717  0.93998940  0.69138414  1
  Zn  Zn143  1  0.93985019  0.44536445  0.18711786  1
  Zn  Zn144  1  0.93863222  0.43617112  0.69004022  1
  Zn  Zn145  1  0.94212492  0.93718023  0.16428144  1
  Zn  Zn146  1  0.93011245  0.93960876  0.68516896  1
  Zn  Zn147  1  0.07523493  0.06503632  0.30930885  1
  Zn  Zn148  1  0.06442625  0.06119372  0.81174550  1
  Zn  Zn149  1  0.06684850  0.56232798  0.31363562  1
  Zn  Zn150  1  0.06071043  0.56670737  0.81044937  1
  Zn  Zn151  1  0.60315410  0.04417871  0.33175022  1
  Zn  Zn152  1  0.55989979  0.06196861  0.81515772  1
  Zn  Zn153  1  0.56024035  0.55762657  0.31036067  1
  Zn  Zn154  1  0.56051716  0.56253435  0.80949333  1
  Zn  Zn155  1  0.43858830  0.18951685  0.44614752  1
  Zn  Zn156  1  0.44039557  0.18651859  0.93764569  1
  Zn  Zn157  1  0.43713558  0.68254564  0.43733480  1
  Zn  Zn158  1  0.44050978  0.68872767  0.92997009  1
  Zn  Zn159  1  0.90880056  0.22114474  0.38223945  1
  Zn  Zn160  1  0.94063241  0.19173077  0.94167272  1
  Zn  Zn161  1  0.93933422  0.68861516  0.44207279  1
  Zn  Zn162  1  0.94228910  0.69164029  0.93397964  1
  Zn  Zn163  1  0.05985700  0.31125505  0.06210607  1
  Zn  Zn164  1  0.06290023  0.31055576  0.56142569  1
  Zn  Zn165  1  0.05986533  0.81495257  0.06317079  1
  Zn  Zn166  1  0.07169773  0.80745596  0.56806499  1
  Zn  Zn167  1  0.56205275  0.31088897  0.05492046  1
  Zn  Zn168  1  0.55621833  0.31026403  0.56621660  1
  Zn  Zn169  1  0.56146653  0.81151942  0.05559039  1
  Zn  Zn170  1  0.56432828  0.81052967  0.56791925  1
  O  O171  1  0.12220849  0.11621218  0.11907914  1
  O  O172  1  0.11975242  0.11981396  0.61874191  1
  O  O173  1  0.12405889  0.62194131  0.11751650  1
  O  O174  1  0.10032875  0.62467446  0.62435014  1
  O  O175  1  0.61877329  0.11670132  0.11918795  1
  O  O176  1  0.61550979  0.13084673  0.62034934  1
  O  O177  1  0.61247473  0.62098826  0.11645391  1
  O  O178  1  0.62530374  0.61559954  0.61943005  1
  O  O179  1  0.37556676  0.36820336  0.39297309  1
  O  O180  1  0.38140985  0.37995717  0.87563845  1
  O  O181  1  0.38982675  0.87523440  0.37369859  1
  O  O182  1  0.36927399  0.88460820  0.88673190  1
  O  O183  1  0.88449417  0.38594928  0.38547558  1
  O  O184  1  0.89104275  0.36568805  0.87362701  1
  O  O185  1  0.87188302  0.87293290  0.38377366  1
  O  O186  1  0.88667074  0.87014840  0.88291294  1
  O  O187  1  0.25490308  0.01358787  0.37485461  1
  O  O188  1  0.25835402  -0.00275163  0.86811647  1
  O  O189  1  0.24709012  0.50896561  0.36417544  1
  O  O190  1  0.26144873  0.49835104  0.87919844  1
  O  O191  1  0.71599582  0.00433614  0.36570328  1
  O  O192  1  0.74375556  0.01659637  0.88216030  1
  O  O193  1  0.75611221  0.51287045  0.38051231  1
  O  O194  1  0.74622249  0.50289189  0.86380995  1
  O  O195  1  0.24076573  0.49537372  0.12665973  1
  O  O196  1  0.23531862  0.54916242  0.63960983  1
  O  O197  1  0.24180324  0.99378879  0.12681114  1
  O  O198  1  0.24575952  0.99354321  0.63204900  1
  O  O199  1  0.73248851  0.50884969  0.11976362  1
  O  O200  1  0.73832832  0.49859633  0.63216470  1
  O  O201  1  0.74112271  0.99279526  0.12348960  1
  O  O202  1  0.74161084  0.98650756  0.62416209  1
  O  O203  1  0.00618227  0.38970507  0.26841849  1
  O  O204  1  0.00520705  0.36487431  0.75850515  1
  O  O205  1  0.00715788  0.87700317  0.25426596  1
  O  O206  1  -0.00429502  0.88024034  0.76265107  1
  O  O207  1  0.50567165  0.38231895  0.25571522  1
  O  O208  1  0.50801434  0.38213837  0.76106313  1
  O  O209  1  0.50449784  0.86721724  0.25586637  1
  O  O210  1  0.51038302  0.86852193  0.74680732  1
  O  O211  1  0.49625541  0.12167867  0.23624964  1
  O  O212  1  0.48957809  0.11922671  0.74472980  1
  O  O213  1  0.49455072  0.62729143  0.24011341  1
  O  O214  1  0.48922950  0.63201318  0.74946706  1
  O  O215  1  1.00722802  0.11648429  0.23394361  1
  O  O216  1  1.00235195  0.13287712  0.74367715  1
  O  O217  1  0.99363706  0.62761498  0.24562642  1
  O  O218  1  0.98663613  0.61964371  0.73882142  1
  O  O219  1  0.36887611  0.25434110  0.00258598  1
  O  O220  1  0.37256921  0.26198895  0.51120214  1
  O  O221  1  0.38237278  0.75971398  0.00324320  1
  O  O222  1  0.36489635  0.75170040  0.49560258  1
  O  O223  1  0.86117866  0.25040979  0.00117626  1
  O  O224  1  0.86566457  0.26023291  0.49156258  1
  O  O225  1  0.86869336  0.75693978  0.00093158  1
  O  O226  1  0.86240752  0.75664560  0.49379903  1
  O  O227  1  0.12916463  0.23842791  0.49436456  1
  O  O228  1  0.12849589  0.24195703  0.99310894  1
  O  O229  1  0.13789404  0.74637854  0.49309590  1
  O  O230  1  0.12328985  0.74307225  1.00057106  1
  O  O231  1  0.62932952  0.24405061  0.50325191  1
  O  O232  1  0.63365105  0.24591833  0.98936124  1
  O  O233  1  0.63062091  0.74225241  0.49534744  1
  O  O234  1  0.63255254  0.75085239  0.98857975  1
  O  O235  1  0.49229983  0.24002600  0.11467692  1
  O  O236  1  0.48673804  0.23614810  0.62488461  1
  O  O237  1  0.49642028  0.74167909  0.12677794  1
  O  O238  1  0.50431354  0.74620305  0.64116456  1
  O  O239  1  1.00495832  0.23296450  0.12623680  1
  O  O240  1  1.00279600  0.24042016  0.63389883  1
  O  O241  1  0.99202239  0.74684698  0.13041057  1
  O  O242  1  0.99643989  0.74140404  0.62487792  1
  O  O243  1  0.01392960  0.26456876  0.38164541  1
  O  O244  1  0.00950348  0.25380880  0.86793404  1
  O  O245  1  0.01793194  0.74457158  0.37581277  1
  O  O246  1  0.01209782  0.76518515  0.87562123  1
  O  O247  1  0.51215653  0.25163017  0.38456203  1
  O  O248  1  0.51081071  0.25961438  0.88082168  1
  O  O249  1  0.50458058  0.75249450  0.36932937  1
  O  O250  1  0.50987708  0.75079205  0.86187631  1
  O  O251  1  0.24765299  0.12663722  0.49477839  1
  O  O252  1  0.23781008  0.12983247  1.00626007  1
  O  O253  1  0.25256160  0.63139276  0.48968519  1
  O  O254  1  0.23729761  0.62311347  0.99618613  1
  O  O255  1  0.73965712  0.12828807  0.50144562  1
  O  O256  1  0.74450344  0.13129654  0.99354436  1
  O  O257  1  0.74724335  0.63041572  0.49609458  1
  O  O258  1  0.74970807  0.64019208  1.00456432  1
  O  O259  1  0.25358991  0.36910840  0.00419042  1
  O  O260  1  0.26346670  0.37815971  0.50314408  1
  O  O261  1  0.25882387  0.88118585  0.01223625  1
  O  O262  1  0.25583866  0.86719133  0.50761481  1
  O  O263  1  0.75160795  0.35932822  -0.00405624  1
  O  O264  1  0.75989592  0.36763713  0.49850125  1
  O  O265  1  0.75772698  0.86863251  0.00071013  1
  O  O266  1  0.75256639  0.86554341  0.50888239  1
  O  O267  1  0.13847085  0.50126921  0.24039839  1
  O  O268  1  0.11980704  0.48436753  0.75257786  1
  O  O269  1  0.13083479  0.98895909  0.24176119  1
  O  O270  1  0.13671345  1.00705015  0.74052899  1
  O  O271  1  0.62165129  0.50863101  0.22694473  1
  O  O272  1  0.63370790  0.49457152  0.74567684  1
  O  O273  1  0.61187684  0.98736056  0.23125572  1
  O  O274  1  0.62584980  0.98426484  0.75877796  1
  O  O275  1  0.37741367  0.01416593  0.25262676  1
  O  O276  1  0.37062142  0.00742000  0.76099339  1
  O  O277  1  0.36054888  0.50740734  0.23745628  1
  O  O278  1  0.38155078  0.51289759  0.75698270  1
  O  O279  1  0.88430546  -0.02087797  0.25615513  1
  O  O280  1  0.86441098  0.00821332  0.74281153  1
  O  O281  1  0.87377485  0.51371149  0.25743955  1
  O  O282  1  0.86268424  0.49864006  0.74933752  1
  O  O283  1  0.12210442  0.36728468  0.37611567  1
  O  O284  1  0.11650639  0.36564403  0.86632773  1
  O  O285  1  0.13542791  0.86833578  0.36629884  1
  O  O286  1  0.11359177  0.86593562  0.87462128  1
  O  O287  1  0.61963225  0.35733256  0.38526113  1
  O  O288  1  0.61863907  0.36859952  0.86727127  1
  O  O289  1  0.61447537  0.86396731  0.37115262  1
  O  O290  1  0.62758408  0.86315231  0.85992424  1
  O  O291  1  0.38147951  0.13018665  0.13118646  1
  O  O292  1  0.38108617  0.13033807  0.63562952  1
  O  O293  1  0.38541944  0.62828788  0.12415836  1
  O  O294  1  0.37913194  0.62343161  0.63921718  1
  O  O295  1  0.89345012  0.11955740  0.12441201  1
  O  O296  1  0.89287643  0.12592838  0.61689427  1
  O  O297  1  0.87938734  0.63039175  0.13367998  1
  O  O298  1  0.88724681  0.61992501  0.63372795  1
  O  O299  1  0.25726202  0.25552169  0.11919881  1
  O  O300  1  0.26547193  0.24415500  0.62566490  1
  O  O301  1  0.25854910  0.75955753  0.12788660  1
  O  O302  1  0.24312958  0.75716911  0.61584988  1
  O  O303  1  0.74295646  0.24399004  0.11069060  1
  O  O304  1  0.75612728  0.24217578  0.61261139  1
  O  O305  1  0.75450211  0.75587557  0.11738852  1
  O  O306  1  0.74298321  0.75435918  0.61533134  1
  O  O307  1  0.24515229  0.23982537  0.38044484  1
  O  O308  1  0.23674986  0.25236773  0.88162181  1
  O  O309  1  0.24422352  0.74397275  0.37998899  1
  O  O310  1  0.23163003  0.75830706  0.87557955  1
  O  O311  1  0.73414562  0.24333699  0.39178908  1
  O  O312  1  0.74387713  0.23853315  0.88366231  1
  O  O313  1  0.74202900  0.73764568  0.38311486  1
  O  O314  1  0.74114002  0.75405322  0.88202504  1
  O  O315  1  0.01011594  0.11807514  0.00494624  1
  O  O316  1  0.01214444  0.12065142  0.50683839  1
  O  O317  1  0.00913815  0.62863593  0.00759571  1
  O  O318  1  -0.00242920  0.61800536  0.51250233  1
  O  O319  1  0.50626836  0.11693143  0.00757742  1
  O  O320  1  0.50388165  0.11768996  0.51278063  1
  O  O321  1  0.50069318  0.61638059  0.00273609  1
  O  O322  1  0.50649322  0.61750155  0.50219832  1
  O  O323  1  0.48949775  0.38130809  0.50071450  1
  O  O324  1  0.49375604  0.38223900  0.98845430  1
  O  O325  1  0.50174513  0.87939132  0.49600958  1
  O  O326  1  0.48764552  0.88564118  1.00656286  1
  O  O327  1  0.99731918  0.38276892  0.49248156  1
  O  O328  1  1.00259857  0.37146825  0.98306917  1
  O  O329  1  0.98662706  0.86398255  0.50820941  1
  O  O330  1  0.99294296  0.88341438  0.99572737  1
  O  O331  1  0.50793488  0.49817735  0.39211507  1
  O  O332  1  0.49509661  0.49351075  0.88201487  1
  O  O333  1  0.50654786  0.98897609  0.38333661  1
  O  O334  1  0.49040869  1.00330454  0.88867554  1
  O  O335  1  0.99788152  0.50031760  0.38844345  1
  O  O336  1  1.00562572  0.48377506  0.87280431  1
  O  O337  1  1.00366019  1.00153448  0.37940877  1
  O  O338  1  1.00863113  0.98876722  0.88463055  1
  O  O339  1  0.01501361  0.00661902  0.11161206  1
  O  O340  1  0.01297467  0.00712783  0.63240767  1
  O  O341  1  0.01611214  0.51120013  0.12796923  1
  O  O342  1  0.00208000  0.49788966  0.61527671  1
  O  O343  1  0.50410994  0.00725509  0.11422736  1
  O  O344  1  0.49433582  0.01155834  0.62069340  1
  O  O345  1  0.50421514  0.50657086  0.10976950  1
  O  O346  1  0.51341008  0.50264110  0.61554493  1
  O  O347  1  0.25050289  0.38211429  0.24330551  1
  O  O348  1  0.23332292  0.37220342  0.75393385  1
  O  O349  1  0.24692653  0.87703163  0.24074773  1
  O  O350  1  0.25530511  0.88813505  0.74300810  1
  O  O351  1  0.72865263  0.38907625  0.25932086  1
  O  O352  1  0.74362314  0.38585106  0.75659544  1
  O  O353  1  0.74222612  0.87610693  0.24187291  1
  O  O354  1  0.74004511  0.87553034  0.74377274  1
  O  O355  1  0.26019147  0.12303334  0.25857149  1
  O  O356  1  0.26154812  0.11259316  0.74664325  1
  O  O357  1  0.25515792  0.61911568  0.25396216  1
  O  O358  1  0.26876889  0.63772115  0.76476928  1
  O  O359  1  0.73905078  0.10956106  0.25954362  1
  O  O360  1  0.74800780  0.12464417  0.76790398  1
  O  O361  1  0.75727171  0.62266998  0.25834136  1
  O  O362  1  0.76434430  0.61114429  0.74508675  1
  O  O363  1  0.37260433  0.12835075  0.36951789  1
  O  O364  1  0.37743556  0.11617301  0.87014196  1
  O  O365  1  0.36339223  0.62888902  0.36486518  1
  O  O366  1  0.37522020  0.61452617  0.87040818  1
  O  O367  1  0.87621469  0.11117415  0.39628711  1
  O  O368  1  0.86336444  0.12731304  0.88002763  1
  O  O369  1  0.86940583  0.62298827  0.37022481  1
  O  O370  1  0.88495077  0.62674371  0.85930176  1
  O  O371  1  0.12907024  0.38343270  0.12464490  1
  O  O372  1  0.12120864  0.37489381  0.64042491  1
  O  O373  1  0.13231735  0.88046471  0.13099475  1
  O  O374  1  0.13681378  0.88708904  0.61924721  1
  O  O375  1  0.61787767  0.38949390  0.11934354  1
  O  O376  1  0.61821945  0.37864522  0.64001152  1
  O  O377  1  0.62889289  0.87931183  0.12525891  1
  O  O378  1  0.63206049  0.86896490  0.64197997  1
  O  O379  1  0.13215453  0.25109843  0.26400915  1
  O  O380  1  0.11921567  0.25366310  0.75639669  1
  O  O381  1  0.12506966  0.76148547  0.25587052  1
  O  O382  1  0.13005151  0.74388217  0.75506742  1
  O  O383  1  0.62591141  0.24663767  0.26871392  1
  O  O384  1  0.63316623  0.25890862  0.76232295  1
  O  O385  1  0.61985627  0.75159079  0.25348744  1
  O  O386  1  0.62023233  0.75417060  0.75541514  1
  O  O387  1  0.37289471  0.23836823  0.24315445  1
  O  O388  1  0.37181434  0.23925253  0.74857371  1
  O  O389  1  0.38186264  0.74307693  0.24017117  1
  O  O390  1  0.38400073  0.73908601  0.75882445  1
  O  O391  1  0.86843296  0.24519642  0.27839470  1
  O  O392  1  0.88505040  0.24181261  0.74737884  1
  O  O393  1  0.87542890  0.74030625  0.24786643  1
  O  O394  1  0.86695269  0.73557666  0.74947752  1
  O  O395  1  0.38367350  0.48748317  0.50710969  1
  O  O396  1  0.38175980  0.49375417  0.99170620  1
  O  O397  1  0.38951948  0.99801304  0.49575742  1
  O  O398  1  0.37931090  0.99688698  0.99436089  1
  O  O399  1  0.88136922  0.49399134  0.49824322  1
  O  O400  1  0.88349794  0.49371751  1.00237256  1
  O  O401  1  0.87807479  0.98899776  0.50465026  1
  O  O402  1  0.88616901  0.99050561  1.00540477  1
  O  O403  1  0.12267864  0.00507722  0.00421860  1
  O  O404  1  0.13232003  0.01262090  0.50911301  1
  O  O405  1  0.11956535  0.50961367  0.00512045  1
  O  O406  1  0.11812167  0.50263227  0.50398799  1
  O  O407  1  0.61677756  0.00015725  0.00751945  1
  O  O408  1  0.61195057  0.00809914  0.50359100  1
  O  O409  1  0.61788097  0.50083566  0.00406570  1
  O  O410  1  0.62258624  0.50186320  0.50815653  1
  O  O411  1  0.37084283  0.37026300  0.11595321  1
  O  O412  1  0.38127153  0.36683208  0.61867033  1
  O  O413  1  0.36876453  0.87186718  0.11800957  1
  O  O414  1  0.36312519  0.87900746  0.62496510  1
  O  O415  1  0.88932232  0.36738428  0.12828345  1
  O  O416  1  0.88563644  0.36848376  0.61097518  1
  O  O417  1  0.86982857  0.86668620  0.11102373  1
  O  O418  1  0.86215278  0.87327083  0.61745691  1
  O  O419  1  0.13462700  0.13072578  0.38214161  1
  O  O420  1  0.12015322  0.13338630  0.88446580  1
  O  O421  1  0.13859788  0.63339341  0.37467208  1
  O  O422  1  0.12177758  0.64118876  0.87952088  1
  O  O423  1  0.61678703  0.13778156  0.39680289  1
  O  O424  1  0.62801916  0.13237137  0.88057914  1
  O  O425  1  0.63219832  0.62552046  0.38004721  1
  O  O426  1  0.62199418  0.63735697  0.87337714  1
