# generated using pymatgen
data_V85Zn86O256
_symmetry_space_group_name_H-M   'P 1'
_cell_length_a   16.94295051
_cell_length_b   16.95011005
_cell_length_c   16.93507142
_cell_angle_alpha   89.98204129
_cell_angle_beta   90.07734606
_cell_angle_gamma   90.01709985
_symmetry_Int_Tables_number   1
_chemical_formula_structural   V85Zn86O256
_chemical_formula_sum   'V85 Zn86 O256'
_cell_volume   4863.49149577
_cell_formula_units_Z   1
loop_
 _symmetry_equiv_pos_site_id
 _symmetry_equiv_pos_as_xyz
  1  'x, y, z'
loop_
 _atom_site_type_symbol
 _atom_site_label
 _atom_site_symmetry_multiplicity
 _atom_site_fract_x
 _atom_site_fract_y
 _atom_site_fract_z
 _atom_site_occupancy
  V  V0  1  0.50171952  0.25152199  0.24814387  1
  V  V1  1  0.75203736  0.37089688  0.12873661  1
  V  V2  1  0.12056087  0.62073145  -0.00314115  1
  V  V3  1  0.37623967  0.25668484  0.62362260  1
  V  V4  1  -0.00421484  -0.00050037  0.49920484  1
  V  V5  1  0.50165289  0.12763724  0.62682481  1
  V  V6  1  -0.00220228  0.62360111  0.12085376  1
  V  V7  1  0.24780900  0.00186241  0.24262878  1
  V  V8  1  0.25507546  -0.00032216  0.74907641  1
  V  V9  1  0.12584206  0.25115789  0.87375812  1
  V  V10  1  0.12447135  -0.00080913  0.62363128  1
  V  V11  1  0.87967471  0.60556346  0.76433793  1
  V  V12  1  0.88047826  0.74795503  0.64186852  1
  V  V13  1  0.25103040  0.62814560  0.37285486  1
  V  V14  1  0.49589612  0.37587922  0.38076309  1
  V  V15  1  0.50594774  0.87683925  0.37075611  1
  V  V16  1  0.74842158  0.12559435  0.87651650  1
  V  V17  1  0.49904515  0.49978469  0.50277366  1
  V  V18  1  0.25215600  0.25209738  -0.00120559  1
  V  V19  1  0.62527470  0.25069751  0.37509916  1
  V  V20  1  0.24974492  0.86941805  0.61609807  1
  V  V21  1  0.87413769  0.50256896  0.37575676  1
  V  V22  1  0.12451887  0.38076761  0.74240719  1
  V  V23  1  0.62358391  0.12016972  0.50159482  1
  V  V24  1  0.73836095  0.87574829  0.63117942  1
  V  V25  1  0.25439966  0.25357605  0.49780821  1
  V  V26  1  0.12305168  0.11924256  0.00577494  1
  V  V27  1  0.12528678  0.38122000  0.24975026  1
  V  V28  1  0.00204405  0.50154471  0.50743866  1
  V  V29  1  0.75377625  0.24538939  0.00450175  1
  V  V30  1  0.50198500  0.61941118  0.11609811  1
  V  V31  1  0.63394370  -0.01523445  0.13875285  1
  V  V32  1  0.25034380  0.75096914  -0.00099308  1
  V  V33  1  0.81675292  -0.04944464  0.31992772  1
  V  V34  1  0.49416875  -0.00193428  0.50320849  1
  V  V35  1  0.37462982  0.74409806  0.63740334  1
  V  V36  1  0.37507948  0.86351881  0.49555382  1
  V  V37  1  0.74659724  0.74527935  0.50403988  1
  V  V38  1  0.24835136  0.87772275  0.12219151  1
  V  V39  1  0.12793824  0.62466658  0.50432758  1
  V  V40  1  -0.00096889  0.12538195  0.62526557  1
  V  V41  1  0.24918034  0.12545880  0.37258241  1
  V  V42  1  -0.00253833  0.87342221  0.87104452  1
  V  V43  1  0.25255731  0.38100216  0.12896145  1
  V  V44  1  0.25328736  0.62719447  0.86832391  1
  V  V45  1  0.36843258  0.49656793  0.37499787  1
  V  V46  1  0.87373061  -0.00078147  0.87707981  1
  V  V47  1  0.74950421  0.25371214  0.50505471  1
  V  V48  1  0.50741502  0.12376522  0.12383970  1
  V  V49  1  0.25503302  0.12120787  0.87379259  1
  V  V50  1  0.88456952  0.38591000  0.00083394  1
  V  V51  1  0.11909902  0.74933811  0.86843151  1
  V  V52  1  0.74108923  0.38989729  0.64101492  1
  V  V53  1  0.12782770  0.50228581  0.12373118  1
  V  V54  1  0.38104390  0.38290264  -0.00262884  1
  V  V55  1  0.87271981  0.87533692  0.50496171  1
  V  V56  1  0.00104032  0.87692366  0.37364903  1
  V  V57  1  0.74548167  0.50238631  0.24360064  1
  V  V58  1  0.87596383  0.62204927  0.24299457  1
  V  V59  1  0.12371342  0.87861470  0.24419278  1
  V  V60  1  0.50196138  0.62678023  0.63376286  1
  V  V61  1  0.12068947  0.25118665  0.36842599  1
  V  V62  1  0.37521926  0.12513705  0.24860171  1
  V  V63  1  0.12440425  0.12616332  0.49900889  1
  V  V64  1  0.25079734  0.50487038  0.74228341  1
  V  V65  1  0.62409977  0.75581782  0.85792781  1
  V  V66  1  0.00113226  0.38810464  0.87854555  1
  V  V67  1  0.50807122  0.75220362  0.24779152  1
  V  V68  1  -0.00239921  0.37549545  0.36985266  1
  V  V69  1  0.87498169  0.12491032  0.74944659  1
  V  V70  1  0.49709353  -0.00501407  -0.00627879  1
  V  V71  1  0.38029416  0.25340607  0.12297650  1
  V  V72  1  0.37330041  0.50146097  0.87479565  1
  V  V73  1  0.13013886  0.75108671  0.37779266  1
  V  V74  1  0.00105394  0.25039119  0.74836570  1
  V  V75  1  0.73902384  0.74768818  0.00620599  1
  V  V76  1  0.87717414  0.13442436  0.26282723  1
  V  V77  1  0.88894616  0.24653838  0.12970659  1
  V  V78  1  0.86700554  0.87472773  0.00787074  1
  V  V79  1  0.12142097  0.87271920  0.74648476  1
  V  V80  1  0.50226788  0.26618573  0.75758024  1
  V  V81  1  0.73620793  -0.00167511  0.74747213  1
  V  V82  1  0.37335543  0.62418297  0.24866698  1
  V  V83  1  0.62501660  0.62095380  0.50191058  1
  V  V84  1  0.24852497  0.38132046  0.61745030  1
  Zn  Zn85  1  0.00446425  -0.00472427  0.00447149  1
  Zn  Zn86  1  0.62690193  0.75129470  0.37370455  1
  Zn  Zn87  1  0.62298705  0.37641197  0.24881752  1
  Zn  Zn88  1  0.37130874  0.88253099  -0.00973661  1
  Zn  Zn89  1  0.62967592  0.25927197  0.86743999  1
  Zn  Zn90  1  0.00391176  0.62705556  0.62943285  1
  Zn  Zn91  1  0.37274610  -0.00204705  0.37396180  1
  Zn  Zn92  1  0.75009623  0.12044546  0.37614960  1
  Zn  Zn93  1  0.87214472  0.25287665  0.62531382  1
  Zn  Zn94  1  0.00749817  0.11992335  0.13752003  1
  Zn  Zn95  1  0.72661695  0.56221102  0.84386789  1
  Zn  Zn96  1  0.74655450  0.62167101  0.37488839  1
  Zn  Zn97  1  0.37595187  0.75164796  0.12320312  1
  Zn  Zn98  1  0.37758516  0.12705890  0.75362784  1
  Zn  Zn99  1  0.49408356  0.87187983  0.85579773  1
  Zn  Zn100  1  0.87071969  0.75148253  0.12272780  1
  Zn  Zn101  1  0.62176291  0.61861589  -0.01114800  1
  Zn  Zn102  1  0.55283423  0.44336897  -0.08245456  1
  Zn  Zn103  1  0.61945790  0.49300025  0.11294369  1
  Zn  Zn104  1  0.63057358  0.11593689  0.00240363  1
  Zn  Zn105  1  0.87175276  0.37695350  0.50285759  1
  Zn  Zn106  1  0.00070756  0.74958427  0.24702328  1
  Zn  Zn107  1  0.18896787  0.19468293  0.18660525  1
  Zn  Zn108  1  0.18800461  0.18915757  0.68638450  1
  Zn  Zn109  1  0.18784496  0.69020033  0.18918138  1
  Zn  Zn110  1  0.18966521  0.69136069  0.68470861  1
  Zn  Zn111  1  0.69354900  0.18164012  0.19147225  1
  Zn  Zn112  1  0.68315312  0.19083849  0.68887010  1
  Zn  Zn113  1  0.68608675  0.68958921  0.18052749  1
  Zn  Zn114  1  0.69711572  0.67562924  0.68636025  1
  Zn  Zn115  1  0.31240229  0.31430792  0.31013595  1
  Zn  Zn116  1  0.31380939  0.31563069  0.80911010  1
  Zn  Zn117  1  0.31510803  0.81028666  0.30984699  1
  Zn  Zn118  1  0.31261036  0.81721910  0.81208526  1
  Zn  Zn119  1  0.81173942  0.31176829  0.31457907  1
  Zn  Zn120  1  0.81722506  0.31566889  0.81531845  1
  Zn  Zn121  1  0.81229549  0.79090538  0.31266887  1
  Zn  Zn122  1  0.80384840  0.81250815  0.81824470  1
  Zn  Zn123  1  0.18690790  0.44152744  0.43694635  1
  Zn  Zn124  1  0.18918450  0.43937616  0.93700200  1
  Zn  Zn125  1  0.18809541  0.93988951  0.43510083  1
  Zn  Zn126  1  0.18850075  0.93757356  0.93296661  1
  Zn  Zn127  1  0.68543263  0.43681934  0.43994206  1
  Zn  Zn128  1  0.69802057  0.43295929  0.93489819  1
  Zn  Zn129  1  0.67919473  0.93296134  0.45089510  1
  Zn  Zn130  1  0.68126671  0.93431519  0.94059520  1
  Zn  Zn131  1  0.31451811  0.06449178  0.06259363  1
  Zn  Zn132  1  0.31453424  0.06388380  0.56296127  1
  Zn  Zn133  1  0.31013096  0.56577902  0.06227793  1
  Zn  Zn134  1  0.31445832  0.56500523  0.55652323  1
  Zn  Zn135  1  0.81623334  0.06005013  0.07002024  1
  Zn  Zn136  1  0.80920983  0.06139231  0.56315677  1
  Zn  Zn137  1  0.80284352  0.54864079  0.03285221  1
  Zn  Zn138  1  0.81477974  0.56165009  0.56863489  1
  Zn  Zn139  1  0.43662494  0.44045790  0.19245143  1
  Zn  Zn140  1  0.43289281  0.44170712  0.68524164  1
  Zn  Zn141  1  0.43726054  0.93816390  0.18339129  1
  Zn  Zn142  1  0.43341439  0.94070666  0.68384213  1
  Zn  Zn143  1  0.93948294  0.44082121  0.18257736  1
  Zn  Zn144  1  0.93192793  0.43317272  0.68572709  1
  Zn  Zn145  1  0.94468094  0.94359999  0.18183398  1
  Zn  Zn146  1  0.93244386  0.93753050  0.68952682  1
  Zn  Zn147  1  0.05944047  0.05969424  0.31181036  1
  Zn  Zn148  1  0.06459983  0.06047595  0.81503277  1
  Zn  Zn149  1  0.06252994  0.56127371  0.31134709  1
  Zn  Zn150  1  0.06125883  0.56410467  0.80636351  1
  Zn  Zn151  1  0.56307148  0.06157282  0.31307241  1
  Zn  Zn152  1  0.56139157  0.06818582  0.81367970  1
  Zn  Zn153  1  0.56069418  0.56485767  0.31253264  1
  Zn  Zn154  1  0.56472248  0.56813497  0.81038099  1
  Zn  Zn155  1  0.43580664  0.18811514  0.43684660  1
  Zn  Zn156  1  0.43914226  0.18649631  0.93932598  1
  Zn  Zn157  1  0.44077934  0.68859775  0.43744119  1
  Zn  Zn158  1  0.43703536  0.69399326  0.93059629  1
  Zn  Zn159  1  0.93760710  0.19143468  0.43908870  1
  Zn  Zn160  1  0.93871189  0.19166108  0.93720497  1
  Zn  Zn161  1  0.93787846  0.68880055  0.43798157  1
  Zn  Zn162  1  0.93628476  0.69121348  0.93895835  1
  Zn  Zn163  1  0.06539560  0.30986214  0.06213857  1
  Zn  Zn164  1  0.06243262  0.31348042  0.55873561  1
  Zn  Zn165  1  0.06110907  0.81079070  0.05916159  1
  Zn  Zn166  1  0.06085129  0.80862415  0.55965689  1
  Zn  Zn167  1  0.57429555  0.31678911  0.04570686  1
  Zn  Zn168  1  0.56585460  0.31550041  0.56427306  1
  Zn  Zn169  1  0.56148959  0.81461259  0.06489055  1
  Zn  Zn170  1  0.56199366  0.81064802  0.68349719  1
  O  O171  1  0.12731848  0.13526250  0.10904583  1
  O  O172  1  0.11915579  0.12079720  0.61891729  1
  O  O173  1  0.12340485  0.61983499  0.11842241  1
  O  O174  1  0.12422414  0.63394330  0.60828935  1
  O  O175  1  0.61363308  0.12149190  0.13100128  1
  O  O176  1  0.60974939  0.13390359  0.61615326  1
  O  O177  1  0.60913226  0.62297895  0.12315800  1
  O  O178  1  0.61203845  0.63012288  0.61569033  1
  O  O179  1  0.38186207  0.38437913  0.36950626  1
  O  O180  1  0.36311798  0.38651810  0.88530510  1
  O  O181  1  0.37927067  0.87562187  0.38161480  1
  O  O182  1  0.38067483  0.87218750  0.87773230  1
  O  O183  1  0.88273743  0.38258283  0.37598812  1
  O  O184  1  0.88955135  0.36874587  0.88791817  1
  O  O185  1  0.87804411  0.87943584  0.37801777  1
  O  O186  1  0.88074730  0.88209682  0.87903404  1
  O  O187  1  0.24969730  0.00689492  0.36178917  1
  O  O188  1  0.24400898  0.00881029  0.86207925  1
  O  O189  1  0.26219450  0.50568009  0.37678319  1
  O  O190  1  0.25100147  0.50945629  0.86497096  1
  O  O191  1  0.75191879  -0.00111428  0.38356142  1
  O  O192  1  0.75480926  0.00646012  0.87034165  1
  O  O193  1  0.76042709  0.49892479  0.36705947  1
  O  O194  1  0.78255020  0.50521881  0.92562506  1
  O  O195  1  0.23909838  0.49465216  0.12443603  1
  O  O196  1  0.25603307  0.49286143  0.62754509  1
  O  O197  1  0.25010806  0.99551047  0.13443383  1
  O  O198  1  0.24232112  0.99451622  0.62766625  1
  O  O199  1  0.75041411  0.48972003  0.12983664  1
  O  O200  1  0.75083041  0.48957781  0.62824370  1
  O  O201  1  0.73251302  1.00390668  0.12193721  1
  O  O202  1  0.75560715  0.98881993  0.63527649  1
  O  O203  1  0.00731425  0.38147355  0.26209402  1
  O  O204  1  0.00765602  0.37052876  0.75458781  1
  O  O205  1  0.00703357  0.87486846  0.25561896  1
  O  O206  1  0.00446234  0.88181896  0.76251923  1
  O  O207  1  0.50154170  0.36903843  0.25985204  1
  O  O208  1  0.49420871  0.36502290  0.74765308  1
  O  O209  1  0.48788637  0.86546724  0.25903643  1
  O  O210  1  0.50446477  0.88366762  0.74292615  1
  O  O211  1  0.49392129  0.13230681  0.24504321  1
  O  O212  1  0.49622695  0.13154412  0.74071380  1
  O  O213  1  0.49291587  0.63313072  0.24363102  1
  O  O214  1  0.50136996  0.61952314  0.73265330  1
  O  O215  1  0.98516874  0.12203178  0.25402599  1
  O  O216  1  0.99684228  0.12871971  0.74577006  1
  O  O217  1  0.99289761  0.62460819  0.24218284  1
  O  O218  1  0.98838347  0.62260018  0.74348160  1
  O  O219  1  0.37049565  0.25938981  0.00413495  1
  O  O220  1  0.36091915  0.24897019  0.50343571  1
  O  O221  1  0.35850891  0.74931893  -0.00041500  1
  O  O222  1  0.37880794  0.76115436  0.50552614  1
  O  O223  1  0.87132457  0.25050695  0.01210261  1
  O  O224  1  0.86333222  0.25241535  0.50122124  1
  O  O225  1  0.86375795  0.75872011  -0.00135181  1
  O  O226  1  0.86663755  0.75853851  0.50310565  1
  O  O227  1  0.13482899  0.24582185  0.49157001  1
  O  O228  1  0.13339670  0.24414520  0.99073747  1
  O  O229  1  0.11943532  0.74228953  0.48491214  1
  O  O230  1  0.13363488  0.74449522  0.99081908  1
  O  O231  1  0.62703133  0.24187145  0.49117132  1
  O  O232  1  0.65049940  0.23097263  1.02004972  1
  O  O233  1  0.64112311  0.74004982  0.49996365  1
  O  O234  1  0.63250525  0.75027949  1.00056993  1
  O  O235  1  0.49841900  0.24511661  0.12657653  1
  O  O236  1  0.49225880  0.24908193  0.62965393  1
  O  O237  1  0.49579527  0.74241609  0.13191169  1
  O  O238  1  0.48803393  0.73764261  0.62563219  1
  O  O239  1  0.99245049  0.24457985  0.12464129  1
  O  O240  1  0.99945251  0.24453472  0.62989239  1
  O  O241  1  1.00036176  0.73633713  0.12577135  1
  O  O242  1  0.98312717  0.75011274  0.62022540  1
  O  O243  1  0.01298060  0.26039900  0.38218586  1
  O  O244  1  0.01374007  0.25272758  0.86747701  1
  O  O245  1  0.00456949  0.76210859  0.37179034  1
  O  O246  1  0.01188681  0.75765970  0.87760477  1
  O  O247  1  0.50465630  0.25755650  0.37185684  1
  O  O248  1  0.49655632  0.24734694  0.85975046  1
  O  O249  1  0.50054944  0.75861110  0.36719917  1
  O  O250  1  0.51712294  0.75089131  0.87446502  1
  O  O251  1  0.24362564  0.13220425  0.49375717  1
  O  O252  1  0.24299634  0.13069667  0.99398423  1
  O  O253  1  0.24101649  0.62013221  0.48463024  1
  O  O254  1  0.23847354  0.63280702  0.99246560  1
  O  O255  1  0.73980103  0.13039631  0.49939034  1
  O  O256  1  0.75906022  0.12714945  0.99069994  1
  O  O257  1  0.74343282  0.62700515  0.50318500  1
  O  O258  1  0.74522424  0.64461143  1.00668938  1
  O  O259  1  0.25205823  0.37001211  0.01188168  1
  O  O260  1  0.24187173  0.36887917  0.50924011  1
  O  O261  1  0.24696460  0.87013846  0.00575816  1
  O  O262  1  0.25687597  0.88206599  0.50936486  1
  O  O263  1  0.76631837  0.36286846  0.01608924  1
  O  O264  1  0.75017544  0.36718901  0.50472258  1
  O  O265  1  0.75905058  0.86707416  -0.00497514  1
  O  O266  1  0.75650566  0.86682942  0.50794019  1
  O  O267  1  0.12678061  0.48851550  0.24546436  1
  O  O268  1  0.13445192  0.48814725  0.75104202  1
  O  O269  1  0.13193463  0.98656325  0.25491009  1
  O  O270  1  0.13187545  0.99331869  0.74247013  1
  O  O271  1  0.63803188  0.50040329  0.24983131  1
  O  O272  1  0.63656217  0.48429884  0.83131239  1
  O  O273  1  0.62136695  1.00127294  0.23865135  1
  O  O274  1  0.63791684  1.01019340  0.75078959  1
  O  O275  1  0.36563330  0.00739290  0.24967763  1
  O  O276  1  0.35805339  0.00861327  0.73854739  1
  O  O277  1  0.37972790  0.51489287  0.26084265  1
  O  O278  1  0.35737883  0.49426775  0.75684411  1
  O  O279  1  0.87585186  0.00649156  0.25657743  1
  O  O280  1  0.87005675  0.00709410  0.76221977  1
  O  O281  1  0.86696215  0.50655269  0.25314012  1
  O  O282  1  0.88158232  0.50581745  0.75702401  1
  O  O283  1  0.12121023  0.37148559  0.36734537  1
  O  O284  1  0.12397979  0.36725793  0.86738736  1
  O  O285  1  0.11956702  0.86872856  0.37043759  1
  O  O286  1  0.11800752  0.86859387  0.86882266  1
  O  O287  1  0.61652294  0.36705433  0.37273330  1
  O  O288  1  0.61743439  0.35038410  0.93370597  1
  O  O289  1  0.60946694  0.87257132  0.38195585  1
  O  O290  1  0.61888527  0.86089556  0.87645132  1
  O  O291  1  0.38573130  0.13207929  0.12942240  1
  O  O292  1  0.38246286  0.14013552  0.62272454  1
  O  O293  1  0.38091213  0.62592989  0.13246168  1
  O  O294  1  0.38224031  0.63853030  0.61631402  1
  O  O295  1  0.87771037  0.13217290  0.13842189  1
  O  O296  1  0.88195684  0.12552549  0.63166184  1
  O  O297  1  0.88447945  0.62193834  0.12786097  1
  O  O298  1  0.87652471  0.63749478  0.63328265  1
  O  O299  1  0.25986806  0.25923694  0.11943594  1
  O  O300  1  0.25543183  0.25613357  0.61669547  1
  O  O301  1  0.24915572  0.75749221  0.11552396  1
  O  O302  1  0.26148532  0.75730107  0.62133418  1
  O  O303  1  0.76405034  0.25381007  0.12670277  1
  O  O304  1  0.74854694  0.24868016  0.61338820  1
  O  O305  1  0.75080741  0.75626980  0.11281771  1
  O  O306  1  0.76241968  0.75419575  0.62144423  1
  O  O307  1  0.24203687  0.24846373  0.38014920  1
  O  O308  1  0.24091732  0.24634431  0.87585613  1
  O  O309  1  0.24122435  0.74324824  0.37177738  1
  O  O310  1  0.23885593  0.74525156  0.87785918  1
  O  O311  1  0.74039809  0.25073960  0.38604045  1
  O  O312  1  0.75316919  0.24332795  0.88619749  1
  O  O313  1  0.74715052  0.74098127  0.38674946  1
  O  O314  1  0.73473310  0.75596195  0.88763474  1
  O  O315  1  0.01850597  0.12841487  -0.00601792  1
  O  O316  1  0.00481684  0.12037090  0.50429858  1
  O  O317  1  0.01267075  0.63025346  0.00509082  1
  O  O318  1  0.00701126  0.61805105  0.49974881  1
  O  O319  1  0.50383643  0.11869566  0.00834568  1
  O  O320  1  0.50350778  0.12160382  0.50420150  1
  O  O321  1  0.49443771  0.63234123  0.01469667  1
  O  O322  1  0.50685399  0.61951916  0.50551643  1
  O  O323  1  0.50315710  0.38203809  0.48921481  1
  O  O324  1  0.48229147  0.38163877  1.00753725  1
  O  O325  1  0.48813983  0.88680311  0.49085552  1
  O  O326  1  0.49539600  0.88896652  1.00433808  1
  O  O327  1  1.00086897  0.38401922  0.48766679  1
  O  O328  1  0.99684228  0.36357130  0.98896600  1
  O  O329  1  0.99110387  0.87654384  0.49250669  1
  O  O330  1  0.99410702  0.87424340  0.98659554  1
  O  O331  1  0.49244851  0.49293288  0.37844542  1
  O  O332  1  0.47582651  0.51482882  0.87097410  1
  O  O333  1  0.49536680  0.99572388  0.38289381  1
  O  O334  1  0.50684615  1.00338539  0.89144520  1
  O  O335  1  0.98962937  0.49532411  0.37854224  1
  O  O336  1  1.01342225  0.48628504  0.87671440  1
  O  O337  1  1.00609062  0.98522677  0.38381213  1
  O  O338  1  0.99153441  0.99393895  0.87965102  1
  O  O339  1  0.00391806  0.00887394  0.11599495  1
  O  O340  1  0.00483335  0.00322913  0.61956176  1
  O  O341  1  0.01699171  0.51221835  0.13223399  1
  O  O342  1  -0.00478380  0.49889753  0.61001737  1
  O  O343  1  0.50643615  0.00815406  0.11957872  1
  O  O344  1  0.48966659  0.01392249  0.61049492  1
  O  O345  1  0.50001242  0.51566645  0.13243775  1
  O  O346  1  0.48922955  0.51365026  0.61533465  1
  O  O347  1  0.24338414  0.37230481  0.23641493  1
  O  O348  1  0.24237567  0.37991887  0.73707925  1
  O  O349  1  0.24459496  0.88191549  0.24318214  1
  O  O350  1  0.24388105  0.88233622  0.73676067  1
  O  O351  1  0.75151856  0.38154651  0.24199830  1
  O  O352  1  0.75259358  0.36921901  0.73992011  1
  O  O353  1  0.76570445  0.88597743  0.26519897  1
  O  O354  1  0.75471223  0.88629263  0.74318010  1
  O  O355  1  0.25159393  0.11918876  0.25109568  1
  O  O356  1  0.24761708  0.11867553  0.75658923  1
  O  O357  1  0.25717972  0.62928835  0.26110301  1
  O  O358  1  0.24021858  0.61618403  0.75578076  1
  O  O359  1  0.76895962  0.12495845  0.25775597  1
  O  O360  1  0.75650126  0.12246098  0.75624499  1
  O  O361  1  0.75703702  0.61837751  0.24687871  1
  O  O362  1  0.76987698  0.61984566  0.75293036  1
  O  O363  1  0.36541568  0.12626747  0.36690079  1
  O  O364  1  0.35879166  0.13213898  0.87486244  1
  O  O365  1  0.36831715  0.62172983  0.37045368  1
  O  O366  1  0.35777273  0.62341090  0.87875937  1
  O  O367  1  0.87386312  0.12783993  0.36792767  1
  O  O368  1  0.86895611  0.11883296  0.87106726  1
  O  O369  1  0.87472262  0.61743535  0.36467075  1
  O  O370  1  0.88474959  0.62651521  0.86253073  1
  O  O371  1  0.12932809  0.38109018  0.13042554  1
  O  O372  1  0.13299347  0.36981644  0.63266982  1
  O  O373  1  0.13494206  0.86903090  0.13247080  1
  O  O374  1  0.13097652  0.87629834  0.62477939  1
  O  O375  1  0.63739826  0.37371408  0.12896524  1
  O  O376  1  0.64192134  0.37301458  0.62339230  1
  O  O377  1  0.62191602  0.88545328  0.13042756  1
  O  O378  1  0.64019956  0.86761986  0.61826117  1
  O  O379  1  0.12902878  0.26329932  0.25881685  1
  O  O380  1  0.12305133  0.25938840  0.75549795  1
  O  O381  1  0.12388856  0.76200114  0.25904607  1
  O  O382  1  0.12894238  0.75928448  0.75681687  1
  O  O383  1  0.62161180  0.24808999  0.26222646  1
  O  O384  1  0.60826974  0.25145042  0.75213024  1
  O  O385  1  0.61231437  0.74439600  0.25281727  1
  O  O386  1  0.63389312  0.74873966  0.75344027  1
  O  O387  1  0.38101899  0.24608617  0.24262527  1
  O  O388  1  0.38217796  0.24943698  0.74079089  1
  O  O389  1  0.38260098  0.73813099  0.24836491  1
  O  O390  1  0.36759897  0.74765823  0.73580122  1
  O  O391  1  0.87729413  0.24152007  0.24805214  1
  O  O392  1  0.88375566  0.24086281  0.75059035  1
  O  O393  1  0.87899041  0.73478782  0.24300956  1
  O  O394  1  0.87323684  0.75323258  0.74205670  1
  O  O395  1  0.38815649  0.50562663  0.48755446  1
  O  O396  1  0.36008857  0.49354983  0.98903644  1
  O  O397  1  0.37862783  0.99321159  0.49678194  1
  O  O398  1  0.39163540  1.00250636  1.00613058  1
  O  O399  1  0.88176266  0.50171196  0.49015049  1
  O  O400  1  0.89746109  0.48011461  1.02971967  1
  O  O401  1  0.87932390  0.98431104  0.50734844  1
  O  O402  1  0.87336579  0.99307990  0.98950016  1
  O  O403  1  0.12823614  0.01710025  -0.00711364  1
  O  O404  1  0.11881312  0.00638047  0.50442107  1
  O  O405  1  0.13049348  0.51012684  0.00872199  1
  O  O406  1  0.11379753  0.51262947  0.48931352  1
  O  O407  1  0.61394355  0.00028641  0.01126310  1
  O  O408  1  0.61310929  0.01347335  0.49902188  1
  O  O409  1  0.61924711  0.50346217  -0.00101153  1
  O  O410  1  0.61046797  0.50698041  0.49465849  1
  O  O411  1  0.36773574  0.37606955  0.12164978  1
  O  O412  1  0.36444226  0.36451558  0.62492038  1
  O  O413  1  0.35945920  0.87297734  0.12140063  1
  O  O414  1  0.36780062  0.86412199  0.61732729  1
  O  O415  1  0.87382446  0.36260791  0.12743591  1
  O  O416  1  0.86119946  0.37101633  0.62142872  1
  O  O417  1  0.88376942  0.87385465  0.11053538  1
  O  O418  1  0.87025342  0.86456045  0.62037751  1
  O  O419  1  0.12864030  0.13407949  0.37637075  1
  O  O420  1  0.13440812  0.13315665  0.88034697  1
  O  O421  1  0.13103757  0.63271726  0.37570715  1
  O  O422  1  0.12884118  0.63132113  0.87897019  1
  O  O423  1  0.62485811  0.13316777  0.38318395  1
  O  O424  1  0.63937005  0.13157508  0.87820406  1
  O  O425  1  0.62478385  0.62646504  0.38823597  1
  O  O426  1  0.62994228  0.64292714  0.87411720  1
