# generated using pymatgen
data_V85Zn86O256
_symmetry_space_group_name_H-M   'P 1'
_cell_length_a   16.92876215
_cell_length_b   16.94231293
_cell_length_c   16.93502505
_cell_angle_alpha   89.94948302
_cell_angle_beta   90.01768562
_cell_angle_gamma   90.02199211
_symmetry_Int_Tables_number   1
_chemical_formula_structural   V85Zn86O256
_chemical_formula_sum   'V85 Zn86 O256'
_cell_volume   4857.17246316
_cell_formula_units_Z   1
loop_
 _symmetry_equiv_pos_site_id
 _symmetry_equiv_pos_as_xyz
  1  'x, y, z'
loop_
 _atom_site_type_symbol
 _atom_site_label
 _atom_site_symmetry_multiplicity
 _atom_site_fract_x
 _atom_site_fract_y
 _atom_site_fract_z
 _atom_site_occupancy
  V  V0  1  0.00018153  0.24974999  0.24872312  1
  V  V1  1  0.87620889  0.24614450  0.12210513  1
  V  V2  1  0.87632061  0.00175319  0.37756697  1
  V  V3  1  0.74692130  0.24910452  -0.01311698  1
  V  V4  1  0.25122515  0.24939695  0.50245830  1
  V  V5  1  0.37580628  -0.00182741  0.37500430  1
  V  V6  1  0.87807278  0.50062743  0.87233761  1
  V  V7  1  0.62398639  0.12819988  -0.01175969  1
  V  V8  1  0.36281810  0.75104454  0.62485314  1
  V  V9  1  0.62204591  0.49778045  0.63159445  1
  V  V10  1  0.12491014  0.37637757  0.24986689  1
  V  V11  1  0.62220590  0.63057824  0.49884820  1
  V  V12  1  0.37507181  0.12295883  0.24878314  1
  V  V13  1  0.49576719  0.75080056  0.74973326  1
  V  V14  1  -0.00506720  0.74522131  0.25302011  1
  V  V15  1  0.73994277  0.62569444  0.87612312  1
  V  V16  1  0.25954743  -0.00300720  0.73922300  1
  V  V17  1  -0.00232999  0.50080014  0.49853133  1
  V  V18  1  0.87974759  0.37450283  -0.00259254  1
  V  V19  1  0.12263447  0.75283855  0.87302382  1
  V  V20  1  0.75196634  0.87831872  0.11961672  1
  V  V21  1  0.50835354  0.86761457  0.37780034  1
  V  V22  1  0.38045725  0.73603968  0.12379160  1
  V  V23  1  0.87488087  0.12380674  0.25051222  1
  V  V24  1  0.37465420  0.24567641  0.63932848  1
  V  V25  1  -0.00276595  0.37598860  0.37333106  1
  V  V26  1  0.37551973  0.87735504  -0.00353409  1
  V  V27  1  -0.00217241  0.62682619  0.62658673  1
  V  V28  1  0.25747731  0.49963302  0.26275482  1
  V  V29  1  0.37970847  0.61816905  0.26805076  1
  V  V30  1  0.13678109  0.62705664  0.49644509  1
  V  V31  1  0.87158471  0.87662764  0.50832413  1
  V  V32  1  0.37346420  0.37816006  0.50008281  1
  V  V33  1  0.00038811  0.11934076  0.11705356  1
  V  V34  1  0.12578847  0.24937606  0.37552868  1
  V  V35  1  0.86627351  0.50373711  0.36270052  1
  V  V36  1  0.74234385  0.36672947  0.12942868  1
  V  V37  1  0.87237220  0.12354262  0.74935009  1
  V  V38  1  0.12589835  0.11974760  0.50340159  1
  V  V39  1  0.12578120  0.62365829  0.00174538  1
  V  V40  1  0.49366617  0.62705565  0.62994163  1
  V  V41  1  0.25326542  0.87503046  0.12490853  1
  V  V42  1  0.12661638  0.87575428  0.25101601  1
  V  V43  1  0.74898471  0.00038221  0.24984270  1
  V  V44  1  0.87099513  0.37587924  0.49909254  1
  V  V45  1  0.37423604  0.25007916  0.12166575  1
  V  V46  1  0.50322345  0.25072660  0.24828637  1
  V  V47  1  0.25239690  0.50298781  0.75022812  1
  V  V48  1  0.36208129  0.86997037  0.50175279  1
  V  V49  1  0.25149093  0.74705978  0.00255839  1
  V  V50  1  0.51591670  0.24689382  0.75480458  1
  V  V51  1  0.00563602  0.11487224  0.63016610  1
  V  V52  1  0.51659596  0.37463046  0.86967897  1
  V  V53  1  0.86789711  0.75125949  0.62816328  1
  V  V54  1  0.74448115  0.75676672  0.50025716  1
  V  V55  1  0.50346005  0.12135022  0.62103537  1
  V  V56  1  0.37731919  0.49571323  0.87377673  1
  V  V57  1  0.50458672  0.74615166  0.24794654  1
  V  V58  1  0.12429410  0.26026021  0.87319890  1
  V  V59  1  0.87496711  0.74369070  0.12399502  1
  V  V60  1  0.00606084  0.26480321  0.74865270  1
  V  V61  1  0.87662087  0.00173156  0.87498583  1
  V  V62  1  0.63534529  0.88367407  0.74424571  1
  V  V63  1  0.74102860  0.24711887  0.49845161  1
  V  V64  1  0.49696707  0.50151221  0.49632560  1
  V  V65  1  0.51562276  0.50857690  0.00674567  1
  V  V66  1  -0.00125320  0.62271427  0.12929101  1
  V  V67  1  0.12144819  0.88495317  0.73379401  1
  V  V68  1  0.25105902  0.37625501  0.12224115  1
  V  V69  1  0.49901756  0.87815114  0.87143740  1
  V  V70  1  0.73456903  0.53282667  0.21822417  1
  V  V71  1  0.12216597  0.49624572  0.63176365  1
  V  V72  1  0.49565865  0.00240673  -0.00718192  1
  V  V73  1  0.25638791  0.62589542  0.87224113  1
  V  V74  1  0.49700558  0.37686124  0.37455266  1
  V  V75  1  0.88737435  0.87921698  0.00063254  1
  V  V76  1  0.25688984  0.11639673  0.87152112  1
  V  V77  1  -0.00083656  0.49840324  -0.00225695  1
  V  V78  1  -0.00079056  0.87242506  0.37674402  1
  V  V79  1  0.12272409  -0.00174129  0.11439930  1
  V  V80  1  0.62297654  0.00120024  0.12284717  1
  V  V81  1  0.74611776  0.37500803  0.63227392  1
  V  V82  1  0.24656688  0.37289119  0.63320867  1
  V  V83  1  0.75156946  0.62743442  0.38079999  1
  V  V84  1  0.12607290  0.50284626  0.12735245  1
  Zn  Zn85  1  0.74489218  0.12060935  0.86490045  1
  Zn  Zn86  1  0.73876023  0.12000614  0.37973518  1
  Zn  Zn87  1  0.14075403  0.75274324  0.38814350  1
  Zn  Zn88  1  0.49899102  0.12597861  0.12019972  1
  Zn  Zn89  1  0.00810777  0.88782633  0.87706041  1
  Zn  Zn90  1  0.61831650  0.24271363  0.37963458  1
  Zn  Zn91  1  0.24968207  0.00275081  0.24756969  1
  Zn  Zn92  1  0.64403251  0.00539493  0.61953703  1
  Zn  Zn93  1  0.12191405  0.12249716  -0.00872642  1
  Zn  Zn94  1  0.00559110  -0.00498250  0.50638579  1
  Zn  Zn95  1  0.74720345  0.49890217  0.75134228  1
  Zn  Zn96  1  -0.00069974  0.75466233  0.75154383  1
  Zn  Zn97  1  0.25099281  0.12532044  0.37583259  1
  Zn  Zn98  1  0.24884965  0.24681008  -0.00338887  1
  Zn  Zn99  1  0.62080423  0.74968120  0.88160229  1
  Zn  Zn100  1  0.62566053  0.38017224  0.25237801  1
  Zn  Zn101  1  0.87263084  0.62630560  0.75093376  1
  Zn  Zn102  1  0.74441375  0.74601556  0.00073033  1
  Zn  Zn103  1  0.62668124  0.87215196  0.25115709  1
  Zn  Zn104  1  0.50397692  0.00373508  0.49810340  1
  Zn  Zn105  1  0.87850738  0.25240901  0.62531064  1
  Zn  Zn106  1  0.37981535  0.37524651  -0.00195348  1
  Zn  Zn107  1  0.18774042  0.18642780  0.18624895  1
  Zn  Zn108  1  0.18681082  0.18232632  0.69337815  1
  Zn  Zn109  1  0.20583718  0.70288054  0.22193822  1
  Zn  Zn110  1  0.18258922  0.68530980  0.68982457  1
  Zn  Zn111  1  0.68624538  0.18418531  0.18502426  1
  Zn  Zn112  1  0.68869685  0.18739079  0.68184415  1
  Zn  Zn113  1  0.68945303  0.69563002  0.18696101  1
  Zn  Zn114  1  0.68342820  0.68904373  0.69233557  1
  Zn  Zn115  1  0.31468274  0.31280331  0.31263282  1
  Zn  Zn116  1  0.31061314  0.31356236  0.81517607  1
  Zn  Zn117  1  0.31530985  0.81101948  0.31494134  1
  Zn  Zn118  1  0.31012948  0.81784541  0.80941983  1
  Zn  Zn119  1  0.81202873  0.30921221  0.31383583  1
  Zn  Zn120  1  0.81888321  0.31300376  0.81158165  1
  Zn  Zn121  1  0.81219169  0.81235426  0.31374004  1
  Zn  Zn122  1  0.81554590  0.80984849  0.81856174  1
  Zn  Zn123  1  0.18529123  0.43822849  0.44269971  1
  Zn  Zn124  1  0.18812610  0.43680082  0.93867355  1
  Zn  Zn125  1  0.18871269  0.94070361  0.43489852  1
  Zn  Zn126  1  0.19127542  0.93773363  0.93535679  1
  Zn  Zn127  1  0.68183236  0.43727577  0.44003360  1
  Zn  Zn128  1  0.69230371  0.43893736  0.93899635  1
  Zn  Zn129  1  0.68597130  0.94255541  0.44265759  1
  Zn  Zn130  1  0.68851670  0.93754609  0.93407815  1
  Zn  Zn131  1  0.30935760  0.06352630  0.05841431  1
  Zn  Zn132  1  0.31799109  0.06309943  0.56321471  1
  Zn  Zn133  1  0.31642458  0.55827685  0.06102875  1
  Zn  Zn134  1  0.31384740  0.56182389  0.56437168  1
  Zn  Zn135  1  0.81227609  0.06174985  0.05540538  1
  Zn  Zn136  1  0.81948506  0.06849946  0.56197365  1
  Zn  Zn137  1  0.80323532  0.56324687  0.06163726  1
  Zn  Zn138  1  0.81081836  0.56200063  0.56241189  1
  Zn  Zn139  1  0.43924215  0.43934210  0.18505418  1
  Zn  Zn140  1  0.43632777  0.43499501  0.69081747  1
  Zn  Zn141  1  0.43970723  0.93425198  0.18525104  1
  Zn  Zn142  1  0.43299962  0.93566926  0.68696559  1
  Zn  Zn143  1  0.92829038  0.43825016  0.18680579  1
  Zn  Zn144  1  0.93377985  0.43871569  0.68671790  1
  Zn  Zn145  1  0.93799430  0.93704032  0.18834777  1
  Zn  Zn146  1  0.81635687  0.93880631  0.69163773  1
  Zn  Zn147  1  0.06172092  0.06164287  0.31167381  1
  Zn  Zn148  1  0.06388749  0.06315417  0.81304949  1
  Zn  Zn149  1  0.06292700  0.56205760  0.31346942  1
  Zn  Zn150  1  0.06334986  0.56287835  0.81282022  1
  Zn  Zn151  1  0.56093947  0.06180874  0.31314060  1
  Zn  Zn152  1  0.55681572  0.06170191  0.80748503  1
  Zn  Zn153  1  0.56444275  0.56480269  0.31564794  1
  Zn  Zn154  1  0.55859063  0.56307922  0.81173532  1
  Zn  Zn155  1  0.43622619  0.18972502  0.43972184  1
  Zn  Zn156  1  0.43662824  0.19031998  0.93322083  1
  Zn  Zn157  1  0.43588847  0.69239194  0.44035740  1
  Zn  Zn158  1  0.43915162  0.68580233  0.93639706  1
  Zn  Zn159  1  0.93736006  0.18780894  0.44028135  1
  Zn  Zn160  1  0.94003372  0.18860337  0.93218310  1
  Zn  Zn161  1  0.93736561  0.68770709  0.44068927  1
  Zn  Zn162  1  0.93468076  0.68575244  0.93953442  1
  Zn  Zn163  1  0.06343076  0.31064432  0.05982550  1
  Zn  Zn164  1  0.06266518  0.31066174  0.56298544  1
  Zn  Zn165  1  0.06474545  0.80874869  0.06444302  1
  Zn  Zn166  1  0.06093727  0.80835918  0.56340841  1
  Zn  Zn167  1  0.56177027  0.31484452  0.05639745  1
  Zn  Zn168  1  0.56056086  0.31312634  0.56746470  1
  Zn  Zn169  1  0.56351504  0.81110764  0.06128142  1
  Zn  Zn170  1  0.55996506  0.81669808  0.56393984  1
  O  O171  1  0.11825950  0.11558493  0.12503526  1
  O  O172  1  0.11421056  0.13176237  0.61811114  1
  O  O173  1  0.11969828  0.61669209  0.12016657  1
  O  O174  1  0.11770469  0.61773371  0.61717544  1
  O  O175  1  0.62276063  0.11347094  0.11465857  1
  O  O176  1  0.60827231  0.12360804  0.63070066  1
  O  O177  1  0.70579343  0.59657555  0.13660785  1
  O  O178  1  0.61399716  0.62143113  0.61695783  1
  O  O179  1  0.38631199  0.37083260  0.38492508  1
  O  O180  1  0.38090234  0.38179478  0.87676977  1
  O  O181  1  0.38083471  0.87839599  0.38160536  1
  O  O182  1  0.38209562  0.86871527  0.88891877  1
  O  O183  1  0.87620333  0.38368621  0.37902814  1
  O  O184  1  0.86880868  0.38886720  0.88477323  1
  O  O185  1  0.88206547  0.88089924  0.38287863  1
  O  O186  1  0.87944624  0.88381796  0.88236878  1
  O  O187  1  0.26377868  0.00228807  0.36978955  1
  O  O188  1  0.24761542  0.01187764  0.87022139  1
  O  O189  1  0.24788047  0.48977930  0.36165093  1
  O  O190  1  0.25505356  0.50379496  0.86899702  1
  O  O191  1  0.76141014  -0.00111204  0.37097344  1
  O  O192  1  0.76760679  0.00393694  0.88186384  1
  O  O193  1  0.75545261  0.50955160  0.38502441  1
  O  O194  1  0.75644204  0.50863899  0.87212076  1
  O  O195  1  0.24703928  0.49120120  0.13067991  1
  O  O196  1  0.24449210  0.49439168  0.63269515  1
  O  O197  1  0.24160824  0.99390945  0.12614425  1
  O  O198  1  0.25455737  1.00517208  0.63915546  1
  O  O199  1  0.77171747  0.47040168  0.12905335  1
  O  O200  1  0.74046287  0.49300236  0.62405357  1
  O  O201  1  0.74439159  0.99614221  0.12775510  1
  O  O202  1  0.75668377  1.00618740  0.62686550  1
  O  O203  1  0.00225504  0.37178690  0.25393448  1
  O  O204  1  -0.00119436  0.36336331  0.74615926  1
  O  O205  1  0.00334395  0.87128027  0.26192375  1
  O  O206  1  0.01931908  0.87217665  0.75816253  1
  O  O207  1  0.50094243  0.37037221  0.25729272  1
  O  O208  1  0.49884019  0.36507035  0.76079705  1
  O  O209  1  0.49778478  0.86546226  0.26075913  1
  O  O210  1  0.50397041  0.87315016  0.75876682  1
  O  O211  1  0.48884710  0.13204969  0.24457414  1
  O  O212  1  0.49858430  0.14090995  0.74569895  1
  O  O213  1  0.49106553  0.62899491  0.25394146  1
  O  O214  1  0.50149826  0.63582571  0.74136569  1
  O  O215  1  0.99425374  0.12971192  0.24158066  1
  O  O216  1  0.99654784  0.13107318  0.74062681  1
  O  O217  1  1.00429002  0.63385963  0.24337993  1
  O  O218  1  1.00183456  0.62739973  0.73643042  1
  O  O219  1  0.37376200  0.25184968  0.01128368  1
  O  O220  1  0.37010827  0.26098235  0.50936299  1
  O  O221  1  0.37148840  0.75417468  0.00641067  1
  O  O222  1  0.37282345  0.76094232  0.50662544  1
  O  O223  1  0.87027751  0.25601567  0.00115675  1
  O  O224  1  0.86967477  0.26445923  0.49853386  1
  O  O225  1  0.87136194  0.75932776  0.00791939  1
  O  O226  1  0.86868682  0.75834095  0.50755012  1
  O  O227  1  0.13101469  0.24208233  0.49526915  1
  O  O228  1  0.12531249  0.24808475  0.98618149  1
  O  O229  1  0.12398362  0.73333098  0.50233880  1
  O  O230  1  0.13328572  0.74337086  0.99533071  1
  O  O231  1  0.63810416  0.25395183  0.50278366  1
  O  O232  1  0.63328896  0.23927905  1.00426615  1
  O  O233  1  0.63334042  0.74477691  0.50769114  1
  O  O234  1  0.63085667  0.75484030  0.99582597  1
  O  O235  1  0.49098224  0.25191919  0.12949387  1
  O  O236  1  0.49484074  0.24599156  0.63661548  1
  O  O237  1  0.49006595  0.75813414  0.13409274  1
  O  O238  1  0.49316439  0.74352551  0.63081456  1
  O  O239  1  0.99655972  0.24268759  0.13105860  1
  O  O240  1  1.00107435  0.24694149  0.63723251  1
  O  O241  1  0.99246190  0.74393085  0.13090592  1
  O  O242  1  0.98739225  0.74166372  0.62428680  1
  O  O243  1  0.00375622  0.25640826  0.36885248  1
  O  O244  1  0.01314943  0.24705826  0.86238717  1
  O  O245  1  0.00116246  0.75582900  0.36870307  1
  O  O246  1  0.01452974  0.74294949  0.87526807  1
  O  O247  1  0.49704156  0.25733594  0.36595505  1
  O  O248  1  0.49917774  0.26034541  0.86406264  1
  O  O249  1  0.49543066  0.76066747  0.36658496  1
  O  O250  1  0.49794705  0.75868268  0.86698839  1
  O  O251  1  0.24405054  0.13124242  0.50003901  1
  O  O252  1  0.24455968  0.12645898  0.98758534  1
  O  O253  1  0.23549186  0.61592554  0.50130410  1
  O  O254  1  0.24570324  0.62817322  0.99392882  1
  O  O255  1  0.76167758  0.14485974  0.49738842  1
  O  O256  1  0.74151403  0.13351989  0.99766640  1
  O  O257  1  0.74152013  0.63307495  0.49818605  1
  O  O258  1  0.75602159  0.62632010  0.97970104  1
  O  O259  1  0.25170785  0.37241123  0.01245594  1
  O  O260  1  0.25623729  0.37173089  0.51013895  1
  O  O261  1  0.25825733  0.86815041  0.00412171  1
  O  O262  1  0.26285982  0.87548199  0.49277083  1
  O  O263  1  0.75812267  0.36681005  0.00746087  1
  O  O264  1  0.75498140  0.36879075  0.50608182  1
  O  O265  1  0.75967374  0.87842721  0.01096678  1
  O  O266  1  0.75986104  0.86685358  0.49385882  1
  O  O267  1  0.13363339  0.49522839  0.24587883  1
  O  O268  1  0.13040797  0.50180605  0.73805899  1
  O  O269  1  0.12488094  0.98849546  0.24437877  1
  O  O270  1  0.13065043  0.98847471  0.75205408  1
  O  O271  1  0.64228779  0.49949302  0.25494945  1
  O  O272  1  0.62344588  0.50413451  0.73515805  1
  O  O273  1  0.62951166  0.99779632  0.23927295  1
  O  O274  1  0.62239318  0.98662322  0.74762764  1
  O  O275  1  0.37642721  0.00758970  0.25370818  1
  O  O276  1  0.35860629  -0.01156384  0.75485442  1
  O  O277  1  0.37414478  0.50964577  0.25016743  1
  O  O278  1  0.36666338  0.49801265  0.76100569  1
  O  O279  1  0.87020383  0.00364814  0.25763267  1
  O  O280  1  0.87608718  0.00909508  0.76278066  1
  O  O281  1  0.85351059  0.49992711  0.25860605  1
  O  O282  1  0.87342305  0.50245079  0.75917614  1
  O  O283  1  0.11786243  0.37040165  0.37039697  1
  O  O284  1  0.13113326  0.36016475  0.87499828  1
  O  O285  1  0.11807842  0.87280916  0.36942216  1
  O  O286  1  0.12498989  0.86387393  0.87934269  1
  O  O287  1  0.61083772  0.36987629  0.37462962  1
  O  O288  1  0.61529667  0.37925830  0.87225819  1
  O  O289  1  0.61079958  0.87783454  0.37135670  1
  O  O290  1  0.61554805  0.87602954  0.86516846  1
  O  O291  1  0.37475869  0.13249433  0.13069891  1
  O  O292  1  0.38452535  0.13820455  0.62311624  1
  O  O293  1  0.37558850  0.63417129  0.12475843  1
  O  O294  1  0.38697577  0.63306499  0.61741815  1
  O  O295  1  0.88134270  0.12719178  0.12860899  1
  O  O296  1  0.89074952  0.13222327  0.63127142  1
  O  O297  1  0.87904003  0.63750049  0.12016402  1
  O  O298  1  0.88124269  0.63083395  0.62528564  1
  O  O299  1  0.25679132  0.25709589  0.12442281  1
  O  O300  1  0.25514642  0.25575180  0.62559981  1
  O  O301  1  0.25952183  0.75599182  0.12403794  1
  O  O302  1  0.26399253  0.74159594  0.63373044  1
  O  O303  1  0.75629468  0.25348565  0.11569794  1
  O  O304  1  0.75411313  0.25767456  0.61438655  1
  O  O305  1  0.76038426  0.76257654  0.12515321  1
  O  O306  1  0.76045704  0.74275686  0.61688982  1
  O  O307  1  0.24476504  0.25008983  0.38246319  1
  O  O308  1  0.23809348  0.24270299  0.87069821  1
  O  O309  1  0.23499380  0.73769464  0.33088477  1
  O  O310  1  0.24424773  0.74202948  0.87890320  1
  O  O311  1  0.74656004  0.25282693  0.38895049  1
  O  O312  1  0.75417388  0.24849610  0.88443577  1
  O  O313  1  0.75723275  0.74340386  0.39033015  1
  O  O314  1  0.74964062  0.73605794  0.87481462  1
  O  O315  1  0.00097327  0.13098561  0.01379172  1
  O  O316  1  0.00712747  0.12843669  0.51301799  1
  O  O317  1  0.00553600  0.61939316  0.00929982  1
  O  O318  1  0.00248476  0.61783618  0.51119581  1
  O  O319  1  0.50448706  0.11937561  -0.00213220  1
  O  O320  1  0.49591188  0.12748753  0.51667077  1
  O  O321  1  0.49954517  0.60763566  -0.00863105  1
  O  O322  1  0.50394543  0.61984497  0.50427369  1
  O  O323  1  0.49308343  0.38071457  0.49642693  1
  O  O324  1  0.50040488  0.38039902  0.98367562  1
  O  O325  1  0.49055087  0.87007558  0.48586362  1
  O  O326  1  0.49484727  0.88243593  0.99107623  1
  O  O327  1  0.99217622  0.38007474  0.49399688  1
  O  O328  1  0.98684639  0.38004470  1.00632729  1
  O  O329  1  0.99441874  0.87396802  0.49099931  1
  O  O330  1  0.99056901  0.86982808  0.99969994  1
  O  O331  1  0.50407540  0.49392492  0.38856112  1
  O  O332  1  0.49481413  0.48934132  0.87455243  1
  O  O333  1  0.48922799  0.98680634  0.37183773  1
  O  O334  1  0.49958114  0.99323184  0.88397687  1
  O  O335  1  0.98805414  0.49476207  0.37587230  1
  O  O336  1  0.99307147  0.50644363  0.88582730  1
  O  O337  1  0.99089075  0.99164906  0.37642408  1
  O  O338  1  0.98532803  1.00401557  0.87643286  1
  O  O339  1  0.00894931  0.00821884  0.13147593  1
  O  O340  1  0.00048578  0.01664376  0.62442610  1
  O  O341  1  0.00138027  0.50462643  0.12150908  1
  O  O342  1  0.00575935  0.50449940  0.62090809  1
  O  O343  1  0.50768005  -0.00072025  0.11374190  1
  O  O344  1  0.49125229  0.01822868  0.63013667  1
  O  O345  1  0.49842309  0.49301146  0.10551797  1
  O  O346  1  0.50170195  0.50601285  0.61864608  1
  O  O347  1  0.24801154  0.37957018  0.24031082  1
  O  O348  1  0.25239834  0.38465167  0.73963848  1
  O  O349  1  0.24205606  0.87883954  0.24227733  1
  O  O350  1  0.23600399  0.88766314  0.75681661  1
  O  O351  1  0.74563978  0.36150429  0.23592345  1
  O  O352  1  0.75582262  0.37480197  0.73575934  1
  O  O353  1  0.75025120  0.88114970  0.23920010  1
  O  O354  1  0.73951632  0.87194017  0.75410672  1
  O  O355  1  0.26315459  0.12594778  0.25232615  1
  O  O356  1  0.24543954  0.11009204  0.75964626  1
  O  O357  1  0.27121526  0.60978586  0.24120009  1
  O  O358  1  0.24414579  0.61137469  0.75758021  1
  O  O359  1  0.75865392  0.11872040  0.25016081  1
  O  O360  1  0.76783164  0.13826389  0.74853863  1
  O  O361  1  0.74808843  0.63261839  0.27391446  1
  O  O362  1  0.75183485  0.62226584  0.75971725  1
  O  O363  1  0.37773829  0.11618723  0.36812061  1
  O  O364  1  0.35558483  0.13413796  0.87552596  1
  O  O365  1  0.37681916  0.62455342  0.36643670  1
  O  O366  1  0.36175891  0.61884683  0.87695157  1
  O  O367  1  0.87641445  0.11525301  0.37066830  1
  O  O368  1  0.87489012  0.11803341  0.86791500  1
  O  O369  1  0.86624813  0.61346155  0.38652780  1
  O  O370  1  0.86945070  0.61463758  0.87305096  1
  O  O371  1  0.13121906  0.37979445  0.13084627  1
  O  O372  1  0.13515304  0.38404342  0.61678643  1
  O  O373  1  0.12933197  0.88152369  0.13021041  1
  O  O374  1  0.12140363  0.87397653  0.63475799  1
  O  O375  1  0.63982146  0.37092059  0.12439875  1
  O  O376  1  0.63313902  0.38557221  0.61861053  1
  O  O377  1  0.63412885  0.88674963  0.12459972  1
  O  O378  1  0.61974465  0.87531359  0.64257620  1
  O  O379  1  0.12016366  0.25641327  0.25446117  1
  O  O380  1  0.11458832  0.24980683  0.75706554  1
  O  O381  1  0.10708974  0.76660658  0.23874095  1
  O  O382  1  0.12724869  0.76014035  0.75800926  1
  O  O383  1  0.60970826  0.24973337  0.24472878  1
  O  O384  1  0.61431743  0.25073879  0.74801459  1
  O  O385  1  0.61066397  0.75171149  0.24285059  1
  O  O386  1  0.61226142  0.76156143  0.75286316  1
  O  O387  1  0.38329834  0.24506288  0.24150020  1
  O  O388  1  0.38074266  0.25735505  0.74104743  1
  O  O389  1  0.38496396  0.73596056  0.24344428  1
  O  O390  1  0.38688078  0.76239803  0.74085591  1
  O  O391  1  0.88055670  0.24292051  0.24454066  1
  O  O392  1  0.89159170  0.24437953  0.75199001  1
  O  O393  1  0.88744672  0.75739997  0.24150784  1
  O  O394  1  0.87866938  0.74960474  0.74200910  1
  O  O395  1  0.38172557  0.48688798  0.50690214  1
  O  O396  1  0.37865366  0.49664523  0.98543991  1
  O  O397  1  0.38055724  0.98931129  0.49224894  1
  O  O398  1  0.38445318  0.99050655  1.00672659  1
  O  O399  1  0.87835444  0.48986826  0.49450557  1
  O  O400  1  0.87913310  0.49273342  0.99557381  1
  O  O401  1  0.88068673  0.99286629  0.49311321  1
  O  O402  1  0.87724775  0.99132983  0.99242403  1
  O  O403  1  0.12507690  -0.00112273  0.01114296  1
  O  O404  1  0.12341185  0.01531698  0.49268651  1
  O  O405  1  0.11877787  0.50249245  0.00619708  1
  O  O406  1  0.11742148  0.50626507  0.50993394  1
  O  O407  1  0.61693306  0.00514901  0.00405189  1
  O  O408  1  0.61443912  -0.01014970  0.51045248  1
  O  O409  1  0.61552046  0.49877476  -0.00238689  1
  O  O410  1  0.61520503  0.50837037  0.51028959  1
  O  O411  1  0.36736507  0.36728793  0.12425010  1
  O  O412  1  0.36753522  0.36853516  0.61975436  1
  O  O413  1  0.37202063  0.86740551  0.11486080  1
  O  O414  1  0.38083945  0.86751942  0.60845692  1
  O  O415  1  0.87114722  0.36074657  0.11823069  1
  O  O416  1  0.86674451  0.37558982  0.61463271  1
  O  O417  1  0.87150553  0.87054633  0.11865326  1
  O  O418  1  0.87568452  0.86774723  0.61561352  1
  O  O419  1  0.12484118  0.13264370  0.38116968  1
  O  O420  1  0.13309241  0.13426321  0.87369369  1
  O  O421  1  0.11673376  0.62208532  0.39441867  1
  O  O422  1  0.13625249  0.62891458  0.88096284  1
  O  O423  1  0.62599130  0.12924131  0.37143298  1
  O  O424  1  0.62640276  0.11775394  0.88380361  1
  O  O425  1  0.63121235  0.62237647  0.39222294  1
  O  O426  1  0.63673106  0.62546718  0.86889167  1
