# generated using pymatgen
data_V85Zn86O256
_symmetry_space_group_name_H-M   'P 1'
_cell_length_a   16.92046420
_cell_length_b   16.91663641
_cell_length_c   16.90786102
_cell_angle_alpha   90.00101029
_cell_angle_beta   89.97210224
_cell_angle_gamma   90.01013457
_symmetry_Int_Tables_number   1
_chemical_formula_structural   V85Zn86O256
_chemical_formula_sum   'V85 Zn86 O256'
_cell_volume   4839.66052742
_cell_formula_units_Z   1
loop_
 _symmetry_equiv_pos_site_id
 _symmetry_equiv_pos_as_xyz
  1  'x, y, z'
loop_
 _atom_site_type_symbol
 _atom_site_label
 _atom_site_symmetry_multiplicity
 _atom_site_fract_x
 _atom_site_fract_y
 _atom_site_fract_z
 _atom_site_occupancy
  V  V0  1  0.50116419  0.74640734  0.74406497  1
  V  V1  1  0.12424707  0.50079447  0.63395152  1
  V  V2  1  0.11011471  0.12422640  0.50663725  1
  V  V3  1  0.25682458  -0.00481387  0.73797850  1
  V  V4  1  0.63136141  0.74791352  0.86775334  1
  V  V5  1  0.62167607  -0.00635201  0.62362245  1
  V  V6  1  0.62213128  0.74654951  0.36848515  1
  V  V7  1  -0.00477200  0.00274772  0.00398847  1
  V  V8  1  0.50066415  -0.00201650  -0.00061852  1
  V  V9  1  -0.01157139  0.62522997  0.62173783  1
  V  V10  1  0.87576028  0.87778202  -0.00158396  1
  V  V11  1  0.62704897  0.24515373  0.37527943  1
  V  V12  1  0.12381164  0.74263249  0.87624249  1
  V  V13  1  0.74930066  0.50895644  0.74945240  1
  V  V14  1  0.00766221  0.49206170  -0.00098609  1
  V  V15  1  0.87322747  0.00343922  0.38127429  1
  V  V16  1  0.12450997  0.87619502  0.25172422  1
  V  V17  1  0.87482076  0.87050497  0.50210744  1
  V  V18  1  0.63361742  0.62611370  -0.00646840  1
  V  V19  1  0.75474226  0.49587658  0.25602419  1
  V  V20  1  0.86590847  0.50126814  0.88553555  1
  V  V21  1  0.37417407  0.24632520  0.63098332  1
  V  V22  1  0.75020020  0.74481743  0.50283090  1
  V  V23  1  0.25310434  -0.00007373  0.25134582  1
  V  V24  1  0.38079910  0.75073272  0.13226615  1
  V  V25  1  0.87056881  0.12596196  0.25277752  1
  V  V26  1  0.10957698  -0.00405957  0.62080248  1
  V  V27  1  0.74781898  0.87121855  0.62759531  1
  V  V28  1  0.37424195  0.76630681  0.62226166  1
  V  V29  1  0.87600236  0.74868047  0.12453042  1
  V  V30  1  0.36647757  0.50404214  0.87218239  1
  V  V31  1  -0.00036893  0.87950537  0.37948064  1
  V  V32  1  0.37457041  0.87311533  -0.00105622  1
  V  V33  1  0.74741506  0.00155410  0.25594976  1
  V  V34  1  0.25035462  0.87407471  0.12445065  1
  V  V35  1  0.24742419  0.73970639  -0.00029303  1
  V  V36  1  0.74981306  0.12287215  0.87110448  1
  V  V37  1  0.62485089  -0.00166884  0.12586738  1
  V  V38  1  0.62532471  0.11869803  0.49741651  1
  V  V39  1  0.75012389  0.37540685  0.63290545  1
  V  V40  1  0.38001291  0.37670248  0.50193328  1
  V  V41  1  0.25016100  0.76330557  0.50475134  1
  V  V42  1  0.86954212  0.26231999  0.12498262  1
  V  V43  1  0.12841725  0.62317689  0.49993715  1
  V  V44  1  0.50586561  0.87329691  0.86797750  1
  V  V45  1  0.74970835  0.24576049  0.50045617  1
  V  V46  1  0.25354239  0.12698636  0.87116429  1
  V  V47  1  0.00825390  0.62545456  0.11764471  1
  V  V48  1  -0.00205925  0.87283826  0.87178139  1
  V  V49  1  0.87705691  0.62060990  0.25727961  1
  V  V50  1  0.63311744  0.49634518  0.12296899  1
  V  V51  1  0.37427756  0.00317069  0.87152444  1
  V  V52  1  0.38123595  -0.00153260  0.39233620  1
  V  V53  1  0.62599703  0.12530279  0.00042868  1
  V  V54  1  0.50153107  0.24575688  0.74967263  1
  V  V55  1  0.49375238  0.86827271  0.38137555  1
  V  V56  1  0.50256639  0.50237610  -0.00252012  1
  V  V57  1  0.62848671  0.25472634  0.86803697  1
  V  V58  1  0.49816966  0.12095600  0.62231382  1
  V  V59  1  0.36822886  0.62086802  0.73796646  1
  V  V60  1  0.62868617  0.37250778  0.24449172  1
  V  V61  1  0.74988173  0.87254441  0.12601020  1
  V  V62  1  0.50304708  0.37866299  0.86770073  1
  V  V63  1  0.61042341  0.61816889  0.50262413  1
  V  V64  1  0.75123292  0.26275809  0.00326301  1
  V  V65  1  0.11899644  0.25431324  0.37820406  1
  V  V66  1  0.37491137  0.37419713  0.00244683  1
  V  V67  1  -0.00086371  0.25515159  0.25294581  1
  V  V68  1  0.92059786  0.05666843  0.81830076  1
  V  V69  1  0.00071223  0.75066944  0.25003776  1
  V  V70  1  0.50326008  0.37846956  0.37753180  1
  V  V71  1  0.25376934  0.50199810  0.25109852  1
  V  V72  1  0.50442206  0.62791252  0.13236761  1
  V  V73  1  0.87902769  0.23863194  0.63185328  1
  V  V74  1  0.12323764  0.37943793  0.25321806  1
  V  V75  1  0.87721981  0.37730387  0.49165594  1
  V  V76  1  -0.00483902  0.74873775  0.74308662  1
  V  V77  1  0.61330116  0.49670483  0.62639427  1
  V  V78  1  0.12693825  0.12753444  0.00314115  1
  V  V79  1  0.24959578  0.12472146  0.37751002  1
  V  V80  1  0.24962817  0.38015640  0.63429583  1
  V  V81  1  0.24870806  0.25106236  0.50244270  1
  V  V82  1  0.37859799  0.50205308  0.38061151  1
  V  V83  1  -0.00252381  0.49676792  0.48811216  1
  V  V84  1  0.74223248  -0.00258012  0.75346215  1
  Zn  Zn85  1  0.13121981  0.50390945  0.12162464  1
  Zn  Zn86  1  0.25080430  0.25086913  0.00172612  1
  Zn  Zn87  1  0.75429423  0.74640624  -0.00705636  1
  Zn  Zn88  1  0.49821433  0.12581621  0.12932100  1
  Zn  Zn89  1  0.37561585  0.24556957  0.12799798  1
  Zn  Zn90  1  0.00102949  0.12639038  0.12839288  1
  Zn  Zn91  1  0.49861449  0.24750747  0.24745316  1
  Zn  Zn92  1  0.13035557  0.87105846  0.74347261  1
  Zn  Zn93  1  0.61574188  0.86858650  0.24790747  1
  Zn  Zn94  1  0.38055566  0.62873541  0.25497008  1
  Zn  Zn95  1  0.12501438  0.00147985  0.12653819  1
  Zn  Zn96  1  0.25024424  0.37467468  0.12470161  1
  Zn  Zn97  1  -0.00372938  0.37362177  0.86933628  1
  Zn  Zn98  1  0.24499315  0.62200939  0.87131835  1
  Zn  Zn99  1  0.25406033  0.62784552  0.37772178  1
  Zn  Zn100  1  0.12110551  0.37086446  0.75181659  1
  Zn  Zn101  1  0.75267599  0.61929139  0.37955328  1
  Zn  Zn102  1  0.37925417  0.12715016  0.25088721  1
  Zn  Zn103  1  0.87038621  0.62833903  0.75289633  1
  Zn  Zn104  1  0.12837118  0.75150937  0.37700694  1
  Zn  Zn105  1  0.11972757  0.25267206  0.87269415  1
  Zn  Zn106  1  -0.00261357  0.24883169  0.75002083  1
  Zn  Zn107  1  0.19146497  0.19041608  0.18669314  1
  Zn  Zn108  1  0.18626507  0.18451137  0.68956250  1
  Zn  Zn109  1  0.19014318  0.68790884  0.19053536  1
  Zn  Zn110  1  0.18588046  0.68835734  0.68532772  1
  Zn  Zn111  1  0.68778841  0.18553845  0.18806853  1
  Zn  Zn112  1  0.68938342  0.18441815  0.68703143  1
  Zn  Zn113  1  0.69145481  0.68335870  0.18680478  1
  Zn  Zn114  1  0.68270191  0.68462894  0.68232156  1
  Zn  Zn115  1  0.31126727  0.31302030  0.31192429  1
  Zn  Zn116  1  0.31427093  0.31176535  0.81436935  1
  Zn  Zn117  1  0.31359113  0.81432884  0.31689805  1
  Zn  Zn118  1  0.31335932  0.81283591  0.81152834  1
  Zn  Zn119  1  0.80768394  0.31180826  0.31319892  1
  Zn  Zn120  1  0.81569753  0.31837721  0.81178639  1
  Zn  Zn121  1  0.81039388  0.81037967  0.31416449  1
  Zn  Zn122  1  0.81533279  0.81503825  0.80987170  1
  Zn  Zn123  1  0.18983572  0.43833042  0.43976442  1
  Zn  Zn124  1  0.18564257  0.43465444  0.93525074  1
  Zn  Zn125  1  0.18527590  0.94111978  0.43994348  1
  Zn  Zn126  1  0.18521715  0.93598994  0.93611231  1
  Zn  Zn127  1  0.68963163  0.43569260  0.44022344  1
  Zn  Zn128  1  0.68759897  0.43821710  0.93303543  1
  Zn  Zn129  1  0.68396421  0.93253583  0.43716332  1
  Zn  Zn130  1  0.68762408  0.93481051  0.93679704  1
  Zn  Zn131  1  0.31331935  0.06258563  0.06254846  1
  Zn  Zn132  1  0.31023883  0.06738018  0.56319538  1
  Zn  Zn133  1  0.31646500  0.56138162  0.06407554  1
  Zn  Zn134  1  0.31131208  0.56250942  0.56221981  1
  Zn  Zn135  1  0.81264796  0.06646018  0.06518254  1
  Zn  Zn136  1  0.80873957  0.06054130  0.56182174  1
  Zn  Zn137  1  0.81525452  0.56197173  0.06667770  1
  Zn  Zn138  1  0.80947080  0.55846809  0.56113564  1
  Zn  Zn139  1  0.44342905  0.43904586  0.18935189  1
  Zn  Zn140  1  0.43562974  0.43576989  0.69055260  1
  Zn  Zn141  1  0.43841531  0.93829641  0.19345109  1
  Zn  Zn142  1  0.43947761  0.93721005  0.68811816  1
  Zn  Zn143  1  0.94069554  0.43861659  0.18800679  1
  Zn  Zn144  1  0.93407845  0.43742423  0.68586651  1
  Zn  Zn145  1  0.93633319  0.93922910  0.18848390  1
  Zn  Zn146  1  0.93722505  0.93046383  0.68183708  1
  Zn  Zn147  1  0.06085520  0.06468646  0.31539749  1
  Zn  Zn148  1  0.08337833  0.06443072  0.80896358  1
  Zn  Zn149  1  0.06420293  0.56522521  0.31318572  1
  Zn  Zn150  1  0.05620800  0.56209409  0.81328206  1
  Zn  Zn151  1  0.56029028  0.05887116  0.31419672  1
  Zn  Zn152  1  0.56297802  0.06361264  0.80897857  1
  Zn  Zn153  1  0.56540350  0.55964644  0.31377495  1
  Zn  Zn154  1  0.55970159  0.56637171  0.80586385  1
  Zn  Zn155  1  0.44004332  0.18851581  0.43886472  1
  Zn  Zn156  1  0.43920239  0.18747006  0.93885624  1
  Zn  Zn157  1  0.43617667  0.69012992  0.44170743  1
  Zn  Zn158  1  0.43951864  0.68593146  0.93760981  1
  Zn  Zn159  1  0.93382503  0.19026190  0.43713138  1
  Zn  Zn160  1  0.94101694  0.19630018  0.94532115  1
  Zn  Zn161  1  0.93913196  0.69051965  0.43769637  1
  Zn  Zn162  1  0.93594338  0.68361096  0.93647287  1
  Zn  Zn163  1  0.06275268  0.31272935  0.06651121  1
  Zn  Zn164  1  0.05758984  0.31333225  0.56847873  1
  Zn  Zn165  1  0.06498743  0.81371713  0.06137200  1
  Zn  Zn166  1  0.06234319  0.81279854  0.56151582  1
  Zn  Zn167  1  0.55949747  0.31188218  0.06006541  1
  Zn  Zn168  1  0.56349132  0.31363623  0.56335240  1
  Zn  Zn169  1  0.56376817  0.81067159  0.05806353  1
  Zn  Zn170  1  0.56087557  0.81037872  0.55831653  1
  O  O171  1  0.12456199  0.12207906  0.11783266  1
  O  O172  1  0.12946103  0.11513004  0.61344873  1
  O  O173  1  0.11203041  0.62442878  0.13224570  1
  O  O174  1  0.11910820  0.61869825  0.61533491  1
  O  O175  1  0.62655492  0.11723584  0.11509235  1
  O  O176  1  0.62024802  0.11533964  0.61880972  1
  O  O177  1  0.62063257  0.61998531  0.11777296  1
  O  O178  1  0.62457579  0.61187477  0.61179526  1
  O  O179  1  0.38254147  0.37903899  0.38311814  1
  O  O180  1  0.38199001  0.38391804  0.88060619  1
  O  O181  1  0.38323201  0.88467217  0.37703056  1
  O  O182  1  0.38378892  0.88283068  0.87833420  1
  O  O183  1  0.87085010  0.36657230  0.39258527  1
  O  O184  1  0.87637220  0.39512382  0.87199617  1
  O  O185  1  0.87891532  0.88099857  0.38187803  1
  O  O186  1  0.88843693  0.87178298  0.88181064  1
  O  O187  1  0.25753456  0.00565869  0.37296749  1
  O  O188  1  0.25744876  0.00411226  0.86858126  1
  O  O189  1  0.26047061  0.50160442  0.37006496  1
  O  O190  1  0.26294551  0.50264252  0.87845244  1
  O  O191  1  0.75648462  -0.01005302  0.36280595  1
  O  O192  1  0.74534135  0.00550079  0.86544564  1
  O  O193  1  0.74519146  0.50019480  0.36115580  1
  O  O194  1  0.75729686  0.49979018  0.86730325  1
  O  O195  1  0.25041245  0.49884768  0.13486124  1
  O  O196  1  0.23922559  0.49084433  0.61819465  1
  O  O197  1  0.24923915  0.99264388  0.13517747  1
  O  O198  1  0.24886276  1.00350356  0.63608613  1
  O  O199  1  0.73882092  0.50420048  0.13398161  1
  O  O200  1  0.74335560  0.49268120  0.63107151  1
  O  O201  1  0.74562783  0.99281707  0.13286345  1
  O  O202  1  0.74203710  0.99364693  0.63180681  1
  O  O203  1  0.00596286  0.36443207  0.25079292  1
  O  O204  1  0.00135198  0.37234525  0.74758275  1
  O  O205  1  0.00474829  0.87073440  0.25536201  1
  O  O206  1  0.00131106  0.86796333  0.75511501  1
  O  O207  1  0.51325767  0.37388742  0.25891081  1
  O  O208  1  0.49596787  0.36383823  0.76042091  1
  O  O209  1  0.50224105  0.88231487  0.27011212  1
  O  O210  1  0.49406896  0.86176932  0.75793543  1
  O  O211  1  0.49917363  0.12682712  0.24934757  1
  O  O212  1  0.50475538  0.13695878  0.73942053  1
  O  O213  1  0.50187578  0.61978435  0.23654827  1
  O  O214  1  0.48444365  0.63893073  0.75238779  1
  O  O215  1  0.99391259  0.13793259  0.25120148  1
  O  O216  1  0.98503720  0.11295812  0.76465104  1
  O  O217  1  0.99494272  0.63053812  0.24434240  1
  O  O218  1  0.99868792  0.63134559  0.73906070  1
  O  O219  1  0.37630235  0.26236653  -0.00195264  1
  O  O220  1  0.37079729  0.25642480  0.50944787  1
  O  O221  1  0.36923053  0.75513205  0.00728005  1
  O  O222  1  0.36497917  0.74633585  0.51397665  1
  O  O223  1  0.86624291  0.24531726  0.01708476  1
  O  O224  1  0.86760205  0.25637247  0.50699902  1
  O  O225  1  0.87415936  0.75652516  0.00554113  1
  O  O226  1  0.86361512  0.75847451  0.49444420  1
  O  O227  1  0.12648796  0.24398119  0.49720807  1
  O  O228  1  0.12502773  0.23825234  1.00027890  1
  O  O229  1  0.13658803  0.74351994  0.50245280  1
  O  O230  1  0.13548781  0.75586004  0.99051853  1
  O  O231  1  0.63117831  0.24317136  0.49608790  1
  O  O232  1  0.63096618  0.24238808  0.99087827  1
  O  O233  1  0.62882175  0.73591261  0.49404717  1
  O  O234  1  0.62740382  0.74201990  0.98856282  1
  O  O235  1  0.49752384  0.24634183  0.12650167  1
  O  O236  1  0.49607863  0.24596466  0.63201444  1
  O  O237  1  0.49263265  0.74233220  0.11924830  1
  O  O238  1  0.48616023  0.75493805  0.62924259  1
  O  O239  1  0.98728543  0.24895457  0.13323071  1
  O  O240  1  0.98333969  0.24629280  0.62583810  1
  O  O241  1  0.99611885  0.74444315  0.12841339  1
  O  O242  1  1.00617529  0.73993163  0.63174328  1
  O  O243  1  0.01147162  0.24809913  0.37034767  1
  O  O244  1  -0.00247719  0.25404372  0.87053329  1
  O  O245  1  0.00142227  0.76262069  0.36828521  1
  O  O246  1  0.00613408  0.75577611  0.87043381  1
  O  O247  1  0.51146036  0.26023542  0.37718981  1
  O  O248  1  0.50759424  0.25409134  0.86768759  1
  O  O249  1  0.50381110  0.75900764  0.37738137  1
  O  O250  1  0.50597778  0.75631850  0.86732271  1
  O  O251  1  0.24210659  0.13169798  0.49129382  1
  O  O252  1  0.24267830  0.12148272  0.99039423  1
  O  O253  1  0.24182003  0.63188321  0.49990707  1
  O  O254  1  0.25543350  0.63688766  0.99754722  1
  O  O255  1  0.74119627  0.13781446  0.50416910  1
  O  O256  1  0.74125606  0.12751222  0.99050054  1
  O  O257  1  0.74483287  0.63085545  0.49872463  1
  O  O258  1  0.73774856  0.62614077  1.00523569  1
  O  O259  1  0.26117807  0.37593284  0.00120950  1
  O  O260  1  0.26055461  0.36849514  0.50683518  1
  O  O261  1  0.25612929  0.86946882  0.00475732  1
  O  O262  1  0.24494239  0.86207249  0.49953772  1
  O  O263  1  0.74470648  0.36179124  -0.00228956  1
  O  O264  1  0.75792490  0.36697849  0.50781614  1
  O  O265  1  0.75586909  0.87523151  0.01066398  1
  O  O266  1  0.75363799  0.86723800  0.50743125  1
  O  O267  1  0.13278076  0.49422401  0.25216078  1
  O  O268  1  0.12109583  0.50204778  0.73675973  1
  O  O269  1  0.13580689  0.99509921  0.25391865  1
  O  O270  1  0.13600044  0.99734109  0.73503877  1
  O  O271  1  0.63188489  0.49271772  0.24212582  1
  O  O272  1  0.62977042  0.50603689  0.73468682  1
  O  O273  1  0.63349240  0.99696372  0.24526700  1
  O  O274  1  0.63447952  1.00078921  0.74066687  1
  O  O275  1  0.36181855  0.00028935  0.26124524  1
  O  O276  1  0.36533528  -0.00190724  0.75574165  1
  O  O277  1  0.37070902  0.49889981  0.26173684  1
  O  O278  1  0.37961317  0.51378221  0.75463111  1
  O  O279  1  0.86856773  0.00672186  0.25778055  1
  O  O280  1  0.86704873  -0.00167414  0.75126053  1
  O  O281  1  0.86729313  0.50700168  0.24410453  1
  O  O282  1  0.86462643  0.50415234  0.75576208  1
  O  O283  1  0.13105441  0.36625927  0.36626702  1
  O  O284  1  0.12000196  0.37198035  0.87068079  1
  O  O285  1  0.11572190  0.87643450  0.37185438  1
  O  O286  1  0.11183907  0.86892983  0.87218792  1
  O  O287  1  0.61896360  0.36958874  0.37167089  1
  O  O288  1  0.61640858  0.36604392  0.87693218  1
  O  O289  1  0.61674181  0.86360381  0.37303377  1
  O  O290  1  0.61248337  0.86734839  0.87846609  1
  O  O291  1  0.37854427  0.12362206  0.12930689  1
  O  O292  1  0.38456415  0.13454152  0.62001329  1
  O  O293  1  0.38665352  0.63265523  0.12565485  1
  O  O294  1  0.37363915  0.62852555  0.63534185  1
  O  O295  1  0.87657292  0.13095267  0.13986932  1
  O  O296  1  0.86604922  0.14015528  0.62063737  1
  O  O297  1  0.88388630  0.63105155  0.13467366  1
  O  O298  1  0.88585223  0.62122187  0.62327194  1
  O  O299  1  0.25629750  0.25641470  0.12116498  1
  O  O300  1  0.25814922  0.25335404  0.62158085  1
  O  O301  1  0.25622369  0.75418030  0.11762299  1
  O  O302  1  0.25946177  0.74915697  0.61543473  1
  O  O303  1  0.76014238  0.24521902  0.11842890  1
  O  O304  1  0.75218575  0.25705219  0.61939967  1
  O  O305  1  0.75617996  0.75745814  0.12288711  1
  O  O306  1  0.74132455  0.75792925  0.61391515  1
  O  O307  1  0.23932981  0.24291930  0.38009060  1
  O  O308  1  0.25370180  0.23731115  0.87758143  1
  O  O309  1  0.25226174  0.74834382  0.39004524  1
  O  O310  1  0.24238497  0.75150601  0.88211869  1
  O  O311  1  0.73574781  0.25394497  0.38486397  1
  O  O312  1  0.74606244  0.24452258  0.87887801  1
  O  O313  1  0.74029653  0.74893393  0.38640114  1
  O  O314  1  0.73571691  0.75874244  0.87218309  1
  O  O315  1  0.00692273  0.11785333  0.00286423  1
  O  O316  1  0.01147835  0.12698464  0.49532459  1
  O  O317  1  -0.00560699  0.61502163  0.01035699  1
  O  O318  1  0.00563063  0.62066584  0.50437189  1
  O  O319  1  0.51381960  0.11735439  -0.00381158  1
  O  O320  1  0.51020301  0.13102023  0.51384418  1
  O  O321  1  0.51032881  0.61985644  0.00766323  1
  O  O322  1  0.51192374  0.62351421  0.49931838  1
  O  O323  1  0.48795223  0.37011434  0.49462417  1
  O  O324  1  0.49653421  0.38218217  0.98643928  1
  O  O325  1  0.50691676  0.87783466  0.48208121  1
  O  O326  1  0.49449293  0.87938581  0.99076447  1
  O  O327  1  0.98591712  0.38107900  0.50482001  1
  O  O328  1  0.99911007  0.38988363  1.00428124  1
  O  O329  1  0.98884346  0.86972573  0.49158223  1
  O  O330  1  0.99796170  0.88426227  0.99235469  1
  O  O331  1  0.49512284  0.48678041  0.37263302  1
  O  O332  1  0.49480731  0.49369629  0.87463229  1
  O  O333  1  0.48550450  0.99488798  0.37848363  1
  O  O334  1  0.49478440  0.99323768  0.87481592  1
  O  O335  1  1.00275710  0.50312494  0.38858549  1
  O  O336  1  0.99205303  0.50043477  0.88838549  1
  O  O337  1  0.98867172  0.98832955  0.36865292  1
  O  O338  1  0.99361653  0.99801432  0.87427694  1
  O  O339  1  0.00333102  0.00232781  0.11765537  1
  O  O340  1  0.01099109  0.00269643  0.62900819  1
  O  O341  1  0.00008044  0.50741980  0.11440069  1
  O  O342  1  0.00615441  0.50780870  0.61510529  1
  O  O343  1  0.50876142  -0.00291320  0.11764458  1
  O  O344  1  0.50851152  0.00839361  0.63174264  1
  O  O345  1  0.51241812  0.50743445  0.11918963  1
  O  O346  1  0.51430405  0.49054850  0.62695352  1
  O  O347  1  0.24332170  0.38725007  0.25134180  1
  O  O348  1  0.25116245  0.37215794  0.73709896  1
  O  O349  1  0.24488087  0.88154072  0.24802626  1
  O  O350  1  0.24784482  0.89096107  0.75568147  1
  O  O351  1  0.73780601  0.37994537  0.25224545  1
  O  O352  1  0.75062893  0.38446242  0.73832842  1
  O  O353  1  0.75034362  0.88016707  0.23848709  1
  O  O354  1  0.75499334  0.88114111  0.73596430  1
  O  O355  1  0.24689121  0.11828420  0.26446002  1
  O  O356  1  0.24651208  0.10993116  0.76172676  1
  O  O357  1  0.25358831  0.61419047  0.25464589  1
  O  O358  1  0.26432926  0.63140179  0.75203107  1
  O  O359  1  0.75707261  0.11389847  0.24896764  1
  O  O360  1  0.74785037  0.11622271  0.76253849  1
  O  O361  1  0.75971831  0.61559989  0.25213993  1
  O  O362  1  0.75093283  0.61384379  0.74205249  1
  O  O363  1  0.36820728  0.11481087  0.37909699  1
  O  O364  1  0.37141488  0.11074716  0.88074206  1
  O  O365  1  0.37808986  0.61630285  0.37446291  1
  O  O366  1  0.37467774  0.61869136  0.86581258  1
  O  O367  1  0.87806386  0.11745693  0.36532971  1
  O  O368  1  0.86804232  0.12091124  0.88134639  1
  O  O369  1  0.87531741  0.62999653  0.36131010  1
  O  O370  1  0.87804264  0.60843343  0.87108387  1
  O  O371  1  0.12575016  0.37815039  0.14078282  1
  O  O372  1  0.13355485  0.38272865  0.62303677  1
  O  O373  1  0.13205635  0.87758534  0.13322987  1
  O  O374  1  0.12209441  0.89096375  0.62291420  1
  O  O375  1  0.61983030  0.38382964  0.13222065  1
  O  O376  1  0.63448174  0.38843273  0.61546951  1
  O  O377  1  0.63264513  0.87748219  0.12637251  1
  O  O378  1  0.63096860  0.88583247  0.61666869  1
  O  O379  1  0.11759118  0.25528180  0.25791053  1
  O  O380  1  0.11791440  0.24740899  0.75126183  1
  O  O381  1  0.12127972  0.75858822  0.25424290  1
  O  O382  1  0.11665150  0.75287619  0.75578594  1
  O  O383  1  0.62724024  0.25571757  0.25821784  1
  O  O384  1  0.62049442  0.24627755  0.76023784  1
  O  O385  1  0.63132191  0.74568648  0.26456323  1
  O  O386  1  0.61387327  0.74250459  0.75412732  1
  O  O387  1  0.37849851  0.24773374  0.25118917  1
  O  O388  1  0.38362477  0.25287876  0.73870482  1
  O  O389  1  0.36808101  0.74908132  0.23630372  1
  O  O390  1  0.37650111  0.74413988  0.73778658  1
  O  O391  1  0.87774604  0.24526348  0.24696623  1
  O  O392  1  0.87062096  0.25020847  0.73560014  1
  O  O393  1  0.88010234  0.74445666  0.24397772  1
  O  O394  1  0.88954852  0.74733423  0.75387460  1
  O  O395  1  0.37139352  0.49203594  0.48971126  1
  O  O396  1  0.38410735  0.49772614  0.99031502  1
  O  O397  1  0.36904208  0.99965201  0.49056588  1
  O  O398  1  0.38054001  0.99241304  0.99134142  1
  O  O399  1  0.87972441  0.48587602  0.50213434  1
  O  O400  1  0.87924320  0.50248692  0.99122924  1
  O  O401  1  0.86537869  0.99338908  0.48677932  1
  O  O402  1  0.88677116  0.99680993  1.00525541  1
  O  O403  1  0.11367450  0.00850411  -0.00166027  1
  O  O404  1  0.12729717  0.01021960  0.51192144  1
  O  O405  1  0.11204214  0.50075208  0.00167341  1
  O  O406  1  0.11812080  0.50588911  0.50511191  1
  O  O407  1  0.62183238  0.00577874  0.00419563  1
  O  O408  1  0.63324421  0.01095019  0.50660567  1
  O  O409  1  0.62291924  0.50570063  0.00443079  1
  O  O410  1  0.62989580  0.51039727  0.50836431  1
  O  O411  1  0.38078718  0.38228770  0.10981843  1
  O  O412  1  0.36994416  0.37042024  0.61918989  1
  O  O413  1  0.37187890  0.86905905  0.12077614  1
  O  O414  1  0.37273300  0.86494924  0.62671696  1
  O  O415  1  0.87254430  0.36076312  0.13365241  1
  O  O416  1  0.86463515  0.36657108  0.61591150  1
  O  O417  1  0.86939444  0.86975088  0.12014757  1
  O  O418  1  0.86466893  0.87997037  0.61024675  1
  O  O419  1  0.13059595  0.12971632  0.38581904  1
  O  O420  1  0.13663103  0.12702361  0.88486153  1
  O  O421  1  0.12614752  0.62920447  0.38851837  1
  O  O422  1  0.12493873  0.63793615  0.87053475  1
  O  O423  1  0.61860308  0.13180906  0.38623223  1
  O  O424  1  0.63175984  0.13168285  0.88002120  1
  O  O425  1  0.62588528  0.62765825  0.38567261  1
  O  O426  1  0.61830306  0.63414880  0.88183909  1
