# generated using pymatgen
data_V85Zn86O256
_symmetry_space_group_name_H-M   'P 1'
_cell_length_a   16.93897422
_cell_length_b   16.93874497
_cell_length_c   16.93080234
_cell_angle_alpha   90.02230623
_cell_angle_beta   90.08244718
_cell_angle_gamma   89.94984530
_symmetry_Int_Tables_number   1
_chemical_formula_structural   V85Zn86O256
_chemical_formula_sum   'V85 Zn86 O256'
_cell_volume   4857.86260000
_cell_formula_units_Z   1
loop_
 _symmetry_equiv_pos_site_id
 _symmetry_equiv_pos_as_xyz
  1  'x, y, z'
loop_
 _atom_site_type_symbol
 _atom_site_label
 _atom_site_symmetry_multiplicity
 _atom_site_fract_x
 _atom_site_fract_y
 _atom_site_fract_z
 _atom_site_occupancy
  V  V0  1  0.11172895  0.00054720  0.61494091  1
  V  V1  1  0.25291893  0.62064220  0.87521881  1
  V  V2  1  -0.00058444  0.62443900  0.12450122  1
  V  V3  1  0.86852535  0.62110702  0.25358704  1
  V  V4  1  0.37596497  -0.00414391  0.87929297  1
  V  V5  1  0.86772788  0.37612875  0.50456224  1
  V  V6  1  0.74771307  0.87748069  0.62663370  1
  V  V7  1  0.01382501  0.25524038  0.25334357  1
  V  V8  1  0.49847595  0.62096218  0.62057406  1
  V  V9  1  0.24678577  0.13265519  0.37785340  1
  V  V10  1  0.00881044  0.37197968  0.37494837  1
  V  V11  1  0.25608632  0.25375272  0.00652720  1
  V  V12  1  0.74586695  0.12740277  0.37893696  1
  V  V13  1  0.75273366  0.49405686  0.74480526  1
  V  V14  1  0.37985106  0.73886590  0.12455092  1
  V  V15  1  0.12411390  0.25236536  0.87408052  1
  V  V16  1  0.38796561  0.87588645  0.00414452  1
  V  V17  1  0.24969518  0.75091027  -0.00153270  1
  V  V18  1  0.25392685  -0.00210490  0.25370940  1
  V  V19  1  0.12612434  0.61985332  0.00060461  1
  V  V20  1  0.62275792  0.25766039  0.37287489  1
  V  V21  1  0.62496045  0.49883944  0.61739491  1
  V  V22  1  0.24857716  0.37617742  0.62458378  1
  V  V23  1  0.13112407  0.62051887  0.50979521  1
  V  V24  1  0.51060397  0.50914274  -0.00094548  1
  V  V25  1  0.87768986  0.00338212  0.87307538  1
  V  V26  1  0.37851808  0.88270889  0.50629056  1
  V  V27  1  0.24958582  0.00067443  0.73955662  1
  V  V28  1  0.62054405  0.62868627  0.49134171  1
  V  V29  1  0.12268109  0.37892932  0.74478555  1
  V  V30  1  0.87824290  0.87405004  -0.00097260  1
  V  V31  1  0.37685707  0.61725486  0.75456009  1
  V  V32  1  0.50567083  0.12163259  0.11437995  1
  V  V33  1  0.38041829  0.24506478  0.62398400  1
  V  V34  1  0.25234518  0.75338470  0.49849088  1
  V  V35  1  0.25337051  0.87666526  0.12650550  1
  V  V36  1  0.62608229  0.51056833  0.13349398  1
  V  V37  1  0.37501670  0.38158447  0.00183216  1
  V  V38  1  0.00041189  0.49961736  0.50615549  1
  V  V39  1  0.62587867  0.37480514  0.74512919  1
  V  V40  1  0.38721038  0.12253266  0.74842104  1
  V  V41  1  0.13127685  0.87539804  0.74326636  1
  V  V42  1  0.50051484  0.25782166  0.24284171  1
  V  V43  1  0.88141541  0.12677378  0.74149689  1
  V  V44  1  0.36838216  0.75426068  0.62765326  1
  V  V45  1  0.00058894  0.74820272  0.74724686  1
  V  V46  1  0.74077608  0.37686554  0.14076455  1
  V  V47  1  0.74423917  0.75192228  0.49032995  1
  V  V48  1  0.60833640  0.12313918  0.50601406  1
  V  V49  1  0.87678733  0.00249335  0.38281560  1
  V  V50  1  0.38617492  0.61896144  0.25333695  1
  V  V51  1  0.74712979  0.88105363  0.12269578  1
  V  V52  1  0.24885692  0.38127697  0.13729337  1
  V  V53  1  0.25044237  0.12484847  0.87353057  1
  V  V54  1  0.62460140  0.25087149  0.88201606  1
  V  V55  1  0.13422514  0.75129744  0.37427823  1
  V  V56  1  0.00192495  0.12757094  0.12696226  1
  V  V57  1  0.87516926  0.25473943  0.12642735  1
  V  V58  1  0.74187681  0.00430733  0.24626937  1
  V  V59  1  0.00334126  0.00078836  0.00276254  1
  V  V60  1  0.61041889  0.00581802  0.63159738  1
  V  V61  1  0.87576073  0.61775246  0.75144020  1
  V  V62  1  0.87299326  0.74847882  0.62305367  1
  V  V63  1  0.75206116  0.61446733  0.87767879  1
  V  V64  1  0.12708393  0.12616044  0.00040181  1
  V  V65  1  0.37756691  0.12805064  0.24352012  1
  V  V66  1  0.74599985  0.25198117  0.51462342  1
  V  V67  1  -0.00190501  0.75488933  0.25156950  1
  V  V68  1  0.12515605  0.74913180  0.87333511  1
  V  V69  1  0.74966116  0.74470519  -0.00096329  1
  V  V70  1  0.62573073  0.74213906  0.87859673  1
  V  V71  1  0.87513137  0.12740737  0.25157746  1
  V  V72  1  0.38318241  0.38246095  0.49992002  1
  V  V73  1  0.50129017  0.74997124  0.75249270  1
  V  V74  1  0.87042239  0.38313831  -0.00096346  1
  V  V75  1  -0.00422410  0.38235048  0.87591062  1
  V  V76  1  0.12740586  0.87826568  0.25152315  1
  V  V77  1  0.75048087  0.12803128  0.88129129  1
  V  V78  1  0.20050675  0.56680778  0.31597320  1
  V  V79  1  0.00242207  0.87408830  0.87442695  1
  V  V80  1  0.11249608  0.13156898  0.49983778  1
  V  V81  1  0.00182499  0.88066732  0.38380584  1
  V  V82  1  0.49323086  0.37817198  0.87280349  1
  V  V83  1  0.25114508  0.49705517  0.75298394  1
  V  V84  1  0.38626414  0.00403173  0.38144001  1
  Zn  Zn85  1  0.60714114  0.00453148  0.06936633  1
  Zn  Zn86  1  0.50441036  0.38312646  0.37219354  1
  Zn  Zn87  1  0.00501781  0.24629590  0.74257136  1
  Zn  Zn88  1  0.12680654  0.00161227  0.12654147  1
  Zn  Zn89  1  0.62626653  0.87203776  0.26328403  1
  Zn  Zn90  1  0.87456741  0.75202730  0.12489043  1
  Zn  Zn91  1  0.74863295  0.00095645  0.74923750  1
  Zn  Zn92  1  0.73932122  0.62268970  0.36889365  1
  Zn  Zn93  1  0.74548066  0.24926938  0.00507535  1
  Zn  Zn94  1  0.87780548  0.87987911  0.50412545  1
  Zn  Zn95  1  0.24746160  0.25126797  0.49813070  1
  Zn  Zn96  1  0.00160032  0.62006016  0.62556982  1
  Zn  Zn97  1  0.50536309  0.24355582  0.74810838  1
  Zn  Zn98  1  0.88111131  0.24952566  0.62301070  1
  Zn  Zn99  1  -0.00194688  0.50000068  0.00082279  1
  Zn  Zn100  1  0.37588485  0.50261403  0.37743959  1
  Zn  Zn101  1  0.12651088  0.49703285  0.13939118  1
  Zn  Zn102  1  0.86426553  0.49343719  0.37340089  1
  Zn  Zn103  1  0.50962004  0.75257840  0.25552734  1
  Zn  Zn104  1  0.51202931  0.87737756  0.88721232  1
  Zn  Zn105  1  0.50963244  0.87158375  0.38108574  1
  Zn  Zn106  1  0.62501810  0.87354138  0.74951031  1
  Zn  Zn107  1  0.19184912  0.18852190  0.18612310  1
  Zn  Zn108  1  0.18846604  0.18714242  0.68327627  1
  Zn  Zn109  1  0.18634741  0.69385470  0.18191558  1
  Zn  Zn110  1  0.18989967  0.68606744  0.68657157  1
  Zn  Zn111  1  0.68155422  0.18616549  0.18480758  1
  Zn  Zn112  1  0.68846745  0.18226707  0.69584338  1
  Zn  Zn113  1  0.68725479  0.68885031  0.18257044  1
  Zn  Zn114  1  0.68774164  0.68402601  0.68542542  1
  Zn  Zn115  1  0.31674593  0.31056715  0.31339172  1
  Zn  Zn116  1  0.31384746  0.30954803  0.81305903  1
  Zn  Zn117  1  0.34380855  0.79909043  0.32761426  1
  Zn  Zn118  1  0.31343369  0.81211358  0.81358699  1
  Zn  Zn119  1  0.81627597  0.31086381  0.31747144  1
  Zn  Zn120  1  0.81255497  0.31142732  0.81237231  1
  Zn  Zn121  1  0.81232832  0.81653755  0.31150734  1
  Zn  Zn122  1  0.81258815  0.80941645  0.81138511  1
  Zn  Zn123  1  0.18602682  0.43310879  0.44443182  1
  Zn  Zn124  1  0.18777100  0.43737070  0.93634468  1
  Zn  Zn125  1  0.19591683  0.93799927  0.43944232  1
  Zn  Zn126  1  0.19182763  0.93736974  0.93663086  1
  Zn  Zn127  1  0.69020934  0.44087060  0.43459808  1
  Zn  Zn128  1  0.68681704  0.43339944  0.93730006  1
  Zn  Zn129  1  0.68210910  0.94117376  0.44309990  1
  Zn  Zn130  1  0.69381499  0.93051396  0.93178726  1
  Zn  Zn131  1  0.31620869  0.06318084  0.06362136  1
  Zn  Zn132  1  0.30898990  0.06522765  0.56356763  1
  Zn  Zn133  1  0.31423746  0.55608546  0.06247772  1
  Zn  Zn134  1  0.30948240  0.56252197  0.56663424  1
  Zn  Zn135  1  0.81641511  0.06427921  0.06163443  1
  Zn  Zn136  1  0.80462205  0.06220292  0.56210333  1
  Zn  Zn137  1  0.80905056  0.56023583  0.06805698  1
  Zn  Zn138  1  0.80885483  0.56283894  0.55984864  1
  Zn  Zn139  1  0.43744538  0.43980753  0.17959827  1
  Zn  Zn140  1  0.43861203  0.43675504  0.68530920  1
  Zn  Zn141  1  0.44380064  0.93895119  0.18956637  1
  Zn  Zn142  1  0.43659664  0.93380204  0.69305812  1
  Zn  Zn143  1  0.93839462  0.43805873  0.18765972  1
  Zn  Zn144  1  0.93746343  0.43307497  0.68432341  1
  Zn  Zn145  1  0.93330057  0.94104450  0.19095560  1
  Zn  Zn146  1  0.93827954  0.93633490  0.68794582  1
  Zn  Zn147  1  0.06348429  0.06461359  0.31521044  1
  Zn  Zn148  1  0.06343742  0.06158414  0.81120119  1
  Zn  Zn149  1  0.03768452  0.56376295  0.31977602  1
  Zn  Zn150  1  0.06359193  0.55935043  0.81151284  1
  Zn  Zn151  1  0.56173565  0.06752796  0.31219101  1
  Zn  Zn152  1  0.57836606  0.04523944  0.85149522  1
  Zn  Zn153  1  0.55658200  0.55817473  0.31343505  1
  Zn  Zn154  1  0.56499280  0.56033865  0.81354404  1
  Zn  Zn155  1  0.43398802  0.19467414  0.43358867  1
  Zn  Zn156  1  0.43505094  0.19263321  0.93296820  1
  Zn  Zn157  1  0.43604353  0.68516613  0.43583838  1
  Zn  Zn158  1  0.43753875  0.68684740  0.93853642  1
  Zn  Zn159  1  0.93568217  0.19236946  0.43901876  1
  Zn  Zn160  1  0.93856586  0.19207022  0.93830791  1
  Zn  Zn161  1  0.93996671  0.69031766  0.43853413  1
  Zn  Zn162  1  0.93535297  0.68503691  0.93548651  1
  Zn  Zn163  1  0.06539058  0.31546039  0.06358321  1
  Zn  Zn164  1  0.05882595  0.31045429  0.56397577  1
  Zn  Zn165  1  0.06544521  0.81129620  0.06459190  1
  Zn  Zn166  1  0.06549756  0.81089207  0.56325257  1
  Zn  Zn167  1  0.56037144  0.31558070  0.06366401  1
  Zn  Zn168  1  0.56124670  0.31010486  0.56475904  1
  Zn  Zn169  1  0.57864779  0.79936429  0.08778171  1
  Zn  Zn170  1  0.56055946  0.81291381  0.56422763  1
  O  O171  1  0.12035572  0.12438578  0.11795096  1
  O  O172  1  0.12894947  0.11248913  0.61247686  1
  O  O173  1  0.11822944  0.62407931  0.11723880  1
  O  O174  1  0.12134560  0.62854070  0.61387511  1
  O  O175  1  0.61198212  0.11873885  0.11917193  1
  O  O176  1  0.62626501  0.11367679  0.62395485  1
  O  O177  1  0.63881232  0.60825187  0.11570515  1
  O  O178  1  0.61589973  0.61846300  0.61922551  1
  O  O179  1  0.37152564  0.37360846  0.39254599  1
  O  O180  1  0.38761019  0.37298773  0.87767841  1
  O  O181  1  0.36778421  0.89327275  0.38916348  1
  O  O182  1  0.37296491  0.87846737  0.88739701  1
  O  O183  1  0.88153710  0.37367027  0.38799572  1
  O  O184  1  0.88442409  0.36546805  0.88601785  1
  O  O185  1  0.88284956  0.88460181  0.37632738  1
  O  O186  1  0.88268523  0.88226819  0.87641465  1
  O  O187  1  0.25567036  0.00991998  0.36585783  1
  O  O188  1  0.25724380  0.00373317  0.86513510  1
  O  O189  1  0.25323971  0.49894588  0.37207312  1
  O  O190  1  0.24799085  0.50454284  0.86239447  1
  O  O191  1  0.75466429  0.01280567  0.37142194  1
  O  O192  1  0.76651836  0.00492154  0.87180805  1
  O  O193  1  0.75297890  0.51073465  0.37696367  1
  O  O194  1  0.74417143  0.50930209  0.86721968  1
  O  O195  1  0.24509442  0.48658506  0.12378975  1
  O  O196  1  0.25425323  0.48705763  0.63837558  1
  O  O197  1  0.25224160  0.99612669  0.13741412  1
  O  O198  1  0.24044238  1.00155633  0.63679286  1
  O  O199  1  0.73983146  0.48562924  0.12278169  1
  O  O200  1  0.73874709  0.50581602  0.63477917  1
  O  O201  1  0.75577954  0.99828868  0.13303365  1
  O  O202  1  0.74370467  0.99100772  0.62935151  1
  O  O203  1  -0.00555097  0.37029021  0.26431305  1
  O  O204  1  0.00731407  0.37407732  0.75718307  1
  O  O205  1  0.00451839  0.87006342  0.25596203  1
  O  O206  1  0.01083463  0.86959738  0.75477618  1
  O  O207  1  0.49252090  0.36041910  0.24616591  1
  O  O208  1  0.50766045  0.37675648  0.75739991  1
  O  O209  1  0.50515651  0.87526835  0.25659106  1
  O  O210  1  0.49913299  0.85804321  0.75536299  1
  O  O211  1  0.49387548  0.13172368  0.24152495  1
  O  O212  1  0.48691205  0.12190259  0.75988125  1
  O  O213  1  0.48874106  0.63296680  0.24865537  1
  O  O214  1  0.49283320  0.63096783  0.74744519  1
  O  O215  1  0.99478679  0.13260995  0.24662640  1
  O  O216  1  0.98534617  0.12624406  0.75799517  1
  O  O217  1  0.99323361  0.63639568  0.24311769  1
  O  O218  1  0.99363795  0.62777259  0.74838457  1
  O  O219  1  0.36466813  0.26425217  -0.00889660  1
  O  O220  1  0.37002987  0.25772096  0.50854191  1
  O  O221  1  0.36788039  0.75389628  0.00714957  1
  O  O222  1  0.36735705  0.75390564  0.51003606  1
  O  O223  1  0.87699795  0.25788397  0.01505961  1
  O  O224  1  0.86213849  0.25504473  0.50118468  1
  O  O225  1  0.86848549  0.75653444  -0.00122907  1
  O  O226  1  0.86857972  0.74933384  0.51121289  1
  O  O227  1  0.12820786  0.23489584  0.50521785  1
  O  O228  1  0.13192864  0.24584083  0.99231534  1
  O  O229  1  0.13186422  0.74215605  0.49389449  1
  O  O230  1  0.12910187  0.73936665  0.99504642  1
  O  O231  1  0.62948838  0.24371682  0.49688856  1
  O  O232  1  0.62520592  0.25708199  0.98613870  1
  O  O233  1  0.63349916  0.74111399  0.50993687  1
  O  O234  1  0.64074207  0.75179040  0.99447662  1
  O  O235  1  0.50727709  0.24136968  0.13706842  1
  O  O236  1  0.48559861  0.25299781  0.63099996  1
  O  O237  1  0.47951368  0.74707491  0.11883289  1
  O  O238  1  0.49186267  0.74053460  0.63471276  1
  O  O239  1  0.99387420  0.24965787  0.13243880  1
  O  O240  1  0.99517696  0.24901039  0.62990366  1
  O  O241  1  0.99994733  0.74146441  0.13247140  1
  O  O242  1  0.99130740  0.74822613  0.62999430  1
  O  O243  1  -0.00432325  0.26276947  0.36789938  1
  O  O244  1  0.01294037  0.25750355  0.87353358  1
  O  O245  1  0.00944474  0.75778986  0.36762818  1
  O  O246  1  0.00572640  0.75342120  0.86718589  1
  O  O247  1  0.50651686  0.25510675  0.36433090  1
  O  O248  1  0.50745105  0.25854294  0.86981393  1
  O  O249  1  0.45966938  0.76477125  0.36128659  1
  O  O250  1  0.50961463  0.74772639  0.87133086  1
  O  O251  1  0.24224459  0.12730744  0.49181650  1
  O  O252  1  0.24814743  0.13387833  0.99537212  1
  O  O253  1  0.24327186  0.63582212  0.50541250  1
  O  O254  1  0.24380055  0.62786316  0.99601773  1
  O  O255  1  0.74138738  0.13313050  0.49361597  1
  O  O256  1  0.75859832  0.12926719  0.98664805  1
  O  O257  1  0.73856999  0.63567247  0.50081764  1
  O  O258  1  0.76361961  0.63235582  0.98940845  1
  O  O259  1  0.25754855  0.37095587  0.00023569  1
  O  O260  1  0.25580897  0.37134227  0.51031711  1
  O  O261  1  0.25508573  0.86892237  0.00754968  1
  O  O262  1  0.25839751  0.86196811  0.50237792  1
  O  O263  1  0.75810488  0.37067714  0.00628766  1
  O  O264  1  0.75495786  0.36321767  0.49625405  1
  O  O265  1  0.76195951  0.86808459  0.00050223  1
  O  O266  1  0.75253649  0.86862448  0.51248619  1
  O  O267  1  0.13045430  0.51541211  0.26137255  1
  O  O268  1  0.13290762  0.48686307  0.75235752  1
  O  O269  1  0.13505802  0.99593249  0.24997516  1
  O  O270  1  0.12899969  0.99463759  0.74146402  1
  O  O271  1  0.62060584  0.50679408  0.23340372  1
  O  O272  1  0.63222701  0.49455404  0.74174305  1
  O  O273  1  0.63927321  1.00318371  0.25503075  1
  O  O274  1  0.62681302  0.99761600  0.74459621  1
  O  O275  1  0.37006343  0.00784083  0.25931918  1
  O  O276  1  0.36475580  0.00357849  0.75333012  1
  O  O277  1  0.37631010  0.51712483  0.24079959  1
  O  O278  1  0.36962248  0.50998218  0.74733668  1
  O  O279  1  0.86453147  0.00824199  0.26055178  1
  O  O280  1  0.87738437  0.00845020  0.75742966  1
  O  O281  1  0.88081640  0.51808073  0.25035483  1
  O  O282  1  0.86679791  0.50597092  0.74252579  1
  O  O283  1  0.10815746  0.37618312  0.38077108  1
  O  O284  1  0.11914419  0.36830944  0.86918594  1
  O  O285  1  0.12008884  0.87415751  0.37048725  1
  O  O286  1  0.12046631  0.86964659  0.86826659  1
  O  O287  1  0.62421008  0.36069470  0.38197912  1
  O  O288  1  0.61804907  0.36927820  0.86419541  1
  O  O289  1  0.62492099  0.87299857  0.37869188  1
  O  O290  1  0.62883477  0.85531623  0.86775502  1
  O  O291  1  0.38122439  0.12301814  0.13813875  1
  O  O292  1  0.36824495  0.13298197  0.63529611  1
  O  O293  1  0.36772447  0.63367064  0.12960956  1
  O  O294  1  0.38110691  0.63053935  0.63341954  1
  O  O295  1  0.88176412  0.13487149  0.12997947  1
  O  O296  1  0.86980589  0.12029608  0.63972289  1
  O  O297  1  0.88208169  0.62791940  0.13469670  1
  O  O298  1  0.87525169  0.63189581  0.63412220  1
  O  O299  1  0.24644459  0.25912647  0.11168063  1
  O  O300  1  0.26061895  0.26164740  0.62837888  1
  O  O301  1  0.25644348  0.75737886  0.11641310  1
  O  O302  1  0.26213016  0.74671506  0.62103332  1
  O  O303  1  0.75517099  0.25862972  0.12582089  1
  O  O304  1  0.75065995  0.24375853  0.61656119  1
  O  O305  1  0.75483970  0.76129435  0.11398748  1
  O  O306  1  0.75696250  0.75528316  0.62042865  1
  O  O307  1  0.25147408  0.23621591  0.37353266  1
  O  O308  1  0.23988010  0.24754566  0.88250357  1
  O  O309  1  0.24681799  0.75484963  0.38431512  1
  O  O310  1  0.24339410  0.74338931  0.87953787  1
  O  O311  1  0.74269186  0.23973309  0.37820474  1
  O  O312  1  0.74380447  0.24433731  0.87806556  1
  O  O313  1  0.75681993  0.74827689  0.38799611  1
  O  O314  1  0.74680178  0.73900707  0.87916697  1
  O  O315  1  0.00615820  0.12186921  0.00605832  1
  O  O316  1  0.01347088  0.12562197  0.49232186  1
  O  O317  1  0.00538295  0.62512339  0.00760301  1
  O  O318  1  0.00898158  0.61742938  0.49820454  1
  O  O319  1  0.48732076  0.13489468  0.01709051  1
  O  O320  1  0.50974771  0.13287803  0.49753471  1
  O  O321  1  0.49778349  0.60762466  -0.00534540  1
  O  O322  1  0.50483755  0.63264792  0.51073438  1
  O  O323  1  0.48531910  0.37131862  0.50133372  1
  O  O324  1  0.49247040  0.37871188  0.99324305  1
  O  O325  1  0.48273124  0.86961964  0.50143316  1
  O  O326  1  0.48959587  0.86584990  1.00485844  1
  O  O327  1  0.99425282  0.37968545  0.49206922  1
  O  O328  1  0.99363367  0.37598753  0.99353199  1
  O  O329  1  0.99873165  0.86921756  0.48712048  1
  O  O330  1  0.99796011  0.87898193  0.99546797  1
  O  O331  1  0.48928846  0.49398209  0.37240284  1
  O  O332  1  0.50843853  0.49023899  0.88613654  1
  O  O333  1  0.48827440  1.00395186  0.37582921  1
  O  O334  1  0.47899377  0.98992792  0.86389937  1
  O  O335  1  0.98925458  0.48755720  0.38596475  1
  O  O336  1  1.00265855  0.48634397  0.87737478  1
  O  O337  1  0.98966918  0.99144598  0.36685841  1
  O  O338  1  0.99408821  0.99526351  0.88059733  1
  O  O339  1  0.00095634  0.00757344  0.12078902  1
  O  O340  1  0.01304936  -0.00103089  0.62545083  1
  O  O341  1  0.00701249  0.51163080  0.12665855  1
  O  O342  1  -0.00111391  0.49951520  0.61095280  1
  O  O343  1  0.49958764  0.01565021  0.12269169  1
  O  O344  1  0.51199920  -0.00347482  0.63182668  1
  O  O345  1  0.51529862  0.49294834  0.11140579  1
  O  O346  1  0.50735628  0.51369627  0.63171049  1
  O  O347  1  0.25571606  0.36833581  0.23564130  1
  O  O348  1  0.24534258  0.38008785  0.74757649  1
  O  O349  1  0.24931444  0.88412015  0.24627512  1
  O  O350  1  0.23751016  0.88178657  0.75585256  1
  O  O351  1  0.75444772  0.37143837  0.23891388  1
  O  O352  1  0.74330858  0.38629828  0.75566288  1
  O  O353  1  0.74895096  0.88410774  0.23914815  1
  O  O354  1  0.75005542  0.87357339  0.73785831  1
  O  O355  1  0.25762451  0.11946545  0.25393758  1
  O  O356  1  0.25309530  0.11699656  0.75627459  1
  O  O357  1  0.25253869  0.62408688  0.24960725  1
  O  O358  1  0.25613913  0.61586389  0.75239018  1
  O  O359  1  0.75405963  0.12271047  0.25628179  1
  O  O360  1  0.76460918  0.12217333  0.76266277  1
  O  O361  1  0.76567305  0.63976325  0.25103455  1
  O  O362  1  0.75720892  0.61576575  0.75530941  1
  O  O363  1  0.36754511  0.12030935  0.36889573  1
  O  O364  1  0.36775260  0.11692973  0.87035024  1
  O  O365  1  0.36945527  0.62272073  0.35724461  1
  O  O366  1  0.36672698  0.63146253  0.86432390  1
  O  O367  1  0.86710480  0.12227197  0.37166785  1
  O  O368  1  0.87351248  0.11948548  0.87049664  1
  O  O369  1  0.88164077  0.62806443  0.35930690  1
  O  O370  1  0.86822986  0.62772040  0.85957979  1
  O  O371  1  0.14128760  0.37884718  0.12122765  1
  O  O372  1  0.13441736  0.37010278  0.63431757  1
  O  O373  1  0.13468613  0.87670591  0.13248439  1
  O  O374  1  0.12286247  0.88657090  0.63113907  1
  O  O375  1  0.63782777  0.37750940  0.12486711  1
  O  O376  1  0.61759547  0.38335738  0.63605479  1
  O  O377  1  0.64324979  0.89645517  0.10502389  1
  O  O378  1  0.63000254  0.88526096  0.62721720  1
  O  O379  1  0.11265315  0.24528224  0.24680820  1
  O  O380  1  0.12821252  0.25894422  0.75773842  1
  O  O381  1  0.11698657  0.75661267  0.25454451  1
  O  O382  1  0.12202051  0.75713682  0.75108180  1
  O  O383  1  0.61090343  0.24201710  0.25954128  1
  O  O384  1  0.62561329  0.26020820  0.75451574  1
  O  O385  1  0.61271824  0.76944050  0.20300842  1
  O  O386  1  0.61607340  0.74594627  0.75495324  1
  O  O387  1  0.38984224  0.24011912  0.25566906  1
  O  O388  1  0.37573878  0.23869215  0.74511084  1
  O  O389  1  0.36470002  0.73570656  0.23272355  1
  O  O390  1  0.37927068  0.74178547  0.74541726  1
  O  O391  1  0.88162545  0.24607361  0.24072935  1
  O  O392  1  0.87511375  0.23639819  0.74956502  1
  O  O393  1  0.88692452  0.74815870  0.24869445  1
  O  O394  1  0.87962912  0.74259614  0.74046583  1
  O  O395  1  0.36897008  0.48556588  0.50394426  1
  O  O396  1  0.38774980  0.48926833  1.00184020  1
  O  O397  1  0.36753748  0.99422015  0.49590556  1
  O  O398  1  0.36723723  0.98835075  0.99176587  1
  O  O399  1  0.88010832  0.49392725  0.49997147  1
  O  O400  1  0.87793098  0.48716594  1.00690956  1
  O  O401  1  0.86938033  1.00101771  0.48707846  1
  O  O402  1  0.88380573  0.99545922  0.99173367  1
  O  O403  1  0.12114637  0.00692619  0.00048690  1
  O  O404  1  0.12961989  0.00382993  0.51121056  1
  O  O405  1  0.12285683  0.51332752  -0.00249095  1
  O  O406  1  0.11738538  0.51119311  0.49411798  1
  O  O407  1  0.61376492  0.00269076  -0.04255291  1
  O  O408  1  0.62808752  0.01118508  0.51901117  1
  O  O409  1  0.61472551  0.49317202  0.00496294  1
  O  O410  1  0.62851506  0.50845839  0.51234469  1
  O  O411  1  0.36180541  0.37679342  0.11427734  1
  O  O412  1  0.36988009  0.36949787  0.61759985  1
  O  O413  1  0.36963906  0.86758707  0.12126191  1
  O  O414  1  0.37632467  0.86527006  0.62244582  1
  O  O415  1  0.86678785  0.37117949  0.12154743  1
  O  O416  1  0.87537284  0.37230955  0.60974212  1
  O  O417  1  0.86651942  0.87676224  0.11815695  1
  O  O418  1  0.86881106  0.86775019  0.62439283  1
  O  O419  1  0.13300375  0.11633092  0.39039463  1
  O  O420  1  0.13008219  0.13223638  0.87888192  1
  O  O421  1  0.13312718  0.62638744  0.37531481  1
  O  O422  1  0.13022413  0.63047113  0.87963707  1
  O  O423  1  0.62959472  0.13166651  0.38528896  1
  O  O424  1  0.63880018  0.14035495  0.86190995  1
  O  O425  1  0.61817821  0.62721816  0.38738461  1
  O  O426  1  0.63668277  0.63388290  0.87006687  1
