# generated using pymatgen
data_V85Zn86O256
_symmetry_space_group_name_H-M   'P 1'
_cell_length_a   16.92799797
_cell_length_b   16.92249233
_cell_length_c   16.91846046
_cell_angle_alpha   90.01864309
_cell_angle_beta   90.02466267
_cell_angle_gamma   89.99155968
_symmetry_Int_Tables_number   1
_chemical_formula_structural   V85Zn86O256
_chemical_formula_sum   'V85 Zn86 O256'
_cell_volume   4846.52767306
_cell_formula_units_Z   1
loop_
 _symmetry_equiv_pos_site_id
 _symmetry_equiv_pos_as_xyz
  1  'x, y, z'
loop_
 _atom_site_type_symbol
 _atom_site_label
 _atom_site_symmetry_multiplicity
 _atom_site_fract_x
 _atom_site_fract_y
 _atom_site_fract_z
 _atom_site_occupancy
  V  V0  1  0.00134874  0.74697730  0.74992319  1
  V  V1  1  0.50256950  -0.00540440  0.49893790  1
  V  V2  1  -0.00303543  0.87518610  0.36976651  1
  V  V3  1  0.38286366  0.75628071  0.13316733  1
  V  V4  1  0.00577887  0.12434016  0.12097814  1
  V  V5  1  0.23714290  0.13488158  0.89600092  1
  V  V6  1  0.12527969  0.87473731  0.75189366  1
  V  V7  1  0.87108284  0.88168210  0.49593791  1
  V  V8  1  0.37016682  0.00240450  0.37658128  1
  V  V9  1  0.50006887  0.12374534  0.62439907  1
  V  V10  1  0.25090807  0.24787438  0.49357408  1
  V  V11  1  0.75658049  0.11235117  0.37280860  1
  V  V12  1  0.75849716  0.25356761  0.49610446  1
  V  V13  1  0.50019330  0.87274118  0.35854315  1
  V  V14  1  0.61866450  0.75168767  0.36363971  1
  V  V15  1  -0.00050384  0.00119376  0.49562994  1
  V  V16  1  0.12781515  0.87468767  0.24602302  1
  V  V17  1  0.75558402  0.38008635  0.62041418  1
  V  V18  1  0.50979262  0.49762004  0.01081874  1
  V  V19  1  0.24960492  0.61641516  0.37122312  1
  V  V20  1  -0.00761333  0.49160831  0.50012156  1
  V  V21  1  0.13072131  -0.00119008  0.11889457  1
  V  V22  1  0.63258988  0.24828273  0.87149859  1
  V  V23  1  0.37804130  0.49983958  0.87538892  1
  V  V24  1  0.12888607  0.12477383  0.49562033  1
  V  V25  1  0.86477070  0.87038887  0.00038733  1
  V  V26  1  0.74498052  0.50377431  0.24635005  1
  V  V27  1  -0.00357467  0.50740577  0.00561048  1
  V  V28  1  0.50360744  0.24294965  0.23965454  1
  V  V29  1  0.62631074  0.75959842  0.87778441  1
  V  V30  1  0.37390152  0.25038799  0.62163805  1
  V  V31  1  0.62655308  -0.00229256  0.64074305  1
  V  V32  1  0.36857715  0.37102522  -0.00066244  1
  V  V33  1  0.37856264  0.61593560  0.24911702  1
  V  V34  1  0.62388309  0.62525960  0.50545418  1
  V  V35  1  0.25179518  0.87482895  0.62740570  1
  V  V36  1  0.24825333  0.37378026  0.62865026  1
  V  V37  1  0.62652125  0.62687136  0.00603313  1
  V  V38  1  0.24561524  0.75271693  0.00932733  1
  V  V39  1  0.24187855  0.61779231  0.87808783  1
  V  V40  1  0.87088000  0.75054089  0.12705247  1
  V  V41  1  0.12544888  0.24901394  0.36869672  1
  V  V42  1  0.00161252  -0.00382883  -0.00336271  1
  V  V43  1  0.87665447  0.11111312  0.25284867  1
  V  V44  1  0.50197844  0.62008244  0.62797750  1
  V  V45  1  0.74804125  0.63073771  0.87960118  1
  V  V46  1  0.74653358  0.88036058  0.63885309  1
  V  V47  1  0.50432495  0.75774275  0.75064437  1
  V  V48  1  0.36419483  0.12599579  0.75039568  1
  V  V49  1  0.24810043  0.00246557  0.25238274  1
  V  V50  1  0.16750357  0.56114132  0.05784956  1
  V  V51  1  0.36565627  0.24630197  0.12118794  1
  V  V52  1  0.74825715  0.62605337  0.37630369  1
  V  V53  1  0.74280268  0.37820280  0.12395403  1
  V  V54  1  0.50105215  0.25089944  0.74671193  1
  V  V55  1  0.74652283  0.75439905  0.50022109  1
  V  V56  1  0.05965525  0.32017414  0.83138767  1
  V  V57  1  0.86651103  0.11436909  0.74725653  1
  V  V58  1  0.87439957  0.75286994  0.62446459  1
  V  V59  1  0.12718210  0.39103481  0.24180569  1
  V  V60  1  0.62463803  0.37864262  0.24712081  1
  V  V61  1  0.00212122  0.62903692  0.13023118  1
  V  V62  1  0.37382813  0.62397802  0.75243532  1
  V  V63  1  0.50202542  0.49826422  0.50054697  1
  V  V64  1  0.75402072  0.24416139  -0.00391806  1
  V  V65  1  0.87461071  0.50128116  0.87438126  1
  V  V66  1  0.62806099  0.24919912  0.37448082  1
  V  V67  1  0.37574096  0.87538944  -0.00202629  1
  V  V68  1  0.49819027  0.37363281  0.37306771  1
  V  V69  1  0.12533005  0.74327471  0.87945748  1
  V  V70  1  0.62754096  0.12283482  0.49828836  1
  V  V71  1  0.87899604  0.62814780  0.25485769  1
  V  V72  1  0.87638438  0.37867452  0.00139525  1
  V  V73  1  0.25084438  0.74915087  0.49921912  1
  V  V74  1  0.88004906  0.25386781  0.62667105  1
  V  V75  1  0.87711029  0.25015591  0.12813568  1
  V  V76  1  0.62760546  0.37830150  0.73951699  1
  V  V77  1  0.50351608  0.37694019  0.87401247  1
  V  V78  1  0.00166107  0.62590458  0.62545304  1
  V  V79  1  0.12150824  0.75094921  0.37087219  1
  V  V80  1  0.74666015  0.50228198  0.74490101  1
  V  V81  1  0.74084339  0.88390587  0.14192705  1
  V  V82  1  0.12694013  0.49748685  0.62433037  1
  V  V83  1  0.00246480  0.12694751  0.63134798  1
  V  V84  1  0.37532849  0.12380974  0.24921699  1
  Zn  Zn85  1  0.50372932  0.01363480  0.00268852  1
  Zn  Zn86  1  0.24769869  0.00247438  0.75503618  1
  Zn  Zn87  1  0.87139461  -0.00686171  0.87005412  1
  Zn  Zn88  1  0.37318463  0.37616673  0.49675653  1
  Zn  Zn89  1  0.61486379  0.00902336  0.13891390  1
  Zn  Zn90  1  0.12414912  0.62418192  0.49652664  1
  Zn  Zn91  1  0.24627347  0.38354085  0.12630343  1
  Zn  Zn92  1  0.74697434  0.11393470  0.87071141  1
  Zn  Zn93  1  0.24553753  0.49059975  0.75536592  1
  Zn  Zn94  1  0.51121161  0.62675349  0.13622120  1
  Zn  Zn95  1  0.36852579  0.49409824  0.37112533  1
  Zn  Zn96  1  0.61751908  0.12736789  0.01905487  1
  Zn  Zn97  1  0.37629547  0.74920315  0.62492782  1
  Zn  Zn98  1  0.37331533  0.00330959  0.87654737  1
  Zn  Zn99  1  -0.00487361  0.37174960  0.37376372  1
  Zn  Zn100  1  0.87371459  0.62642573  0.75017581  1
  Zn  Zn101  1  0.12717546  0.00260478  0.62666653  1
  Zn  Zn102  1  0.50345156  0.88048865  0.87354683  1
  Zn  Zn103  1  0.00314442  0.25259513  0.24827145  1
  Zn  Zn104  1  0.00062673  0.87224800  0.87738798  1
  Zn  Zn105  1  0.37553391  0.87353871  0.50049879  1
  Zn  Zn106  1  0.86924854  0.49201098  0.38003701  1
  Zn  Zn107  1  0.18997428  0.18275377  0.18576185  1
  Zn  Zn108  1  0.17682129  0.19992143  0.69551155  1
  Zn  Zn109  1  0.19379241  0.69044489  0.19375713  1
  Zn  Zn110  1  0.18692163  0.68405817  0.68791685  1
  Zn  Zn111  1  0.69484408  0.18585737  0.18992729  1
  Zn  Zn112  1  0.69030689  0.18916857  0.68351442  1
  Zn  Zn113  1  0.69173614  0.69292845  0.18478475  1
  Zn  Zn114  1  0.68655464  0.69064366  0.68907787  1
  Zn  Zn115  1  0.30888015  0.31271027  0.30844649  1
  Zn  Zn116  1  0.31049572  0.30754796  0.81415808  1
  Zn  Zn117  1  0.31096237  0.81433441  0.31227694  1
  Zn  Zn118  1  0.31142630  0.80638402  0.81677480  1
  Zn  Zn119  1  0.81599459  0.31311156  0.31144345  1
  Zn  Zn120  1  0.86302113  0.29672429  0.82588458  1
  Zn  Zn121  1  0.81393133  0.80950188  0.31382202  1
  Zn  Zn122  1  0.81354107  0.81157224  0.81522546  1
  Zn  Zn123  1  0.18113093  0.43310995  0.43910811  1
  Zn  Zn124  1  0.17270263  0.39528834  0.93942381  1
  Zn  Zn125  1  0.18713497  0.93700163  0.43808901  1
  Zn  Zn126  1  0.19284216  0.93884898  0.93492719  1
  Zn  Zn127  1  0.68579479  0.43915685  0.43709712  1
  Zn  Zn128  1  0.69050836  0.43717789  0.93358149  1
  Zn  Zn129  1  0.68265738  0.93649616  0.43089898  1
  Zn  Zn130  1  0.68800143  0.94737534  0.94456070  1
  Zn  Zn131  1  0.31359793  0.06211335  0.06592243  1
  Zn  Zn132  1  0.31111086  0.06141498  0.56374512  1
  Zn  Zn133  1  0.33199678  0.56369841  0.06156600  1
  Zn  Zn134  1  0.31497874  0.56238856  0.55971838  1
  Zn  Zn135  1  0.81267168  0.05774963  0.06280292  1
  Zn  Zn136  1  0.81155821  0.06128598  0.56279213  1
  Zn  Zn137  1  0.80931758  0.56592701  0.06545997  1
  Zn  Zn138  1  0.81347218  0.56564631  0.56363697  1
  Zn  Zn139  1  0.43638125  0.43436221  0.18578443  1
  Zn  Zn140  1  0.43534223  0.43807100  0.68475122  1
  Zn  Zn141  1  0.43693163  0.93882112  0.18284890  1
  Zn  Zn142  1  0.43449427  0.93954392  0.68760892  1
  Zn  Zn143  1  0.93718729  0.44015510  0.19151498  1
  Zn  Zn144  1  0.93957833  0.43524592  0.69204233  1
  Zn  Zn145  1  0.94107315  0.93507260  0.18415124  1
  Zn  Zn146  1  0.94214725  0.93636450  0.68241778  1
  Zn  Zn147  1  0.06036073  0.06362373  0.31285065  1
  Zn  Zn148  1  0.06331460  0.06286962  0.81457412  1
  Zn  Zn149  1  0.06108765  0.56240988  0.31455803  1
  Zn  Zn150  1  0.07660430  0.52094316  0.82621222  1
  Zn  Zn151  1  0.56852585  0.06084605  0.30173435  1
  Zn  Zn152  1  0.55377089  0.06583449  0.82128626  1
  Zn  Zn153  1  0.56201393  0.56299848  0.31518956  1
  Zn  Zn154  1  0.56558976  0.56471684  0.81539335  1
  Zn  Zn155  1  0.43779474  0.18471904  0.43356177  1
  Zn  Zn156  1  0.43469601  0.18892455  0.93155300  1
  Zn  Zn157  1  0.43567848  0.68765953  0.43518679  1
  Zn  Zn158  1  0.44063444  0.68883899  0.94049048  1
  Zn  Zn159  1  0.93989742  0.18847746  0.43726172  1
  Zn  Zn160  1  0.94541223  0.18269317  0.93730504  1
  Zn  Zn161  1  0.93776695  0.68842409  0.43966852  1
  Zn  Zn162  1  0.93782152  0.68714736  0.93964805  1
  Zn  Zn163  1  0.06328996  0.31295751  0.05048224  1
  Zn  Zn164  1  0.06578406  0.31169104  0.56414308  1
  Zn  Zn165  1  0.05966866  0.81102414  0.06420211  1
  Zn  Zn166  1  0.06501017  0.81317917  0.56044369  1
  Zn  Zn167  1  0.56189005  0.30494384  0.05915868  1
  Zn  Zn168  1  0.56631163  0.31200874  0.56005916  1
  Zn  Zn169  1  0.56273689  0.81449798  0.06203511  1
  Zn  Zn170  1  0.56405182  0.81277005  0.56469660  1
  O  O171  1  0.11357332  0.11638002  0.12814949  1
  O  O172  1  0.11721496  0.12976856  0.61718671  1
  O  O173  1  0.11934233  0.62746693  0.12739043  1
  O  O174  1  0.11737451  0.62246068  0.61735664  1
  O  O175  1  0.62229107  0.12855748  0.13364827  1
  O  O176  1  0.62037387  0.11937336  0.61771172  1
  O  O177  1  0.62703177  0.63046759  0.11234384  1
  O  O178  1  0.61837633  0.62932963  0.61359007  1
  O  O179  1  0.38342764  0.37468086  0.37448618  1
  O  O180  1  0.38184359  0.37831124  0.88060180  1
  O  O181  1  0.38433000  0.88046178  0.37803961  1
  O  O182  1  0.37420086  0.87264916  0.88735602  1
  O  O183  1  0.88146479  0.37951179  0.36995803  1
  O  O184  1  0.85992225  0.39047637  0.89003359  1
  O  O185  1  0.88551513  0.86745425  0.38334280  1
  O  O186  1  0.87854956  0.87021045  0.88920264  1
  O  O187  1  0.26274576  -0.00483758  0.37125278  1
  O  O188  1  0.25423258  0.01489619  0.87340435  1
  O  O189  1  0.24871415  0.51272436  0.38472188  1
  O  O190  1  0.26246924  0.50581991  0.87457577  1
  O  O191  1  0.75226239  0.01331730  0.38333054  1
  O  O192  1  0.75883684  0.00228040  0.87876794  1
  O  O193  1  0.74935082  0.50939271  0.36955341  1
  O  O194  1  0.75618633  0.51045012  0.86758308  1
  O  O195  1  0.24083828  0.50709376  0.10993485  1
  O  O196  1  0.24473579  0.49124904  0.61985794  1
  O  O197  1  0.23677307  1.00302335  0.13344438  1
  O  O198  1  0.24721687  0.98584553  0.62627846  1
  O  O199  1  0.75246919  0.49084786  0.13382657  1
  O  O200  1  0.75549389  0.49373194  0.63193772  1
  O  O201  1  0.75254514  0.98535010  0.12751807  1
  O  O202  1  0.73869379  0.99206878  0.61983652  1
  O  O203  1  0.01273364  0.37254365  0.24807599  1
  O  O204  1  -0.00602750  0.37448958  0.76911016  1
  O  O205  1  0.00716216  0.88140028  0.26378218  1
  O  O206  1  0.00824348  0.86604395  0.74992463  1
  O  O207  1  0.50533731  0.36969594  0.25577383  1
  O  O208  1  0.50866143  0.37308591  0.75139746  1
  O  O209  1  0.49079431  0.87012405  0.26105181  1
  O  O210  1  0.49360480  0.86093214  0.74998019  1
  O  O211  1  0.49208599  0.13692720  0.26032483  1
  O  O212  1  0.48875488  0.13304569  0.74468082  1
  O  O213  1  0.48536580  0.62387770  0.25351884  1
  O  O214  1  0.49570630  0.62798888  0.74349773  1
  O  O215  1  0.99091682  0.12824103  0.24221979  1
  O  O216  1  0.99425532  0.11821454  0.73493716  1
  O  O217  1  0.99060817  0.62013493  0.24455113  1
  O  O218  1  0.99813027  0.62956352  0.73517780  1
  O  O219  1  0.38392853  0.26093517  0.00933486  1
  O  O220  1  0.36736499  0.24748674  0.50372333  1
  O  O221  1  0.36802511  0.75279962  0.00952651  1
  O  O222  1  0.36250235  0.75050961  0.50099574  1
  O  O223  1  0.87187739  0.25851870  0.00866729  1
  O  O224  1  0.86422294  0.24497847  0.50803637  1
  O  O225  1  0.88161252  0.76273839  0.00939476  1
  O  O226  1  0.86861900  0.76030764  0.50521925  1
  O  O227  1  0.13128815  0.24499253  0.49050135  1
  O  O228  1  0.09842352  0.30593254  0.94239547  1
  O  O229  1  0.13581480  0.75016536  0.49121995  1
  O  O230  1  0.13336695  0.75498977  0.99394524  1
  O  O231  1  0.63630698  0.24311737  0.49516274  1
  O  O232  1  0.63720406  0.25130792  0.98848305  1
  O  O233  1  0.62852367  0.74360204  0.49431859  1
  O  O234  1  0.61697301  0.73829793  0.98994240  1
  O  O235  1  0.48942405  0.25834100  0.13703296  1
  O  O236  1  0.49613209  0.24428305  0.62662295  1
  O  O237  1  0.48552696  0.74668923  0.12276810  1
  O  O238  1  0.49983929  0.73875401  0.63199935  1
  O  O239  1  0.99550536  0.24116586  0.11872574  1
  O  O240  1  0.99084980  0.24082010  0.61461938  1
  O  O241  1  0.99059116  0.73708351  0.12305392  1
  O  O242  1  0.99695243  0.74431722  0.62730600  1
  O  O243  1  0.01134673  0.25179580  0.37401381  1
  O  O244  1  -0.02869057  0.26415782  0.86655933  1
  O  O245  1  0.01347595  0.75855101  0.38317591  1
  O  O246  1  0.00811472  0.74724485  0.86862008  1
  O  O247  1  0.50534713  0.25958831  0.36982615  1
  O  O248  1  0.51069029  0.25965945  0.86423986  1
  O  O249  1  0.50358916  0.76480611  0.38220802  1
  O  O250  1  0.50831486  0.74979458  0.86663718  1
  O  O251  1  0.23924934  0.13306298  0.50671805  1
  O  O252  1  0.24909014  0.12642628  0.99580889  1
  O  O253  1  0.24929888  0.63320879  0.49228906  1
  O  O254  1  0.24237724  0.62223303  0.99834008  1
  O  O255  1  0.74873457  0.13373202  0.49300156  1
  O  O256  1  0.75487270  0.13778528  1.00011428  1
  O  O257  1  0.74141525  0.63052686  0.49706784  1
  O  O258  1  0.74100153  0.62045077  0.99044673  1
  O  O259  1  0.26510264  0.37959043  0.00198296  1
  O  O260  1  0.25119247  0.36582624  0.50684008  1
  O  O261  1  0.26088984  0.86203212  -0.00395052  1
  O  O262  1  0.25005420  0.86759989  0.50816740  1
  O  O263  1  0.75575020  0.36910414  0.00743241  1
  O  O264  1  0.74265277  0.36910285  0.51089628  1
  O  O265  1  0.76388333  0.87476095  0.01005273  1
  O  O266  1  0.75674323  0.87233998  0.50052105  1
  O  O267  1  0.12263501  0.48984550  0.24860330  1
  O  O268  1  0.13223391  0.51679725  0.72677173  1
  O  O269  1  0.13089977  0.99618460  0.24675864  1
  O  O270  1  0.12640173  0.98875766  0.74732015  1
  O  O271  1  0.63637620  0.49649800  0.25418610  1
  O  O272  1  0.63775241  0.49326895  0.75564941  1
  O  O273  1  0.62640801  0.98667792  0.25006418  1
  O  O274  1  0.61509806  1.00714304  0.73886281  1
  O  O275  1  0.36825034  0.00384181  0.25504557  1
  O  O276  1  0.37073993  0.01224630  0.74979059  1
  O  O277  1  0.37455806  0.51144973  0.24947215  1
  O  O278  1  0.37585560  0.51052228  0.75575247  1
  O  O279  1  0.88134084  0.01276263  0.24763129  1
  O  O280  1  0.87988486  0.01099125  0.74476838  1
  O  O281  1  0.86307170  0.51163630  0.25155617  1
  O  O282  1  0.86484741  0.50208123  0.75828730  1
  O  O283  1  0.12125780  0.36744733  0.36256427  1
  O  O284  1  0.12155083  0.41273067  0.84129494  1
  O  O285  1  0.11908771  0.86995321  0.36797280  1
  O  O286  1  0.12686920  0.86647381  0.86399252  1
  O  O287  1  0.61863276  0.36910199  0.36883331  1
  O  O288  1  0.62646833  0.36590847  0.86250826  1
  O  O289  1  0.60844673  0.86678119  0.37860478  1
  O  O290  1  0.62566356  0.86253296  0.88522580  1
  O  O291  1  0.37329172  0.13107034  0.13876265  1
  O  O292  1  0.38098092  0.13095166  0.62875438  1
  O  O293  1  0.38075998  0.63336374  0.13676997  1
  O  O294  1  0.38206082  0.62628759  0.63432363  1
  O  O295  1  0.88168896  0.13022706  0.13343949  1
  O  O296  1  0.88149623  0.12862963  0.62963821  1
  O  O297  1  0.87879470  0.63282492  0.13276244  1
  O  O298  1  0.88188431  0.63541469  0.62604030  1
  O  O299  1  0.26297004  0.25118683  0.12789596  1
  O  O300  1  0.25093350  0.25686592  0.61629485  1
  O  O301  1  0.26090382  0.74088136  0.11384072  1
  O  O302  1  0.24953098  0.75717900  0.61786803  1
  O  O303  1  0.75992091  0.25751016  0.11791499  1
  O  O304  1  0.75709883  0.25858391  0.61524749  1
  O  O305  1  0.76515354  0.75897296  0.12672338  1
  O  O306  1  0.75260051  0.75889494  0.61901935  1
  O  O307  1  0.24430307  0.25336368  0.38687810  1
  O  O308  1  0.25112494  0.23505016  0.87573346  1
  O  O309  1  0.24257641  0.74471215  0.38121092  1
  O  O310  1  0.24628692  0.73588185  0.88780758  1
  O  O311  1  0.74749100  0.24550975  0.38134419  1
  O  O312  1  0.75107808  0.24957769  0.88181489  1
  O  O313  1  0.74019193  0.74547880  0.38141401  1
  O  O314  1  0.74212798  0.73861444  0.86898993  1
  O  O315  1  -0.00723441  0.10999913  0.00901315  1
  O  O316  1  0.00505601  0.11735835  0.50607499  1
  O  O317  1  -0.00212700  0.61600054  0.01042746  1
  O  O318  1  0.00051491  0.61825116  0.51074898  1
  O  O319  1  0.50757436  0.13001483  -0.01230530  1
  O  O320  1  0.50531231  0.11469970  0.50233870  1
  O  O321  1  0.50856574  0.61410853  0.00171297  1
  O  O322  1  0.50424646  0.62041469  0.50630172  1
  O  O323  1  0.50158445  0.38124401  0.49239491  1
  O  O324  1  0.49831042  0.38077190  0.99340548  1
  O  O325  1  0.49757275  0.88635873  0.50120536  1
  O  O326  1  0.48224068  0.86665549  0.99640765  1
  O  O327  1  1.00423353  0.38935676  0.50155641  1
  O  O328  1  0.98083865  0.39255957  1.01604953  1
  O  O329  1  0.99499146  0.88183548  0.49361499  1
  O  O330  1  0.99180611  0.88255190  1.00163189  1
  O  O331  1  0.49935225  0.48699223  0.37983025  1
  O  O332  1  0.49619682  0.49435074  0.87958396  1
  O  O333  1  0.49165781  0.98871193  0.38049783  1
  O  O334  1  0.49114686  0.99571489  0.88260316  1
  O  O335  1  1.00004852  0.50261701  0.39243776  1
  O  O336  1  0.98145774  0.51129856  0.88753628  1
  O  O337  1  1.00499608  0.99162663  0.38753492  1
  O  O338  1  0.99525381  0.99563587  0.88331973  1
  O  O339  1  0.00972782  0.00560466  0.11941380  1
  O  O340  1  0.00502615  0.00632309  0.61198787  1
  O  O341  1  -0.00796564  0.51640537  0.11961770  1
  O  O342  1  0.00420371  0.50496981  0.61871098  1
  O  O343  1  0.50033107  -0.00528591  0.11568363  1
  O  O344  1  0.50503149  0.00449429  0.61710638  1
  O  O345  1  0.49937796  0.50150487  0.11436839  1
  O  O346  1  0.49813088  0.51181035  0.61797873  1
  O  O347  1  0.23352163  0.37450281  0.24747877  1
  O  O348  1  0.26062559  0.37489638  0.73390703  1
  O  O349  1  0.24051020  0.88834883  0.25494178  1
  O  O350  1  0.24423474  0.87155510  0.74458790  1
  O  O351  1  0.74448858  0.38232103  0.24283079  1
  O  O352  1  0.74379379  0.38333762  0.73610392  1
  O  O353  1  0.75546272  0.87203112  0.24031914  1
  O  O354  1  0.75537812  0.87264135  0.73746884  1
  O  O355  1  0.25732744  0.11143099  0.25092978  1
  O  O356  1  0.25857711  0.12884808  0.73944304  1
  O  O357  1  0.26393363  0.62740891  0.25975765  1
  O  O358  1  0.25964733  0.62473850  0.75936061  1
  O  O359  1  0.76876590  0.13144746  0.25918132  1
  O  O360  1  0.76368920  0.12309655  0.74395316  1
  O  O361  1  0.75421274  0.61952472  0.25470841  1
  O  O362  1  0.75022483  0.61783272  0.75504539  1
  O  O363  1  0.37801646  0.11453988  0.36338913  1
  O  O364  1  0.36255368  0.12792687  0.86367147  1
  O  O365  1  0.36882476  0.62354535  0.36442642  1
  O  O366  1  0.36947089  0.61992397  0.87168907  1
  O  O367  1  0.87303894  0.12922896  0.36127306  1
  O  O368  1  0.87754103  0.12546722  0.85404221  1
  O  O369  1  0.86757870  0.62536573  0.37024168  1
  O  O370  1  0.86459209  0.62178834  0.87454883  1
  O  O371  1  0.12688921  0.36692864  0.13703608  1
  O  O372  1  0.13474738  0.38332478  0.62238817  1
  O  O373  1  0.11642685  0.88198976  0.13955577  1
  O  O374  1  0.13217113  0.87226671  0.63635698  1
  O  O375  1  0.63630174  0.36772971  0.12833469  1
  O  O376  1  0.63217619  0.37302888  0.63393210  1
  O  O377  1  0.64133676  0.86660159  0.12467235  1
  O  O378  1  0.63457225  0.88450061  0.62229539  1
  O  O379  1  0.12656036  0.24415715  0.26166166  1
  O  O380  1  0.11157014  0.26015182  0.76844531  1
  O  O381  1  0.13089696  0.76089325  0.25911369  1
  O  O382  1  0.11982942  0.75274052  0.75684905  1
  O  O383  1  0.61906263  0.25725127  0.25602589  1
  O  O384  1  0.62352416  0.25925901  0.75077604  1
  O  O385  1  0.62403575  0.73994800  0.26461739  1
  O  O386  1  0.61426663  0.74322054  0.76148123  1
  O  O387  1  0.38079184  0.24216137  0.24533076  1
  O  O388  1  0.38138880  0.24571371  0.74067116  1
  O  O389  1  0.36753492  0.74433978  0.23665225  1
  O  O390  1  0.38323357  0.73669203  0.75214119  1
  O  O391  1  0.87922615  0.24641460  0.23604810  1
  O  O392  1  0.87032312  0.23481169  0.73114285  1
  O  O393  1  0.87365322  0.73651052  0.24482140  1
  O  O394  1  0.88527416  0.75027446  0.74367630  1
  O  O395  1  0.38922465  0.49969806  0.49449909  1
  O  O396  1  0.38919728  0.49119262  0.99350588  1
  O  O397  1  0.38213876  1.00090446  0.49236724  1
  O  O398  1  0.36855699  0.98180707  1.00392685  1
  O  O399  1  0.88880878  0.50385216  0.50183511  1
  O  O400  1  0.87577296  0.49771184  0.99613949  1
  O  O401  1  0.88278922  0.98892870  0.50311385  1
  O  O402  1  0.88380303  0.98517914  1.00337968  1
  O  O403  1  0.11708649  -0.01261528  0.00941342  1
  O  O404  1  0.11995267  0.00832253  0.50203687  1
  O  O405  1  0.11277829  0.49335029  -0.00268607  1
  O  O406  1  0.11460751  0.50293865  0.50846077  1
  O  O407  1  0.62432501  0.00745180  0.01417762  1
  O  O408  1  0.61678110  0.00555386  0.50264662  1
  O  O409  1  0.61779266  0.50756954  -0.00874496  1
  O  O410  1  0.61155894  0.50998799  0.49497729  1
  O  O411  1  0.36970681  0.36862105  0.11789735  1
  O  O412  1  0.37047879  0.36739498  0.61823585  1
  O  O413  1  0.37200814  0.86064275  0.11779742  1
  O  O414  1  0.36583897  0.86991852  0.62351202  1
  O  O415  1  0.86495000  0.36919151  0.12299087  1
  O  O416  1  0.86788080  0.36683953  0.62804881  1
  O  O417  1  0.87292729  0.86795258  0.12006840  1
  O  O418  1  0.86824798  0.87185357  0.61605890  1
  O  O419  1  0.12022407  0.13150788  0.38753403  1
  O  O420  1  0.13817009  0.12256226  0.87514244  1
  O  O421  1  0.13160306  0.63400623  0.37354180  1
  O  O422  1  0.13749693  0.61982829  0.87045475  1
  O  O423  1  0.63488258  0.13126363  0.37886589  1
  O  O424  1  0.63060120  0.14249624  0.86352717  1
  O  O425  1  0.62583893  0.63236504  0.38700641  1
  O  O426  1  0.63180665  0.63185557  0.88328266  1
