# generated using pymatgen
data_V85Zn86O256
_symmetry_space_group_name_H-M   'P 1'
_cell_length_a   16.98545352
_cell_length_b   16.97364990
_cell_length_c   16.95695665
_cell_angle_alpha   89.95165590
_cell_angle_beta   89.93010807
_cell_angle_gamma   89.96054399
_symmetry_Int_Tables_number   1
_chemical_formula_structural   V85Zn86O256
_chemical_formula_sum   'V85 Zn86 O256'
_cell_volume   4888.77125281
_cell_formula_units_Z   1
loop_
 _symmetry_equiv_pos_site_id
 _symmetry_equiv_pos_as_xyz
  1  'x, y, z'
loop_
 _atom_site_type_symbol
 _atom_site_label
 _atom_site_symmetry_multiplicity
 _atom_site_fract_x
 _atom_site_fract_y
 _atom_site_fract_z
 _atom_site_occupancy
  V  V0  1  0.74793134  0.89252746  0.12616769  1
  V  V1  1  0.01725956  0.87394543  0.37645665  1
  V  V2  1  0.37558953  0.00081102  0.37421653  1
  V  V3  1  0.88930302  0.75253444  0.62257236  1
  V  V4  1  0.62583908  0.11649031  0.00166281  1
  V  V5  1  0.31669938  -0.05061708  0.81891595  1
  V  V6  1  0.87822972  0.62845305  0.25066735  1
  V  V7  1  0.62589771  0.48898778  0.12734694  1
  V  V8  1  0.01518967  0.75251719  0.25578312  1
  V  V9  1  0.24419916  -0.00734392  0.25236359  1
  V  V10  1  0.87562238  0.87440776  0.00103593  1
  V  V11  1  0.24490381  0.75288731  0.49233730  1
  V  V12  1  0.37552381  0.75298460  0.12619776  1
  V  V13  1  0.12512064  0.24984036  0.87567137  1
  V  V14  1  0.37322449  0.87853868  0.50581621  1
  V  V15  1  0.25293104  0.37925022  0.13120292  1
  V  V16  1  0.62983283  0.89380589  0.24570668  1
  V  V17  1  0.25582614  0.24547469  0.50464127  1
  V  V18  1  0.74706758  0.49130625  0.25110118  1
  V  V19  1  0.62770728  0.75364250  0.37030183  1
  V  V20  1  -0.00044620  0.00465251  0.00318205  1
  V  V21  1  0.37077442  0.12194873  0.75072087  1
  V  V22  1  0.75783247  0.25484026  -0.00194550  1
  V  V23  1  0.12779403  0.72892514  0.87749776  1
  V  V24  1  0.50082444  0.37868618  0.88151240  1
  V  V25  1  0.87619171  0.11872832  0.74243214  1
  V  V26  1  0.36981387  0.87927847  0.00280700  1
  V  V27  1  0.25354699  0.12084166  0.87698925  1
  V  V28  1  0.62783357  0.62746250  0.50158158  1
  V  V29  1  -0.00250229  0.50694503  0.51517944  1
  V  V30  1  0.12604512  0.24895037  0.37645519  1
  V  V31  1  0.87607102  0.49874816  0.37529999  1
  V  V32  1  0.12655199  0.38605868  0.25195565  1
  V  V33  1  0.37664750  0.25167938  0.12865746  1
  V  V34  1  0.24756280  0.12216590  0.37299029  1
  V  V35  1  0.00309486  0.24564699  0.24117994  1
  V  V36  1  0.50046032  0.12608131  0.62577405  1
  V  V37  1  0.74858453  0.37447359  0.62363529  1
  V  V38  1  -0.00282195  0.49076000  0.00694848  1
  V  V39  1  0.75296653  0.12276390  0.36427381  1
  V  V40  1  0.36731975  0.75403660  0.62690190  1
  V  V41  1  0.62694463  0.13038384  0.49604642  1
  V  V42  1  0.62544874  0.75150406  0.87649817  1
  V  V43  1  0.32417695  0.42643019  -0.05170230  1
  V  V44  1  0.50482776  0.62607378  0.12756945  1
  V  V45  1  0.74915841  0.50153726  0.74880035  1
  V  V46  1  0.50282566  0.00318224  0.49885264  1
  V  V47  1  0.75260304  0.74923922  0.00597416  1
  V  V48  1  0.00137305  0.37575845  0.37737796  1
  V  V49  1  0.62485331  0.24766495  0.87349189  1
  V  V50  1  0.62599803  0.62469833  0.00187727  1
  V  V51  1  0.50345090  0.87837841  0.37371056  1
  V  V52  1  0.49800702  0.25135438  0.75006035  1
  V  V53  1  0.75327538  0.76124416  0.50399634  1
  V  V54  1  0.63575272  0.00207842  0.62831244  1
  V  V55  1  0.50131954  0.11900970  0.12639743  1
  V  V56  1  0.87354257  -0.00943414  0.37093296  1
  V  V57  1  0.75090462  0.62648395  0.37534934  1
  V  V58  1  0.49780190  0.37432253  0.36966195  1
  V  V59  1  0.87236556  0.48992999  0.88012097  1
  V  V60  1  0.87961050  0.24571779  0.62213265  1
  V  V61  1  0.49620615  0.49956288  0.49251765  1
  V  V62  1  0.49806878  0.87859585  0.87569533  1
  V  V63  1  0.00544904  0.62390445  0.12221245  1
  V  V64  1  0.87500632  -0.00414631  0.86950788  1
  V  V65  1  0.13402904  0.37654045  0.73734148  1
  V  V66  1  -0.00685797  0.00138459  0.50848375  1
  V  V67  1  0.37763898  0.62546704  0.26153259  1
  V  V68  1  0.11824953  0.00924985  0.13127466  1
  V  V69  1  0.00066057  0.24613562  0.74748362  1
  V  V70  1  0.14441989  0.00025799  0.63356278  1
  V  V71  1  0.87993148  0.12134327  0.24037681  1
  V  V72  1  0.49792051  0.62613924  0.62596513  1
  V  V73  1  0.88380288  0.62920141  0.74416882  1
  V  V74  1  0.75191188  0.62551966  0.87538635  1
  V  V75  1  0.49802458  -0.00067100  -0.00198339  1
  V  V76  1  0.00565213  0.86592462  0.86905845  1
  V  V77  1  0.25527241  0.24688331  0.00275456  1
  V  V78  1  0.63416812  0.87954975  0.75164109  1
  V  V79  1  0.50239244  0.74978266  0.75004861  1
  V  V80  1  0.36648398  0.61389438  0.75727422  1
  V  V81  1  0.75109113  0.24900778  0.49776312  1
  V  V82  1  0.74979100  0.11773042  0.86782776  1
  V  V83  1  0.23664509  0.87225596  0.12785293  1
  V  V84  1  0.25482315  0.50147862  0.26283468  1
  Zn  Zn85  1  0.16678155  0.55334413  0.06233454  1
  Zn  Zn86  1  0.87810862  0.75229759  0.12812613  1
  Zn  Zn87  1  0.11739987  0.12439044  0.50910087  1
  Zn  Zn88  1  0.10225895  0.64637905  0.50534618  1
  Zn  Zn89  1  0.62295708  0.37752197  0.74925389  1
  Zn  Zn90  1  0.36781591  0.25771099  0.62694807  1
  Zn  Zn91  1  0.62590713  0.50101391  0.62408091  1
  Zn  Zn92  1  0.50103233  0.49704362  -0.00165278  1
  Zn  Zn93  1  0.13597236  0.87602595  0.75103756  1
  Zn  Zn94  1  0.63329753  0.26087806  0.35887119  1
  Zn  Zn95  1  0.12091267  0.12771544  0.00448518  1
  Zn  Zn96  1  -0.00785324  0.36734709  0.87986965  1
  Zn  Zn97  1  0.34417906  0.41168038  0.52195820  1
  Zn  Zn98  1  0.50922401  0.25410823  0.24537483  1
  Zn  Zn99  1  0.87351626  0.37311853  0.49870544  1
  Zn  Zn100  1  0.23947019  0.72953549  0.00684940  1
  Zn  Zn101  1  0.37627748  0.12582806  0.25038050  1
  Zn  Zn102  1  0.75658165  0.87798567  0.62748001  1
  Zn  Zn103  1  0.50301809  0.75451397  0.24954471  1
  Zn  Zn104  1  0.88662685  0.25227266  0.11548110  1
  Zn  Zn105  1  0.75396134  0.37089662  0.12607753  1
  Zn  Zn106  1  0.24006215  0.62767904  0.38034909  1
  Zn  Zn107  1  0.18810621  0.18766147  0.19198659  1
  Zn  Zn108  1  0.18430632  0.18053582  0.68762663  1
  Zn  Zn109  1  0.18957692  0.68556428  0.19197045  1
  Zn  Zn110  1  0.18060255  0.69519759  0.69115336  1
  Zn  Zn111  1  0.68695244  0.18369526  0.18390849  1
  Zn  Zn112  1  0.68951927  0.18728057  0.68741309  1
  Zn  Zn113  1  0.69021909  0.68632071  0.18890523  1
  Zn  Zn114  1  0.69001714  0.68954960  0.68710054  1
  Zn  Zn115  1  0.32086701  0.31583247  0.32082146  1
  Zn  Zn116  1  0.30973368  0.30723162  0.80802159  1
  Zn  Zn117  1  0.31524035  0.81550371  0.31305508  1
  Zn  Zn118  1  0.30589811  0.77889966  0.81515543  1
  Zn  Zn119  1  0.81689619  0.30919242  0.30803423  1
  Zn  Zn120  1  0.80961772  0.30936802  0.80839726  1
  Zn  Zn121  1  0.81100368  0.81312710  0.30782541  1
  Zn  Zn122  1  0.81522029  0.80943349  0.81197738  1
  Zn  Zn123  1  0.18843714  0.44334950  0.45303264  1
  Zn  Zn124  1  0.15586314  0.46548287  0.88987265  1
  Zn  Zn125  1  0.18668650  0.93951540  0.44800514  1
  Zn  Zn126  1  0.18134012  0.93287145  0.94830530  1
  Zn  Zn127  1  0.68336905  0.43695416  0.43634088  1
  Zn  Zn128  1  0.68311688  0.43681460  0.93655436  1
  Zn  Zn129  1  0.68969324  0.94236021  0.43539574  1
  Zn  Zn130  1  0.68947744  0.93715829  0.93811867  1
  Zn  Zn131  1  0.31160567  0.06143695  0.06598026  1
  Zn  Zn132  1  0.31363799  0.06858392  0.56087305  1
  Zn  Zn133  1  0.32607710  0.56100787  0.07718657  1
  Zn  Zn134  1  0.22529211  0.56596546  0.58790612  1
  Zn  Zn135  1  0.81605915  0.06774871  0.05797861  1
  Zn  Zn136  1  0.81439818  0.06150857  0.55607214  1
  Zn  Zn137  1  0.81633885  0.56065846  0.06561052  1
  Zn  Zn138  1  0.81483836  0.56513703  0.56193871  1
  Zn  Zn139  1  0.43599719  0.44020507  0.18883995  1
  Zn  Zn140  1  0.43633581  0.43824376  0.68470621  1
  Zn  Zn141  1  0.43674886  0.93940907  0.18872603  1
  Zn  Zn142  1  0.44909542  0.93638405  0.68392019  1
  Zn  Zn143  1  0.93367124  0.43256915  0.18636551  1
  Zn  Zn144  1  0.93318447  0.42898209  0.69400339  1
  Zn  Zn145  1  0.93835172  0.93372573  0.19052567  1
  Zn  Zn146  1  0.93822704  0.93248702  0.68929649  1
  Zn  Zn147  1  0.06046230  0.06082527  0.31460757  1
  Zn  Zn148  1  0.06273900  0.06153963  0.81038302  1
  Zn  Zn149  1  0.06478112  0.56891931  0.32419415  1
  Zn  Zn150  1  0.05035746  0.55734504  0.80533849  1
  Zn  Zn151  1  0.56397999  0.06991830  0.31160027  1
  Zn  Zn152  1  0.55912463  0.05987602  0.81289033  1
  Zn  Zn153  1  0.56460010  0.56232323  0.31213904  1
  Zn  Zn154  1  0.56169934  0.56246364  0.81274878  1
  Zn  Zn155  1  0.43884885  0.19043001  0.43248118  1
  Zn  Zn156  1  0.43525301  0.18736164  0.93850647  1
  Zn  Zn157  1  0.44000885  0.69211305  0.44135311  1
  Zn  Zn158  1  0.43659079  0.68835138  0.94054363  1
  Zn  Zn159  1  0.93751904  0.18311844  0.43227641  1
  Zn  Zn160  1  0.93732912  0.18122851  0.93203442  1
  Zn  Zn161  1  0.93635832  0.69185924  0.43783840  1
  Zn  Zn162  1  0.93895186  0.68252402  0.93829863  1
  Zn  Zn163  1  0.07020091  0.31943896  0.06209314  1
  Zn  Zn164  1  0.06162281  0.31323790  0.55999908  1
  Zn  Zn165  1  0.05918918  0.80974187  0.05938560  1
  Zn  Zn166  1  0.06341337  0.82811877  0.56410410  1
  Zn  Zn167  1  0.56649397  0.30624768  0.06162118  1
  Zn  Zn168  1  0.55918660  0.31531847  0.56264291  1
  Zn  Zn169  1  0.56398360  0.81523991  0.06477977  1
  Zn  Zn170  1  0.56385679  0.81457257  0.56290995  1
  O  O171  1  0.12910410  0.11272971  0.12547078  1
  O  O172  1  0.12331263  0.10745511  0.62556100  1
  O  O173  1  0.10952747  0.62119391  0.13647464  1
  O  O174  1  0.13879022  0.62613894  0.61491379  1
  O  O175  1  0.61517914  0.12613674  0.11145734  1
  O  O176  1  0.62242702  0.11932088  0.61979047  1
  O  O177  1  0.61979019  0.62048332  0.12132415  1
  O  O178  1  0.61749071  0.62951328  0.61685778  1
  O  O179  1  0.39417277  0.37259303  0.39050999  1
  O  O180  1  0.37961399  0.36895392  0.88029917  1
  O  O181  1  0.38481855  0.88225255  0.38226044  1
  O  O182  1  0.37398710  0.87600681  0.88208020  1
  O  O183  1  0.88336472  0.38225793  0.37313792  1
  O  O184  1  0.87180580  0.38666865  0.86747283  1
  O  O185  1  0.87224384  0.88861712  0.36853059  1
  O  O186  1  0.88266747  0.87868435  0.87853117  1
  O  O187  1  0.25189701  0.00312151  0.37093092  1
  O  O188  1  0.24967719  0.00457283  0.88209154  1
  O  O189  1  0.24699502  0.50081085  0.36503047  1
  O  O190  1  0.26762063  0.48566668  0.89350202  1
  O  O191  1  0.76061977  0.01179855  0.37980522  1
  O  O192  1  0.76403997  0.00497611  0.87921607  1
  O  O193  1  0.75515492  0.50582689  0.37049939  1
  O  O194  1  0.75361435  0.50440521  0.86933737  1
  O  O195  1  0.24760633  0.49179355  0.13820285  1
  O  O196  1  0.25202722  0.47425064  0.54394664  1
  O  O197  1  0.24166682  0.99311498  0.13400772  1
  O  O198  1  0.24309577  1.00109834  0.62234100  1
  O  O199  1  0.74386865  0.49964512  0.13371689  1
  O  O200  1  0.75147148  0.49240907  0.63098909  1
  O  O201  1  0.75114427  0.99117859  0.11449221  1
  O  O202  1  0.73956129  0.99766408  0.61823691  1
  O  O203  1  0.00928255  0.37061144  0.25975924  1
  O  O204  1  0.00306522  0.35941040  0.75558637  1
  O  O205  1  -0.00425607  0.86497872  0.26474773  1
  O  O206  1  -0.00048987  0.87569270  0.76806907  1
  O  O207  1  0.49432260  0.37743372  0.26520967  1
  O  O208  1  0.50130712  0.36584628  0.76039764  1
  O  O209  1  0.51050750  0.87635261  0.25480929  1
  O  O210  1  0.51136532  0.86976956  0.75718870  1
  O  O211  1  0.49669400  0.12624768  0.23888897  1
  O  O212  1  0.48955790  0.13055389  0.74967465  1
  O  O213  1  0.49717187  0.62826670  0.24215924  1
  O  O214  1  0.50256904  0.63211280  0.74150086  1
  O  O215  1  0.99358216  0.13460559  0.25535867  1
  O  O216  1  0.98927985  0.13592106  0.75510976  1
  O  O217  1  0.99349380  0.63106073  0.24915715  1
  O  O218  1  0.98229259  0.62192838  0.74405976  1
  O  O219  1  0.36312289  0.24524488  0.01069144  1
  O  O220  1  0.35948332  0.23216057  0.50404208  1
  O  O221  1  0.37492033  0.75920482  0.01327781  1
  O  O222  1  0.37514934  0.76228806  0.50783701  1
  O  O223  1  0.86128279  0.24022043  -0.00424701  1
  O  O224  1  0.87128748  0.24700860  0.50683500  1
  O  O225  1  0.86810437  0.75490353  0.00107952  1
  O  O226  1  0.86601474  0.74445300  0.51449550  1
  O  O227  1  0.12919758  0.24485291  0.49022936  1
  O  O228  1  0.13599328  0.24754427  0.99493885  1
  O  O229  1  0.14301960  0.76323789  0.50828790  1
  O  O230  1  0.12191559  0.75164147  0.98421249  1
  O  O231  1  0.62948669  0.23875304  0.50229471  1
  O  O232  1  0.63132512  0.23744749  0.98762769  1
  O  O233  1  0.63098531  0.74458436  0.49118034  1
  O  O234  1  0.63268959  0.74539943  0.99674493  1
  O  O235  1  0.49141599  0.24107455  0.12102407  1
  O  O236  1  0.50707357  0.24324676  0.63942812  1
  O  O237  1  0.49471983  0.74425550  0.12742865  1
  O  O238  1  0.49787824  0.74545345  0.62948542  1
  O  O239  1  1.00758818  0.25421332  0.13786347  1
  O  O240  1  0.98699769  0.25176081  0.62949146  1
  O  O241  1  0.99835262  0.74288497  0.13393747  1
  O  O242  1  0.98791825  0.75392700  0.61549291  1
  O  O243  1  0.00801831  0.25716283  0.37011607  1
  O  O244  1  0.00740323  0.24704413  0.86902712  1
  O  O245  1  -0.00459532  0.76586343  0.37229814  1
  O  O246  1  0.00595263  0.76095600  0.88102748  1
  O  O247  1  0.50396949  0.26177930  0.37306264  1
  O  O248  1  0.50598410  0.25110856  0.86721420  1
  O  O249  1  0.51191712  0.75982854  0.37485369  1
  O  O250  1  0.50759514  0.75804755  0.87268952  1
  O  O251  1  0.24253278  0.12805924  0.48734620  1
  O  O252  1  0.24809800  0.13057290  0.99462487  1
  O  O253  1  0.26341640  0.65117884  0.49792179  1
  O  O254  1  0.24836546  0.61827224  1.02285638  1
  O  O255  1  0.74462643  0.13071012  0.49079939  1
  O  O256  1  0.74327078  0.12927366  0.98699654  1
  O  O257  1  0.74421929  0.63426728  0.49487370  1
  O  O258  1  0.74847016  0.63161943  0.99606406  1
  O  O259  1  0.25725047  0.36910228  0.00886826  1
  O  O260  1  0.25303903  0.34323116  0.47660756  1
  O  O261  1  0.25676978  0.87200127  0.01168334  1
  O  O262  1  0.26662282  0.87094085  0.49744264  1
  O  O263  1  0.74472060  0.35641215  -0.00585327  1
  O  O264  1  0.75164532  0.36863792  0.50638858  1
  O  O265  1  0.75479526  0.86716089  0.00608187  1
  O  O266  1  0.74362292  0.86364827  0.50099536  1
  O  O267  1  0.12882039  0.48919935  0.25681439  1
  O  O268  1  0.12466483  0.47732171  0.77338148  1
  O  O269  1  0.13207890  1.00078943  0.24444352  1
  O  O270  1  0.12552562  0.99870843  0.73896931  1
  O  O271  1  0.63644661  0.50867475  0.23964923  1
  O  O272  1  0.63818472  0.50070055  0.74720330  1
  O  O273  1  0.62701629  0.99271137  0.25379610  1
  O  O274  1  0.62047704  0.99286516  0.74023143  1
  O  O275  1  0.36517714  0.00103064  0.25765804  1
  O  O276  1  0.37956543  0.00355864  0.75163597  1
  O  O277  1  0.36715262  0.51328222  0.24634492  1
  O  O278  1  0.37961488  0.51490066  0.74659184  1
  O  O279  1  0.88319888  0.01050311  0.25715342  1
  O  O280  1  0.88006630  0.00700046  0.75671363  1
  O  O281  1  0.87087228  0.50899476  0.25981202  1
  O  O282  1  0.86497468  0.50800731  0.75474340  1
  O  O283  1  0.11921097  0.36917930  0.37213915  1
  O  O284  1  0.12111705  0.35555521  0.87118000  1
  O  O285  1  0.11514975  0.88075902  0.37594543  1
  O  O286  1  0.11044640  0.87905880  0.87575116  1
  O  O287  1  0.60873775  0.37256707  0.38216013  1
  O  O288  1  0.61910650  0.36364756  0.87100950  1
  O  O289  1  0.62451891  0.87144338  0.36721877  1
  O  O290  1  0.62111040  0.87133500  0.86985519  1
  O  O291  1  0.38195403  0.13267422  0.12604301  1
  O  O292  1  0.38321469  0.12659243  0.63453332  1
  O  O293  1  0.38800277  0.63564360  0.13738479  1
  O  O294  1  0.39132410  0.63823865  0.63579149  1
  O  O295  1  0.87217875  0.13080841  0.13612474  1
  O  O296  1  0.86602610  0.13002744  0.63541008  1
  O  O297  1  0.88479125  0.62533632  0.13629343  1
  O  O298  1  0.86648707  0.63621193  0.63717409  1
  O  O299  1  0.25626463  0.25353737  0.12089205  1
  O  O300  1  0.24628294  0.24160421  0.60858780  1
  O  O301  1  0.25676422  0.75766103  0.12778182  1
  O  O302  1  0.26557589  0.75590448  0.61959570  1
  O  O303  1  0.74690910  0.24554362  0.10344069  1
  O  O304  1  0.75814446  0.25475150  0.61989850  1
  O  O305  1  0.75201999  0.75144625  0.11395759  1
  O  O306  1  0.75339054  0.75400379  0.61628294  1
  O  O307  1  0.24425926  0.23660330  0.37315771  1
  O  O308  1  0.24569929  0.24177409  0.88412362  1
  O  O309  1  0.25458140  0.75651949  0.38904665  1
  O  O310  1  0.23344900  0.73978823  0.88920542  1
  O  O311  1  0.75201589  0.24271875  0.38114046  1
  O  O312  1  0.74358806  0.24145613  0.87975047  1
  O  O313  1  0.74578093  0.74660693  0.38169303  1
  O  O314  1  0.74599295  0.74685267  0.88662595  1
  O  O315  1  0.00068925  0.10945597  -0.00436182  1
  O  O316  1  0.00241906  0.10569504  0.48863044  1
  O  O317  1  -0.00664813  0.61284204  0.01240142  1
  O  O318  1  -0.01132245  0.61213609  0.50235519  1
  O  O319  1  0.50645178  0.11959398  0.00284403  1
  O  O320  1  0.50886575  0.12306847  0.50290462  1
  O  O321  1  0.50415386  0.62393236  0.01293435  1
  O  O322  1  0.51040179  0.62322982  0.50496594  1
  O  O323  1  0.50914187  0.39390210  0.49643617  1
  O  O324  1  0.50633620  0.37029418  0.98609233  1
  O  O325  1  0.49716837  0.88390644  0.49342937  1
  O  O326  1  0.49197110  0.87898222  0.99649858  1
  O  O327  1  0.99359113  0.37832262  0.48885219  1
  O  O328  1  0.99656650  0.38488735  1.00074903  1
  O  O329  1  0.99980167  0.88654414  0.48531236  1
  O  O330  1  0.99287567  0.88355840  0.99205902  1
  O  O331  1  0.50929514  0.49340648  0.38442499  1
  O  O332  1  0.50765364  0.48690140  0.87870625  1
  O  O333  1  0.49696547  0.99929853  0.38057905  1
  O  O334  1  0.49998941  0.99124218  0.88393602  1
  O  O335  1  0.98950274  0.49199195  0.37702061  1
  O  O336  1  0.98708806  0.49578532  0.88466570  1
  O  O337  1  0.99414438  0.98793156  0.37809632  1
  O  O338  1  0.99138623  0.99259043  0.88139079  1
  O  O339  1  0.00898708  -0.00958230  0.11772834  1
  O  O340  1  -0.00954427  -0.00438915  0.60921248  1
  O  O341  1  -0.00587137  0.50366781  0.11363996  1
  O  O342  1  -0.01764578  0.49219492  0.61248778  1
  O  O343  1  0.49369566  0.01207532  0.11683368  1
  O  O344  1  0.51272385  0.00814792  0.61730718  1
  O  O345  1  0.50932451  0.50715044  0.12501528  1
  O  O346  1  0.50716833  0.51094746  0.61438138  1
  O  O347  1  0.24760918  0.38092892  0.25007934  1
  O  O348  1  0.23322943  0.36346617  0.74703209  1
  O  O349  1  0.25404317  0.88532567  0.24323198  1
  O  O350  1  0.25933130  0.87924754  0.76927309  1
  O  O351  1  0.75164645  0.38868840  0.25438690  1
  O  O352  1  0.74832759  0.38272676  0.74188592  1
  O  O353  1  0.74192537  0.87240074  0.23719665  1
  O  O354  1  0.73727583  0.87122580  0.75195318  1
  O  O355  1  0.25099796  0.11346769  0.25888769  1
  O  O356  1  0.26345721  0.12837993  0.75783848  1
  O  O357  1  0.25927832  0.61942368  0.25566952  1
  O  O358  1  0.26816737  0.63260774  0.74400275  1
  O  O359  1  0.76039893  0.12922009  0.25860879  1
  O  O360  1  0.75769156  0.12850011  0.76150935  1
  O  O361  1  0.75934079  0.61880256  0.25653147  1
  O  O362  1  0.75413177  0.61825241  0.75604729  1
  O  O363  1  0.36641752  0.11777823  0.37310884  1
  O  O364  1  0.36241275  0.12641528  0.86997891  1
  O  O365  1  0.37772798  0.63676971  0.36268154  1
  O  O366  1  0.38364110  0.63442143  0.85639262  1
  O  O367  1  0.86913894  0.11682105  0.36478128  1
  O  O368  1  0.86810255  0.11511140  0.86457576  1
  O  O369  1  0.87083451  0.61866747  0.36942506  1
  O  O370  1  0.86944988  0.61943113  0.86332641  1
  O  O371  1  0.14213983  0.36765608  0.13863908  1
  O  O372  1  0.11676528  0.37452652  0.63918617  1
  O  O373  1  0.13448951  0.88066039  0.11991022  1
  O  O374  1  0.12250005  0.89306562  0.63440956  1
  O  O375  1  0.63022377  0.38612800  0.11820566  1
  O  O376  1  0.63717085  0.37537748  0.62766702  1
  O  O377  1  0.63439995  0.87283987  0.13453171  1
  O  O378  1  0.62610813  0.88472033  0.63347407  1
  O  O379  1  0.12191871  0.25694410  0.26125489  1
  O  O380  1  0.11727174  0.25179867  0.75443482  1
  O  O381  1  0.11412035  0.74903091  0.25114161  1
  O  O382  1  0.13154069  0.75904188  0.77145436  1
  O  O383  1  0.62277845  0.24770968  0.24680205  1
  O  O384  1  0.61921103  0.24711189  0.76110199  1
  O  O385  1  0.62736960  0.75333669  0.26194600  1
  O  O386  1  0.62128960  0.75730365  0.75637468  1
  O  O387  1  0.37696984  0.24803997  0.23906377  1
  O  O388  1  0.38298920  0.24073901  0.74804640  1
  O  O389  1  0.37860351  0.74833114  0.23979778  1
  O  O390  1  0.38660976  0.75097233  0.74154030  1
  O  O391  1  0.88860537  0.23959835  0.25148702  1
  O  O392  1  0.88010171  0.24148630  0.74297243  1
  O  O393  1  0.87931871  0.73784731  0.25106159  1
  O  O394  1  0.87052117  0.73688177  0.74062527  1
  O  O395  1  0.39997255  0.51451849  0.49397548  1
  O  O396  1  0.38248723  0.48774017  1.00708337  1
  O  O397  1  0.38148177  0.99649514  0.49590534  1
  O  O398  1  0.37846715  0.98597964  1.00640426  1
  O  O399  1  0.87682428  0.49799369  0.48792500  1
  O  O400  1  0.88236113  0.50217467  0.99097129  1
  O  O401  1  0.88561299  1.00270768  0.48810359  1
  O  O402  1  0.88137608  0.99513211  0.99217053  1
  O  O403  1  0.11591132  0.00339516  0.01098678  1
  O  O404  1  0.11416284  -0.00060401  0.51455925  1
  O  O405  1  0.10403017  0.49393994  -0.00986262  1
  O  O406  1  0.09606880  0.49652179  0.49909374  1
  O  O407  1  0.61874573  0.01069675  -0.00732788  1
  O  O408  1  0.62310831  0.01243226  0.50484254  1
  O  O409  1  0.62616656  0.50836527  0.00914249  1
  O  O410  1  0.62554112  0.51754208  0.50108848  1
  O  O411  1  0.36357777  0.36678842  0.13200793  1
  O  O412  1  0.39163973  0.36648936  0.61404350  1
  O  O413  1  0.36795228  0.86921282  0.12142464  1
  O  O414  1  0.38767965  0.86867639  0.61484046  1
  O  O415  1  0.86672229  0.36270834  0.13361547  1
  O  O416  1  0.86294769  0.36345210  0.62503606  1
  O  O417  1  0.86605790  0.87284494  0.12016347  1
  O  O418  1  0.87159683  0.85701204  0.63481099  1
  O  O419  1  0.13171473  0.13255050  0.37427481  1
  O  O420  1  0.13609190  0.13264586  0.87416647  1
  O  O421  1  0.12654840  0.62765704  0.39365688  1
  O  O422  1  0.11277223  0.63104634  0.87060501  1
  O  O423  1  0.63544829  0.12770279  0.38176602  1
  O  O424  1  0.63211391  0.12779177  0.87681491  1
  O  O425  1  0.63008436  0.63537817  0.38086279  1
  O  O426  1  0.63140333  0.63118235  0.88217356  1
