# generated using pymatgen
data_V85Zn86O256
_symmetry_space_group_name_H-M   'P 1'
_cell_length_a   16.93563268
_cell_length_b   16.92802937
_cell_length_c   16.92435582
_cell_angle_alpha   89.97501947
_cell_angle_beta   90.02071157
_cell_angle_gamma   89.98586808
_symmetry_Int_Tables_number   1
_chemical_formula_structural   V85Zn86O256
_chemical_formula_sum   'V85 Zn86 O256'
_cell_volume   4851.98996270
_cell_formula_units_Z   1
loop_
 _symmetry_equiv_pos_site_id
 _symmetry_equiv_pos_as_xyz
  1  'x, y, z'
loop_
 _atom_site_type_symbol
 _atom_site_label
 _atom_site_symmetry_multiplicity
 _atom_site_fract_x
 _atom_site_fract_y
 _atom_site_fract_z
 _atom_site_occupancy
  V  V0  1  0.13704010  0.49486879  0.62799962  1
  V  V1  1  0.62510264  0.25093667  0.87546011  1
  V  V2  1  0.86962775  0.25222518  0.62567459  1
  V  V3  1  0.80824176  -0.05196483  0.81545434  1
  V  V4  1  0.50018239  0.12772352  0.12611390  1
  V  V5  1  0.49882615  0.37915188  0.87730520  1
  V  V6  1  0.24535720  0.25087023  -0.00355390  1
  V  V7  1  0.36651693  0.38174256  0.50441045  1
  V  V8  1  0.87717792  0.50525816  0.86960885  1
  V  V9  1  0.62934579  0.25267292  0.38412396  1
  V  V10  1  0.26298868  0.12276750  0.87124350  1
  V  V11  1  0.87483294  0.24791509  0.12629547  1
  V  V12  1  -0.00311665  0.61637989  0.62871092  1
  V  V13  1  0.75201226  0.50572980  0.74514403  1
  V  V14  1  0.74978393  -0.00445499  0.25269690  1
  V  V15  1  0.75279491  0.87818709  0.62412745  1
  V  V16  1  0.86954950  0.37121010  0.48650447  1
  V  V17  1  -0.00081804  0.74585439  0.75590812  1
  V  V18  1  0.62896983  0.00387101  0.63162604  1
  V  V19  1  0.12747979  0.00030270  0.62649296  1
  V  V20  1  0.37456214  0.37882515  0.00298103  1
  V  V21  1  0.49738042  0.87692919  0.87493249  1
  V  V22  1  0.87741144  0.87277843  0.49910808  1
  V  V23  1  0.75023205  0.37918905  0.13344334  1
  V  V24  1  0.75131382  0.12753117  0.38211479  1
  V  V25  1  0.62515039  0.87497804  0.75293701  1
  V  V26  1  0.00317398  0.74808350  0.25519873  1
  V  V27  1  0.74908086  0.24998962  0.00249374  1
  V  V28  1  0.62489912  0.37850257  0.74720040  1
  V  V29  1  0.49901083  0.37997320  0.38345677  1
  V  V30  1  0.50052253  0.62517839  0.13356244  1
  V  V31  1  0.25134399  0.88239314  0.12626951  1
  V  V32  1  0.13251376  0.87361680  0.25585173  1
  V  V33  1  0.61906868  0.74155566  0.88397166  1
  V  V34  1  0.50282726  0.25424429  0.25371649  1
  V  V35  1  0.00183217  0.36826644  0.86882151  1
  V  V36  1  0.49895436  0.61549477  0.62074393  1
  V  V37  1  0.12259801  0.26603889  0.37358472  1
  V  V38  1  0.62294474  -0.00349124  0.13291836  1
  V  V39  1  0.50712608  0.76041751  0.25105631  1
  V  V40  1  0.75720293  0.12574018  0.87051325  1
  V  V41  1  0.87360122  0.61214397  0.25140954  1
  V  V42  1  0.12597471  0.62963995  0.49211869  1
  V  V43  1  0.48988583  0.12488926  0.63013351  1
  V  V44  1  0.01043432  0.62111972  0.12392083  1
  V  V45  1  0.12374138  0.12469223  -0.00998373  1
  V  V46  1  0.25248123  0.87095096  0.62281864  1
  V  V47  1  0.49528979  0.00181859  -0.00487453  1
  V  V48  1  0.37367106  0.74709963  0.13066533  1
  V  V49  1  0.87465209  0.37581124  -0.00193013  1
  V  V50  1  0.62565925  0.12603869  0.00197758  1
  V  V51  1  0.87483554  0.74132238  0.62485113  1
  V  V52  1  0.87739949  0.74913261  0.12310501  1
  V  V53  1  0.00327141  0.87135873  0.37349385  1
  V  V54  1  0.74652401  0.87129694  0.12780483  1
  V  V55  1  0.37050917  0.12401684  0.25097078  1
  V  V56  1  0.49742399  0.74738731  0.74615313  1
  V  V57  1  0.00069334  0.12239472  0.12568846  1
  V  V58  1  0.49274620  0.24808608  0.75141532  1
  V  V59  1  -0.00336581  0.49000745  0.48960392  1
  V  V60  1  0.62055125  0.62387946  0.49518087  1
  V  V61  1  0.24497684  0.12409830  0.37156523  1
  V  V62  1  0.37831965  0.50832264  0.36522499  1
  V  V63  1  0.36043996  0.50612616  0.87442208  1
  V  V64  1  0.37469130  0.25401851  0.12762896  1
  V  V65  1  0.12479568  0.12818048  0.50082523  1
  V  V66  1  0.00244357  -0.00118191  0.49878575  1
  V  V67  1  0.50255871  0.51310270  -0.00088034  1
  V  V68  1  0.75454108  0.61568429  0.37113273  1
  V  V69  1  0.26328071  0.00195953  0.75392038  1
  V  V70  1  0.00748698  0.49863547  0.00141048  1
  V  V71  1  0.74163005  0.61632883  0.88576149  1
  V  V72  1  0.24743805  0.74587654  -0.00523612  1
  V  V73  1  0.23628252  0.37645039  0.13312915  1
  V  V74  1  0.36820271  0.87973828  -0.00620847  1
  V  V75  1  0.36054910  0.62309717  0.75042573  1
  V  V76  1  0.62965183  0.50565410  0.12710257  1
  V  V77  1  0.13740652  0.36942485  0.74830055  1
  V  V78  1  0.87603050  -0.00064301  0.37393661  1
  V  V79  1  0.00442367  0.26023182  0.25272736  1
  V  V80  1  0.50170100  0.00011973  0.50165055  1
  V  V81  1  0.12139739  0.87379456  0.75688583  1
  V  V82  1  0.23680633  0.50539982  0.24665290  1
  V  V83  1  0.37432321  0.00158482  0.37470044  1
  V  V84  1  0.12767212  0.00249351  0.13077638  1
  Zn  Zn85  1  0.62435299  0.49740799  0.61545202  1
  Zn  Zn86  1  0.24710073  0.25617516  0.50543476  1
  Zn  Zn87  1  0.24988621  0.63512857  0.36203279  1
  Zn  Zn88  1  0.74990629  0.74864420  0.49562140  1
  Zn  Zn89  1  0.74443273  0.74339730  0.00611288  1
  Zn  Zn90  1  0.37300388  0.74734544  0.61976151  1
  Zn  Zn91  1  -0.00166085  0.12699813  0.62815107  1
  Zn  Zn92  1  0.50766635  0.88289723  0.36862582  1
  Zn  Zn93  1  0.62957151  0.38210145  0.25466806  1
  Zn  Zn94  1  0.24970219  0.75454207  0.48706613  1
  Zn  Zn95  1  -0.01485999  -0.00734882  -0.02332272  1
  Zn  Zn96  1  0.00169681  0.24835499  0.74945172  1
  Zn  Zn97  1  0.37594208  0.87322985  0.49757114  1
  Zn  Zn98  1  0.87407576  0.12261043  0.74895914  1
  Zn  Zn99  1  0.87702624  0.12406550  0.25147248  1
  Zn  Zn100  1  0.87468174  0.87690868  -0.00524155  1
  Zn  Zn101  1  0.12667656  0.73818516  0.87171362  1
  Zn  Zn102  1  0.74699651  0.37318298  0.61779683  1
  Zn  Zn103  1  0.62850128  0.13103016  0.50693198  1
  Zn  Zn104  1  0.13573637  0.61350690  -0.00536900  1
  Zn  Zn105  1  0.63377461  0.75863700  0.37098321  1
  Zn  Zn106  1  0.36874050  0.25672772  0.62932867  1
  Zn  Zn107  1  0.18586068  0.19156331  0.18871878  1
  Zn  Zn108  1  0.19151779  0.18975634  0.68729895  1
  Zn  Zn109  1  0.18711002  0.69156142  0.18468365  1
  Zn  Zn110  1  0.18218191  0.68597052  0.68010695  1
  Zn  Zn111  1  0.68805333  0.18670980  0.19423525  1
  Zn  Zn112  1  0.68880293  0.18978722  0.68961756  1
  Zn  Zn113  1  0.68639673  0.68282740  0.18966225  1
  Zn  Zn114  1  0.68437796  0.68544139  0.68786723  1
  Zn  Zn115  1  0.31032952  0.31330082  0.31672902  1
  Zn  Zn116  1  0.31156995  0.31351813  0.81766663  1
  Zn  Zn117  1  0.31576581  0.81262731  0.31270117  1
  Zn  Zn118  1  0.31202054  0.81372601  0.81066911  1
  Zn  Zn119  1  0.81468903  0.30951549  0.31097552  1
  Zn  Zn120  1  0.81217117  0.31507258  0.80922503  1
  Zn  Zn121  1  0.81369926  0.80830126  0.31020766  1
  Zn  Zn122  1  0.80882493  0.78184393  0.80817926  1
  Zn  Zn123  1  0.18944706  0.44741442  0.43644870  1
  Zn  Zn124  1  0.18458134  0.43165879  0.93506416  1
  Zn  Zn125  1  0.19062786  0.93983092  0.43558546  1
  Zn  Zn126  1  0.15434489  0.95320921  0.92172253  1
  Zn  Zn127  1  0.68785276  0.44148853  0.43600208  1
  Zn  Zn128  1  0.68539817  0.43714328  0.94167589  1
  Zn  Zn129  1  0.68510158  0.93626849  0.44061316  1
  Zn  Zn130  1  0.68134836  0.93195972  0.94885293  1
  Zn  Zn131  1  0.31089794  0.06334450  0.06226539  1
  Zn  Zn132  1  0.30994041  0.06421004  0.56109258  1
  Zn  Zn133  1  0.31520244  0.56235564  0.06845500  1
  Zn  Zn134  1  0.31475449  0.56297741  0.55696772  1
  Zn  Zn135  1  0.81584778  0.05796855  0.05850999  1
  Zn  Zn136  1  0.81391293  0.06231421  0.56300849  1
  Zn  Zn137  1  0.81810536  0.56080624  0.06326462  1
  Zn  Zn138  1  0.81167012  0.55825851  0.55610115  1
  Zn  Zn139  1  0.43669694  0.43941758  0.19003020  1
  Zn  Zn140  1  0.43419177  0.44043931  0.69130734  1
  Zn  Zn141  1  0.43421708  0.93938172  0.18506240  1
  Zn  Zn142  1  0.43766296  0.93649224  0.68623674  1
  Zn  Zn143  1  0.93957159  0.43678410  0.18503453  1
  Zn  Zn144  1  0.93694748  0.43457515  0.68447940  1
  Zn  Zn145  1  0.93905588  0.93486320  0.18115772  1
  Zn  Zn146  1  0.94404507  0.93297035  0.68402445  1
  Zn  Zn147  1  0.06231820  0.06372333  0.30957126  1
  Zn  Zn148  1  0.06148937  0.06724353  0.80948860  1
  Zn  Zn149  1  0.06049782  0.55827420  0.31156576  1
  Zn  Zn150  1  0.06851665  0.56022463  0.81165902  1
  Zn  Zn151  1  0.56363377  0.06711756  0.31450688  1
  Zn  Zn152  1  0.56535426  0.06478682  0.81287716  1
  Zn  Zn153  1  0.56445906  0.56659861  0.31063446  1
  Zn  Zn154  1  0.55773886  0.56237796  0.80923340  1
  Zn  Zn155  1  0.43782769  0.19023799  0.44178564  1
  Zn  Zn156  1  0.43532917  0.19049972  0.93849203  1
  Zn  Zn157  1  0.43521650  0.69040888  0.43671750  1
  Zn  Zn158  1  0.43064937  0.68846453  0.93767913  1
  Zn  Zn159  1  0.93935308  0.19133034  0.43816288  1
  Zn  Zn160  1  0.93778196  0.18597728  0.93956147  1
  Zn  Zn161  1  0.93789796  0.68223577  0.43837867  1
  Zn  Zn162  1  0.93539123  0.68342014  0.93923996  1
  Zn  Zn163  1  0.06081846  0.31041925  0.06094331  1
  Zn  Zn164  1  0.05963755  0.31281097  0.56565781  1
  Zn  Zn165  1  0.06226160  0.81546742  0.06150531  1
  Zn  Zn166  1  0.06248607  0.80998745  0.56751555  1
  Zn  Zn167  1  0.56326727  0.31839886  0.06407511  1
  Zn  Zn168  1  0.55674261  0.31413759  0.56385894  1
  Zn  Zn169  1  0.56005210  0.81470561  0.06452503  1
  Zn  Zn170  1  0.56468963  0.81133737  0.55914334  1
  O  O171  1  0.12025754  0.12127044  0.12150678  1
  O  O172  1  0.12436722  0.11666448  0.61781850  1
  O  O173  1  0.11283403  0.62831814  0.11852221  1
  O  O174  1  0.11666725  0.61176324  0.61663880  1
  O  O175  1  0.61884163  0.12069782  0.12181652  1
  O  O176  1  0.61999774  0.11812895  0.62684609  1
  O  O177  1  0.61666071  0.61808493  0.12320369  1
  O  O178  1  0.61686795  0.62429573  0.61701743  1
  O  O179  1  0.38112634  0.38347368  0.37979818  1
  O  O180  1  0.38007905  0.38435873  0.88260468  1
  O  O181  1  0.38085483  0.89265593  0.37165086  1
  O  O182  1  0.38079967  0.87223312  0.88637622  1
  O  O183  1  0.87553363  0.36877011  0.38728488  1
  O  O184  1  0.87920678  0.38385169  0.87919025  1
  O  O185  1  0.88224034  0.87933857  0.37904831  1
  O  O186  1  0.85514428  0.87463925  0.86841884  1
  O  O187  1  0.25957745  0.01426638  0.37630327  1
  O  O188  1  0.24460022  0.01270716  0.86862180  1
  O  O189  1  0.25707487  0.50442401  0.35993736  1
  O  O190  1  0.26183890  0.49973811  0.88588782  1
  O  O191  1  0.75424948  0.00370269  0.36892272  1
  O  O192  1  0.74187112  0.00374055  0.87327742  1
  O  O193  1  0.74632450  0.51610882  0.37034570  1
  O  O194  1  0.75431833  0.50155836  0.87118343  1
  O  O195  1  0.25472537  0.48768152  0.13534257  1
  O  O196  1  0.23498807  0.50161817  0.61901066  1
  O  O197  1  0.24737067  0.98996688  0.12637653  1
  O  O198  1  0.24448418  0.99536844  0.63147076  1
  O  O199  1  0.74194146  0.49152681  0.11662132  1
  O  O200  1  0.74686817  0.49836097  0.63287004  1
  O  O201  1  0.74268207  0.99451860  0.13283521  1
  O  O202  1  0.74442797  0.98810735  0.62364331  1
  O  O203  1  -0.00057374  0.35967014  0.24147710  1
  O  O204  1  0.00611817  0.37393138  0.75629412  1
  O  O205  1  0.00704406  0.86693401  0.25303975  1
  O  O206  1  0.01122251  0.86155558  0.74223234  1
  O  O207  1  0.49875673  0.36455617  0.25771730  1
  O  O208  1  0.50678650  0.37205314  0.75678200  1
  O  O209  1  0.49889767  0.86409498  0.24492456  1
  O  O210  1  0.50281735  0.86746497  0.75608489  1
  O  O211  1  0.49470532  0.13805651  0.24713045  1
  O  O212  1  0.50599312  0.13644765  0.74424143  1
  O  O213  1  0.50057855  0.63657330  0.23850812  1
  O  O214  1  0.49381252  0.63263936  0.74113259  1
  O  O215  1  0.99881270  0.13278890  0.24053041  1
  O  O216  1  0.99390999  0.12973418  0.74830754  1
  O  O217  1  0.99704067  0.62982664  0.24425832  1
  O  O218  1  1.00424135  0.62829609  0.73529529  1
  O  O219  1  0.36543733  0.25629245  0.00738783  1
  O  O220  1  0.37524274  0.26903582  0.49685428  1
  O  O221  1  0.36831879  0.75904286  0.00920109  1
  O  O222  1  0.37076260  0.75563083  0.50250635  1
  O  O223  1  0.86945052  0.25538582  0.00707999  1
  O  O224  1  0.87929425  0.26326778  0.50713236  1
  O  O225  1  0.87037550  0.74854110  0.01284988  1
  O  O226  1  0.87632279  0.75543328  0.50960192  1
  O  O227  1  0.12233203  0.24292216  0.49291793  1
  O  O228  1  0.13816816  0.24112323  1.00792662  1
  O  O229  1  0.12166546  0.73207235  0.50540770  1
  O  O230  1  0.14125994  0.75392878  1.00152432  1
  O  O231  1  0.62018175  0.25122683  0.48846364  1
  O  O232  1  0.62838749  0.24616482  0.99620363  1
  O  O233  1  0.62926875  0.73813751  0.49873352  1
  O  O234  1  0.62166435  0.75351189  0.98752156  1
  O  O235  1  0.49581832  0.24792637  0.13285679  1
  O  O236  1  0.49611451  0.24256610  0.63349439  1
  O  O237  1  0.49484372  0.74565990  0.13079798  1
  O  O238  1  0.50130903  0.74648665  0.63697412  1
  O  O239  1  0.99643934  0.23973311  0.12840465  1
  O  O240  1  0.98565921  0.24764051  0.62517688  1
  O  O241  1  0.99344590  0.74128806  0.13205763  1
  O  O242  1  0.99264790  0.73902106  0.62952456  1
  O  O243  1  0.01119069  0.24484781  0.36526182  1
  O  O244  1  -0.00613946  0.26489489  0.87603224  1
  O  O245  1  -0.00450107  0.75323781  0.36305905  1
  O  O246  1  -0.00653394  0.74258957  0.85914320  1
  O  O247  1  0.50639039  0.25733571  0.36994717  1
  O  O248  1  0.50513005  0.25569443  0.87085505  1
  O  O249  1  0.49534086  0.75190616  0.35664942  1
  O  O250  1  0.50272144  0.75247872  0.86614134  1
  O  O251  1  0.23723960  0.12422451  0.49138498  1
  O  O252  1  0.24685926  0.13178197  0.99344335  1
  O  O253  1  0.23303203  0.62352748  0.49973339  1
  O  O254  1  0.25145926  0.64168470  1.01220952  1
  O  O255  1  0.74696018  0.11795674  0.48628951  1
  O  O256  1  0.74267965  0.13140116  0.99547778  1
  O  O257  1  0.74615750  0.62627626  0.48720924  1
  O  O258  1  0.74977937  0.62181621  0.98972465  1
  O  O259  1  0.25285419  0.36851433  0.00892697  1
  O  O260  1  0.26325786  0.37683368  0.49392909  1
  O  O261  1  0.25672581  0.86851287  0.00756674  1
  O  O262  1  0.25066640  0.87699076  0.50932832  1
  O  O263  1  0.75432956  0.36779225  0.00801545  1
  O  O264  1  0.76512424  0.38284780  0.49915348  1
  O  O265  1  0.75109870  0.86855911  0.01548004  1
  O  O266  1  0.75821727  0.87241162  0.51005904  1
  O  O267  1  0.13775489  0.49631692  0.25217455  1
  O  O268  1  0.12200772  0.49084609  0.73452091  1
  O  O269  1  0.12343379  0.99263563  0.23897293  1
  O  O270  1  0.13185826  0.99210580  0.73758368  1
  O  O271  1  0.61838081  0.49846634  0.23329051  1
  O  O272  1  0.62885027  0.48922374  0.75020116  1
  O  O273  1  0.63017240  1.00657559  0.23941983  1
  O  O274  1  0.61868499  0.99156231  0.73903310  1
  O  O275  1  0.38497904  0.01638421  0.25698072  1
  O  O276  1  0.36273390  -0.00290043  0.74968950  1
  O  O277  1  0.36458629  0.49541311  0.26091420  1
  O  O278  1  0.37697270  0.50961088  0.76204931  1
  O  O279  1  0.86715736  0.00044420  0.25533328  1
  O  O280  1  0.87594515  -0.00279077  0.75570025  1
  O  O281  1  0.88039079  0.51282363  0.24636828  1
  O  O282  1  0.86440714  0.49288743  0.75762018  1
  O  O283  1  0.13103434  0.36441958  0.38065110  1
  O  O284  1  0.11588503  0.38145867  0.85835755  1
  O  O285  1  0.12031317  0.88316641  0.36268784  1
  O  O286  1  0.13932592  0.85674009  0.85749044  1
  O  O287  1  0.61817465  0.37170348  0.37359354  1
  O  O288  1  0.61891005  0.37003239  0.86984321  1
  O  O289  1  0.61963586  0.87149288  0.37973265  1
  O  O290  1  0.61811497  0.86760129  0.87115499  1
  O  O291  1  0.37946563  0.13215816  0.13276856  1
  O  O292  1  0.38782650  0.12346046  0.62320894  1
  O  O293  1  0.38589035  0.63612699  0.12160983  1
  O  O294  1  0.38179645  0.62481213  0.62984608  1
  O  O295  1  0.88338650  0.12971718  0.12437014  1
  O  O296  1  0.87475676  0.13648297  0.62404793  1
  O  O297  1  0.88097184  0.63135569  0.13230293  1
  O  O298  1  0.88240657  0.63068395  0.61593420  1
  O  O299  1  0.25528482  0.26068481  0.12177615  1
  O  O300  1  0.25848833  0.24200695  0.61733236  1
  O  O301  1  0.25755072  0.76093659  0.11954478  1
  O  O302  1  0.24780754  0.76235738  0.62156417  1
  O  O303  1  0.75402114  0.25488857  0.12221062  1
  O  O304  1  0.76292503  0.25228262  0.62566446  1
  O  O305  1  0.75482919  0.75539200  0.12840015  1
  O  O306  1  0.75723492  0.75937675  0.62889691  1
  O  O307  1  0.24129458  0.23997717  0.37885700  1
  O  O308  1  0.25472903  0.23873075  0.88532780  1
  O  O309  1  0.25048437  0.74703509  0.37283018  1
  O  O310  1  0.25724496  0.75043765  0.89301589  1
  O  O311  1  0.74125763  0.24022861  0.36778224  1
  O  O312  1  0.74452516  0.24471351  0.88046386  1
  O  O313  1  0.75104558  0.74025527  0.37560413  1
  O  O314  1  0.73738119  0.73438891  0.87878857  1
  O  O315  1  0.00882735  0.12232987  0.00605367  1
  O  O316  1  0.01202921  0.11774730  0.49854990  1
  O  O317  1  -0.00248516  0.61485696  0.00845427  1
  O  O318  1  0.00734050  0.61446782  0.50648689  1
  O  O319  1  0.50322669  0.12035621  0.00575803  1
  O  O320  1  0.50358302  0.11664360  0.50942814  1
  O  O321  1  0.49544967  0.61712585  0.00719568  1
  O  O322  1  0.50682727  0.63243068  0.50920608  1
  O  O323  1  0.49306610  0.37673813  0.48736251  1
  O  O324  1  0.49276046  0.38319735  0.99646172  1
  O  O325  1  0.49802344  0.89064866  0.50437104  1
  O  O326  1  0.49168375  0.88321363  0.99618899  1
  O  O327  1  0.99184287  0.38475912  0.50227133  1
  O  O328  1  0.99489510  0.37969803  0.99404917  1
  O  O329  1  0.99861885  0.87796176  0.49436180  1
  O  O330  1  0.98761796  0.88230455  1.01709383  1
  O  O331  1  0.48806457  0.49351771  0.36298785  1
  O  O332  1  0.49581099  0.49681960  0.88420730  1
  O  O333  1  0.49465999  1.00557474  0.38462170  1
  O  O334  1  0.50788132  0.99733884  0.88900263  1
  O  O335  1  1.00114930  0.50072241  0.39094656  1
  O  O336  1  0.99149527  0.49194030  0.87895404  1
  O  O337  1  0.99565928  0.99384129  0.37905066  1
  O  O338  1  1.04868158  0.98817580  0.88422299  1
  O  O339  1  0.00816257  0.01336591  0.12938351  1
  O  O340  1  0.01012192  0.00108284  0.61730403  1
  O  O341  1  -0.00548970  0.50833495  0.11395405  1
  O  O342  1  0.00413669  0.50423451  0.61696151  1
  O  O343  1  0.50611112  0.00609369  0.11859681  1
  O  O344  1  0.50700504  0.00681172  0.62221929  1
  O  O345  1  0.50245442  0.50880147  0.12005788  1
  O  O346  1  0.50310267  0.51272183  0.63009665  1
  O  O347  1  0.25298996  0.38016763  0.23817064  1
  O  O348  1  0.23665190  0.37389277  0.75517139  1
  O  O349  1  0.24219302  0.87180901  0.24048188  1
  O  O350  1  0.24511371  0.88188933  0.74203691  1
  O  O351  1  0.75130121  0.37250097  0.23713035  1
  O  O352  1  0.73955623  0.38527471  0.74957791  1
  O  O353  1  0.75209316  0.88676450  0.24310495  1
  O  O354  1  0.75134935  0.88123701  0.75115571  1
  O  O355  1  0.26020102  0.13149668  0.25698030  1
  O  O356  1  0.24469619  0.11890636  0.76484066  1
  O  O357  1  0.24570406  0.61059375  0.24228892  1
  O  O358  1  0.26166573  0.63154334  0.74270538  1
  O  O359  1  0.75202704  0.11219503  0.25931974  1
  O  O360  1  0.75139436  0.12522295  0.76231040  1
  O  O361  1  0.75973573  0.62885560  0.26015483  1
  O  O362  1  0.74176482  0.61096868  0.76109832  1
  O  O363  1  0.36938794  0.12146694  0.37025635  1
  O  O364  1  0.36212236  0.12305076  0.88050625  1
  O  O365  1  0.37356422  0.61049326  0.37744810  1
  O  O366  1  0.37869259  0.61718926  0.86454293  1
  O  O367  1  0.86891087  0.11873524  0.37539394  1
  O  O368  1  0.86106477  0.12868631  0.87559291  1
  O  O369  1  0.86441203  0.62653691  0.36754821  1
  O  O370  1  0.86407092  0.61104311  0.87724072  1
  O  O371  1  0.13824625  0.37137276  0.12316391  1
  O  O372  1  0.12175039  0.38546606  0.63387280  1
  O  O373  1  0.13327945  0.88365937  0.13240996  1
  O  O374  1  0.13312364  0.88153089  0.63053019  1
  O  O375  1  0.63429344  0.38236730  0.12824196  1
  O  O376  1  0.62544054  0.37691155  0.63209894  1
  O  O377  1  0.63224533  0.88490774  0.12246101  1
  O  O378  1  0.63522739  0.87857440  0.63281518  1
  O  O379  1  0.11793964  0.24691576  0.26183618  1
  O  O380  1  0.12140584  0.26559141  0.74270673  1
  O  O381  1  0.11453071  0.76101628  0.24207502  1
  O  O382  1  0.11563582  0.75445156  0.74566413  1
  O  O383  1  0.61705973  0.25338940  0.26031008  1
  O  O384  1  0.61740027  0.26174062  0.75471905  1
  O  O385  1  0.60991378  0.74961443  0.24702329  1
  O  O386  1  0.61775841  0.75492036  0.75994257  1
  O  O387  1  0.38188647  0.24320232  0.24931577  1
  O  O388  1  0.38933634  0.26000500  0.75118789  1
  O  O389  1  0.38503556  0.75666258  0.23544883  1
  O  O390  1  0.38237335  0.74284388  0.74784846  1
  O  O391  1  0.88311304  0.24566396  0.24203597  1
  O  O392  1  0.87620049  0.25137053  0.73754775  1
  O  O393  1  0.88507623  0.74276409  0.24022112  1
  O  O394  1  0.88411498  0.74855265  0.73372814  1
  O  O395  1  0.37023271  0.49051605  0.48302855  1
  O  O396  1  0.38288477  0.49782439  0.99580448  1
  O  O397  1  0.38290457  1.00200852  0.49143079  1
  O  O398  1  0.38405454  0.99241507  1.00665237  1
  O  O399  1  0.88772464  0.48643992  0.50368253  1
  O  O400  1  0.88337331  0.49278870  0.99143969  1
  O  O401  1  0.88228348  0.99263143  0.49492200  1
  O  O402  1  0.87186033  0.99423390  0.98846737  1
  O  O403  1  0.13494835  0.01312127  0.01954458  1
  O  O404  1  0.12321943  0.00539472  0.50901531  1
  O  O405  1  0.11167735  0.49523556  -0.00156707  1
  O  O406  1  0.11483577  0.50217430  0.50852534  1
  O  O407  1  0.61752976  0.00635682  0.01284584  1
  O  O408  1  0.61879705  0.00247251  0.51520732  1
  O  O409  1  0.61176220  0.49320252  0.01191109  1
  O  O410  1  0.62654351  0.51645809  0.49854322  1
  O  O411  1  0.37023549  0.37053444  0.12011679  1
  O  O412  1  0.38308483  0.38073476  0.60756707  1
  O  O413  1  0.36858050  0.87153424  0.11635860  1
  O  O414  1  0.36423255  0.87394070  0.62384711  1
  O  O415  1  0.86782651  0.36965635  0.11796708  1
  O  O416  1  0.87157360  0.36455570  0.61706056  1
  O  O417  1  0.86318596  0.86385093  0.13106218  1
  O  O418  1  0.86911773  0.86862884  0.61997889  1
  O  O419  1  0.13174741  0.12594434  0.38094956  1
  O  O420  1  0.13578268  0.12997716  0.88819644  1
  O  O421  1  0.12443695  0.61783198  0.38943011  1
  O  O422  1  0.12144878  0.62650357  0.88257215  1
  O  O423  1  0.63255312  0.13481063  0.37812283  1
  O  O424  1  0.63358292  0.13151730  0.88196941  1
  O  O425  1  0.63369470  0.63099955  0.37766239  1
  O  O426  1  0.62794176  0.62976961  0.87320828  1
