# generated using pymatgen
data_V85Zn86O256
_symmetry_space_group_name_H-M   'P 1'
_cell_length_a   16.93549123
_cell_length_b   16.93173803
_cell_length_c   16.94299656
_cell_angle_alpha   90.03106786
_cell_angle_beta   89.94822029
_cell_angle_gamma   89.91970206
_symmetry_Int_Tables_number   1
_chemical_formula_structural   V85Zn86O256
_chemical_formula_sum   'V85 Zn86 O256'
_cell_volume   4858.35106138
_cell_formula_units_Z   1
loop_
 _symmetry_equiv_pos_site_id
 _symmetry_equiv_pos_as_xyz
  1  'x, y, z'
loop_
 _atom_site_type_symbol
 _atom_site_label
 _atom_site_symmetry_multiplicity
 _atom_site_fract_x
 _atom_site_fract_y
 _atom_site_fract_z
 _atom_site_occupancy
  V  V0  1  0.26296120  0.62121199  0.87414329  1
  V  V1  1  0.00162741  0.87868759  0.87311725  1
  V  V2  1  -0.00181036  0.50887752  0.50872330  1
  V  V3  1  0.37720257  0.24934938  0.62492257  1
  V  V4  1  0.63471062  -0.00103447  0.62770622  1
  V  V5  1  0.85493481  0.87176278  0.50713744  1
  V  V6  1  0.75141331  0.62099042  0.87242911  1
  V  V7  1  0.74509668  0.49521335  0.25327463  1
  V  V8  1  0.49859166  0.00264822  0.50011650  1
  V  V9  1  0.50443292  0.87318769  0.87363519  1
  V  V10  1  0.75362534  0.24571575  0.49464846  1
  V  V11  1  0.85827203  -0.00212603  0.86915546  1
  V  V12  1  0.62919273  0.50072587  0.62098960  1
  V  V13  1  0.24281928  0.37847236  0.62189574  1
  V  V14  1  0.13153143  0.12347212  -0.00475419  1
  V  V15  1  0.51021860  0.74971174  0.25254785  1
  V  V16  1  0.75302554  0.86916539  0.12724144  1
  V  V17  1  0.37566557  0.87536312  0.49881856  1
  V  V18  1  0.86789164  0.74302218  0.62534735  1
  V  V19  1  0.37336080  0.12509958  0.24966131  1
  V  V20  1  0.87695398  0.24724831  0.62756223  1
  V  V21  1  0.37391972  0.00110495  0.37345797  1
  V  V22  1  0.87485800  0.36086659  0.00633629  1
  V  V23  1  0.87713506  0.86984182  -0.00230414  1
  V  V24  1  0.62707195  0.12539831  0.49626929  1
  V  V25  1  0.87614820  0.49230800  0.87534019  1
  V  V26  1  0.23821108  0.00262737  0.24753057  1
  V  V27  1  0.75014987  0.00338787  0.25853407  1
  V  V28  1  0.49893963  0.49804735  -0.01164351  1
  V  V29  1  0.12241055  0.75128815  0.37350335  1
  V  V30  1  0.37362077  0.00462464  0.87363801  1
  V  V31  1  0.24654767  0.36952745  0.12191578  1
  V  V32  1  0.50160850  0.50196404  0.49503882  1
  V  V33  1  0.74858554  0.63720305  0.37522891  1
  V  V34  1  0.49674009  0.62491126  0.62819629  1
  V  V35  1  0.63349022  0.87772973  0.74699241  1
  V  V36  1  0.37273578  0.24947289  0.12012943  1
  V  V37  1  0.87132702  0.12798824  0.24565247  1
  V  V38  1  0.37677130  0.87629301  0.00146574  1
  V  V39  1  0.37652479  0.75250090  0.12629975  1
  V  V40  1  0.24161863  0.88089664  0.12423084  1
  V  V41  1  0.50272494  0.62300480  0.12566050  1
  V  V42  1  0.49619374  0.74717229  0.75096895  1
  V  V43  1  0.37581520  0.74879206  0.62723745  1
  V  V44  1  -0.00074736  0.74879157  0.24286482  1
  V  V45  1  0.75086608  0.49400105  0.75147981  1
  V  V46  1  0.62261727  0.49073327  0.12832931  1
  V  V47  1  0.24671132  0.13414198  0.37578211  1
  V  V48  1  0.74900953  0.74794015  -0.00164877  1
  V  V49  1  0.24658185  0.50084179  0.25104756  1
  V  V50  1  0.37319748  0.62709462  0.25140324  1
  V  V51  1  0.50682526  0.87196162  0.37500293  1
  V  V52  1  0.49477481  0.12727011  0.63361616  1
  V  V53  1  0.12603963  0.74844435  0.87449206  1
  V  V54  1  0.62917785  0.63825551  0.49507148  1
  V  V55  1  0.25321789  0.01091599  0.75141733  1
  V  V56  1  0.00301689  0.24461025  0.75794858  1
  V  V57  1  0.50389065  0.25755092  0.25069564  1
  V  V58  1  0.25142870  0.87642089  0.62533556  1
  V  V59  1  0.12686241  0.87718633  0.75084810  1
  V  V60  1  0.63359939  0.00331126  0.12512181  1
  V  V61  1  0.62749533  0.25432020  0.37266956  1
  V  V62  1  0.50956544  0.00130722  -0.00091742  1
  V  V63  1  0.25191865  0.74952796  0.00015050  1
  V  V64  1  0.24882917  0.74929379  0.49896357  1
  V  V65  1  0.60733111  0.36979304  0.75325911  1
  V  V66  1  -0.00807952  0.25248769  0.25710039  1
  V  V67  1  0.50311233  0.12225698  0.12454531  1
  V  V68  1  0.12218265  0.36472492  0.26400273  1
  V  V69  1  0.88346140  0.37214296  0.49729152  1
  V  V70  1  0.26028443  0.50626400  0.75077784  1
  V  V71  1  0.86076981  0.11879055  0.75201274  1
  V  V72  1  0.37347355  0.37740577  0.49500436  1
  V  V73  1  0.11773683  0.49937552  0.12768737  1
  V  V74  1  0.11645608  0.13010380  0.49668132  1
  V  V75  1  0.12605940  0.37253767  0.76101267  1
  V  V76  1  0.12365071  0.62279266  0.00287474  1
  V  V77  1  0.87988027  0.62206594  0.24261866  1
  V  V78  1  0.87539797  0.00847624  0.38330905  1
  V  V79  1  -0.00189764  0.50070580  0.00187406  1
  V  V80  1  0.88158853  0.49708442  0.37408510  1
  V  V81  1  0.37808546  0.38046233  -0.00776026  1
  V  V82  1  0.75296878  0.36521394  0.12793615  1
  V  V83  1  0.11822660  -0.00021027  0.61867336  1
  V  V84  1  -0.00270127  0.87878424  0.38626310  1
  Zn  Zn85  1  0.75005264  0.37365307  0.62333331  1
  Zn  Zn86  1  0.00890253  -0.00011838  0.00909725  1
  Zn  Zn87  1  0.62776127  0.61751745  -0.00080349  1
  Zn  Zn88  1  0.11564507  0.63229551  0.50744195  1
  Zn  Zn89  1  0.88533276  0.61796880  0.74205194  1
  Zn  Zn90  1  0.50486197  0.37909626  0.37012318  1
  Zn  Zn91  1  0.34298412  0.17198165  0.79853906  1
  Zn  Zn92  1  0.11721109  0.87982260  0.24693886  1
  Zn  Zn93  1  0.00519609  0.12618622  0.12555911  1
  Zn  Zn94  1  0.63127908  0.87074750  0.25489357  1
  Zn  Zn95  1  -0.00280243  0.11860776  0.62553164  1
  Zn  Zn96  1  0.62682949  0.74670711  0.87341817  1
  Zn  Zn97  1  0.23277392  0.24606378  -0.04449949  1
  Zn  Zn98  1  0.00880020  0.73682121  0.73487970  1
  Zn  Zn99  1  0.37437880  0.50107812  0.37284486  1
  Zn  Zn100  1  0.24417745  0.25487321  0.49582319  1
  Zn  Zn101  1  0.11720726  0.51323006  0.63438036  1
  Zn  Zn102  1  0.00676976  0.36660807  0.88291625  1
  Zn  Zn103  1  0.88128785  0.73947948  0.11752370  1
  Zn  Zn104  1  0.61890647  0.23530506  0.87471567  1
  Zn  Zn105  1  0.74314678  0.22382458  -0.00786977  1
  Zn  Zn106  1  0.24699318  0.62651529  0.37572980  1
  Zn  Zn107  1  0.18178528  0.18499144  0.17827464  1
  Zn  Zn108  1  0.18661194  0.19080538  0.68289907  1
  Zn  Zn109  1  0.18524215  0.68926947  0.18543779  1
  Zn  Zn110  1  0.18678693  0.68583609  0.68593180  1
  Zn  Zn111  1  0.69005335  0.18357330  0.18790531  1
  Zn  Zn112  1  0.68588175  0.18917826  0.68313208  1
  Zn  Zn113  1  0.69052874  0.67995463  0.18575476  1
  Zn  Zn114  1  0.68998142  0.68818224  0.68655633  1
  Zn  Zn115  1  0.31335680  0.31355732  0.30873771  1
  Zn  Zn116  1  0.32652435  0.33536126  0.80602810  1
  Zn  Zn117  1  0.31288557  0.81536114  0.31137001  1
  Zn  Zn118  1  0.31421161  0.81458877  0.81371502  1
  Zn  Zn119  1  0.81051606  0.31524979  0.31669801  1
  Zn  Zn120  1  0.80561912  0.30694874  0.81474836  1
  Zn  Zn121  1  0.81918785  0.81392366  0.31262917  1
  Zn  Zn122  1  0.81376919  0.80812028  0.80856022  1
  Zn  Zn123  1  0.18370468  0.44381059  0.43810721  1
  Zn  Zn124  1  0.19269992  0.43856131  0.93700149  1
  Zn  Zn125  1  0.18546538  0.93924980  0.43532439  1
  Zn  Zn126  1  0.18684137  0.94505088  0.93783189  1
  Zn  Zn127  1  0.69285823  0.43608200  0.43779139  1
  Zn  Zn128  1  0.66910277  0.39045106  0.95350457  1
  Zn  Zn129  1  0.68632820  0.93921878  0.43841287  1
  Zn  Zn130  1  0.69507220  1.06395280  0.94149440  1
  Zn  Zn131  1  0.30912929  0.06380991  0.05839765  1
  Zn  Zn132  1  0.30766193  0.06454247  0.56151539  1
  Zn  Zn133  1  0.31078956  0.56131639  0.06628223  1
  Zn  Zn134  1  0.31123838  0.56384195  0.56385420  1
  Zn  Zn135  1  0.83847573  0.05353018  0.07109778  1
  Zn  Zn136  1  0.81303776  0.06237355  0.56183775  1
  Zn  Zn137  1  0.80950789  0.55471932  0.06210047  1
  Zn  Zn138  1  0.81203786  0.56583929  0.55962675  1
  Zn  Zn139  1  0.43440161  0.43791983  0.18421279  1
  Zn  Zn140  1  0.43430083  0.44029671  0.67785640  1
  Zn  Zn141  1  0.43607298  0.93765060  0.18900293  1
  Zn  Zn142  1  0.44027450  0.93980347  0.68779658  1
  Zn  Zn143  1  0.93859173  0.43233785  0.18877564  1
  Zn  Zn144  1  0.93830262  0.43025298  0.68862397  1
  Zn  Zn145  1  0.93628239  0.93755934  0.19033220  1
  Zn  Zn146  1  0.93605540  0.93143714  0.68693150  1
  Zn  Zn147  1  0.05709250  0.06627295  0.31603200  1
  Zn  Zn148  1  0.06080871  0.06388752  0.81566490  1
  Zn  Zn149  1  0.06041077  0.56406113  0.31734345  1
  Zn  Zn150  1  0.06610644  0.55846147  0.81651333  1
  Zn  Zn151  1  0.56419390  0.06508283  0.31252244  1
  Zn  Zn152  1  0.55805074  0.06494675  0.80947900  1
  Zn  Zn153  1  0.56517221  0.56420375  0.31324382  1
  Zn  Zn154  1  0.56631967  0.55962481  0.81016320  1
  Zn  Zn155  1  0.43742682  0.18981573  0.43954900  1
  Zn  Zn156  1  0.45369486  0.19461595  0.94062100  1
  Zn  Zn157  1  0.43824968  0.68780283  0.43622918  1
  Zn  Zn158  1  0.44154666  0.68546507  0.94009521  1
  Zn  Zn159  1  0.94427507  0.19053924  0.43146162  1
  Zn  Zn160  1  0.93802310  0.17892411  0.93787485  1
  Zn  Zn161  1  0.93084159  0.69124312  0.43527977  1
  Zn  Zn162  1  0.94264464  0.68229797  0.92254640  1
  Zn  Zn163  1  0.06263200  0.30353638  0.06595688  1
  Zn  Zn164  1  0.06016349  0.31267070  0.56494434  1
  Zn  Zn165  1  0.06285005  0.81197871  0.06070068  1
  Zn  Zn166  1  0.05908202  0.81145663  0.56415579  1
  Zn  Zn167  1  0.56157284  0.31213282  0.06701100  1
  Zn  Zn168  1  0.56245888  0.31427204  0.56303857  1
  Zn  Zn169  1  0.56856576  0.81266177  0.06237569  1
  Zn  Zn170  1  0.56427702  0.81530356  0.56474785  1
  O  O171  1  0.12170435  0.12098309  0.11179138  1
  O  O172  1  0.12547170  0.11671658  0.61333654  1
  O  O173  1  0.13199231  0.61525563  0.11227082  1
  O  O174  1  0.12126630  0.62618376  0.62053253  1
  O  O175  1  0.61781356  0.11124363  0.13110242  1
  O  O176  1  0.61470487  0.12043959  0.61714609  1
  O  O177  1  0.62109900  0.61150832  0.12213115  1
  O  O178  1  0.61892667  0.61705946  0.61749749  1
  O  O179  1  0.37530344  0.37781298  0.38421532  1
  O  O180  1  0.37787094  0.38660044  0.89381852  1
  O  O181  1  0.38377452  0.88106626  0.37904654  1
  O  O182  1  0.38573514  0.87978505  0.88197715  1
  O  O183  1  0.87202468  0.38483763  0.38485605  1
  O  O184  1  0.87357802  0.38384574  0.88379127  1
  O  O185  1  0.87942762  0.88052787  0.38652561  1
  O  O186  1  0.88237183  0.87756779  0.87558869  1
  O  O187  1  0.25554131  0.00663759  0.36621711  1
  O  O188  1  0.26154882  -0.00676242  0.86430576  1
  O  O189  1  0.24892648  0.50499659  0.36241790  1
  O  O190  1  0.24888757  0.50684223  0.86169939  1
  O  O191  1  0.75781694  -0.00737295  0.36565785  1
  O  O192  1  0.76050947  -0.00947892  0.87225252  1
  O  O193  1  0.75957634  0.50398663  0.36879912  1
  O  O194  1  0.75765111  0.50338736  0.86588576  1
  O  O195  1  0.24048858  0.49208656  0.13438529  1
  O  O196  1  0.24614553  0.49717087  0.63337161  1
  O  O197  1  0.26025099  0.99086649  0.13565569  1
  O  O198  1  0.24504163  0.99323221  0.63209419  1
  O  O199  1  0.74168702  0.49491254  0.13534226  1
  O  O200  1  0.74373103  0.50148783  0.62998747  1
  O  O201  1  0.74774292  0.98933864  0.13577272  1
  O  O202  1  0.73360308  1.00461892  0.62245861  1
  O  O203  1  0.01238016  0.36714811  0.25083875  1
  O  O204  1  0.01047157  0.36670314  0.75300348  1
  O  O205  1  -0.00292954  0.86693880  0.25853221  1
  O  O206  1  0.01460862  0.87451754  0.75578118  1
  O  O207  1  0.49410523  0.36138972  0.24954861  1
  O  O208  1  0.50942152  0.38207964  0.73808369  1
  O  O209  1  0.50119349  0.86655088  0.25653871  1
  O  O210  1  0.50249943  0.86665183  0.75646347  1
  O  O211  1  0.49349334  0.12994388  0.24136884  1
  O  O212  1  0.48934443  0.11645644  0.73295381  1
  O  O213  1  0.49304342  0.63158046  0.24677843  1
  O  O214  1  0.50763123  0.63255582  0.73912525  1
  O  O215  1  0.99078366  0.13339941  0.25068564  1
  O  O216  1  0.99305524  0.13051424  0.74713354  1
  O  O217  1  0.99098059  0.63366028  0.25649892  1
  O  O218  1  0.99323776  0.63290024  0.77839981  1
  O  O219  1  0.38133499  0.26136995  0.01310780  1
  O  O220  1  0.37086834  0.26226817  0.50339879  1
  O  O221  1  0.37217211  0.75639724  0.00658653  1
  O  O222  1  0.36926342  0.75622208  0.50409157  1
  O  O223  1  0.87199093  0.25958155  -0.00618026  1
  O  O224  1  0.87326754  0.25285264  0.50279858  1
  O  O225  1  0.87399858  0.75474511  -0.00353270  1
  O  O226  1  0.87559727  0.76351156  0.50717797  1
  O  O227  1  0.12588581  0.23505469  0.50609748  1
  O  O228  1  0.12920378  0.23863254  1.00061120  1
  O  O229  1  0.13226009  0.75400046  0.49251197  1
  O  O230  1  0.13114420  0.74080027  0.99681664  1
  O  O231  1  0.63382490  0.24445536  0.49737187  1
  O  O232  1  0.63519833  0.28069880  0.99066066  1
  O  O233  1  0.61891044  0.73718301  0.50295088  1
  O  O234  1  0.63537484  0.74517647  0.99603043  1
  O  O235  1  0.49638932  0.24153131  0.13220723  1
  O  O236  1  0.49130028  0.23918793  0.61252642  1
  O  O237  1  0.49629996  0.74539627  0.13121742  1
  O  O238  1  0.49612108  0.74383074  0.63092592  1
  O  O239  1  1.00749024  0.24748194  0.14985637  1
  O  O240  1  0.98808811  0.24768586  0.63240448  1
  O  O241  1  1.00072642  0.75277625  0.13815922  1
  O  O242  1  0.98123907  0.76067677  0.62577788  1
  O  O243  1  0.01162198  0.24598221  0.35739538  1
  O  O244  1  -0.00922806  0.25082709  0.86136418  1
  O  O245  1  0.00479965  0.75741801  0.36771518  1
  O  O246  1  0.01082046  0.76486800  0.87865654  1
  O  O247  1  0.50654964  0.25173786  0.36712143  1
  O  O248  1  0.50632221  0.24388955  0.86110017  1
  O  O249  1  0.49416891  0.75942457  0.36471804  1
  O  O250  1  0.50143703  0.75349049  0.86784725  1
  O  O251  1  0.24123515  0.12814620  0.49022689  1
  O  O252  1  0.23988004  0.13105398  1.00100417  1
  O  O253  1  0.25172491  0.63990046  0.49749009  1
  O  O254  1  0.24585671  0.62837677  0.99599292  1
  O  O255  1  0.73987750  0.13321589  0.50379076  1
  O  O256  1  0.75809405  0.11462222  1.01799469  1
  O  O257  1  0.74197849  0.62068608  0.48687391  1
  O  O258  1  0.75153798  0.63170634  0.99452382  1
  O  O259  1  0.25941486  0.37210306  0.00680841  1
  O  O260  1  0.25382693  0.37947406  0.50448611  1
  O  O261  1  0.25559185  0.87114515  0.00677483  1
  O  O262  1  0.25438938  0.86641475  0.50285818  1
  O  O263  1  0.76460602  0.38888296  0.01666069  1
  O  O264  1  0.76277598  0.36677052  0.50253459  1
  O  O265  1  0.75919013  0.85705600  0.00711332  1
  O  O266  1  0.75662097  0.87047668  0.49740187  1
  O  O267  1  0.12727197  0.49435131  0.24529029  1
  O  O268  1  0.13174875  0.48937742  0.75004283  1
  O  O269  1  0.13480519  1.00025223  0.25452617  1
  O  O270  1  0.13437109  0.99560078  0.74467995  1
  O  O271  1  0.63510569  0.50297692  0.24503305  1
  O  O272  1  0.63247286  0.49587290  0.73757564  1
  O  O273  1  0.63289565  0.99702267  0.24491845  1
  O  O274  1  0.61488403  0.98556359  0.74156733  1
  O  O275  1  0.36837012  0.00712713  0.25601803  1
  O  O276  1  0.36618721  -0.00823274  0.76009290  1
  O  O277  1  0.36484567  0.50780197  0.24893640  1
  O  O278  1  0.35943448  0.49650959  0.74499700  1
  O  O279  1  0.86685338  0.00822074  0.26078774  1
  O  O280  1  0.87816364  0.00203648  0.76059095  1
  O  O281  1  0.87296003  0.50419446  0.25745374  1
  O  O282  1  0.87047246  0.49696065  0.75734003  1
  O  O283  1  0.13013917  0.37645739  0.36159080  1
  O  O284  1  0.12863640  0.37303953  0.86512021  1
  O  O285  1  0.11679572  0.86748979  0.37236156  1
  O  O286  1  0.12223898  0.87246105  0.86842509  1
  O  O287  1  0.62346324  0.35968142  0.38224760  1
  O  O288  1  0.61991593  0.38860255  0.85154340  1
  O  O289  1  0.61095557  0.87918102  0.37373002  1
  O  O290  1  0.61032872  0.87088212  0.86192217  1
  O  O291  1  0.37999293  0.13238618  0.12908879  1
  O  O292  1  0.38134907  0.13679105  0.61303040  1
  O  O293  1  0.37964363  0.63029303  0.13552511  1
  O  O294  1  0.38918592  0.63131954  0.61899844  1
  O  O295  1  0.86953681  0.14000280  0.14597378  1
  O  O296  1  0.87801038  0.12859745  0.63137777  1
  O  O297  1  0.86997643  0.62084870  0.13861529  1
  O  O298  1  0.87490795  0.63701039  0.62347279  1
  O  O299  1  0.25943745  0.26000559  0.13262065  1
  O  O300  1  0.25612649  0.26216868  0.61928940  1
  O  O301  1  0.25624087  0.75797237  0.11980520  1
  O  O302  1  0.25655845  0.75634174  0.61857176  1
  O  O303  1  0.74222787  0.26380072  0.12561456  1
  O  O304  1  0.76135822  0.24934501  0.61293972  1
  O  O305  1  0.75307821  0.75251820  0.11901327  1
  O  O306  1  0.76585006  0.75020608  0.62721429  1
  O  O307  1  0.25370205  0.23732559  0.37325297  1
  O  O308  1  0.28057088  0.24725013  0.85797202  1
  O  O309  1  0.24153504  0.75305060  0.38096798  1
  O  O310  1  0.24561499  0.74495100  0.88134266  1
  O  O311  1  0.74379354  0.25067513  0.38642646  1
  O  O312  1  0.73528414  0.25464463  0.88019186  1
  O  O313  1  0.75321120  0.73635168  0.36599041  1
  O  O314  1  0.75163542  0.73925058  0.88055684  1
  O  O315  1  0.00868579  0.12302027  0.00450526  1
  O  O316  1  0.01305439  0.12501814  0.50182595  1
  O  O317  1  0.00897223  0.61065221  -0.00601365  1
  O  O318  1  -0.00680221  0.61158163  0.49484004  1
  O  O319  1  0.49418482  0.11532295  0.01700428  1
  O  O320  1  0.50618025  0.11829742  0.50293078  1
  O  O321  1  0.50221268  0.61663348  0.00994874  1
  O  O322  1  0.50607219  0.61720110  0.50299110  1
  O  O323  1  0.49241617  0.38784153  0.49964511  1
  O  O324  1  0.48531996  0.38458248  1.01228479  1
  O  O325  1  0.49579942  0.88065328  0.49319859  1
  O  O326  1  0.49841752  0.88018157  0.99405904  1
  O  O327  1  0.98932790  0.38262399  0.50276348  1
  O  O328  1  0.99349518  0.38062079  1.00373298  1
  O  O329  1  0.99613054  0.87467432  0.48804914  1
  O  O330  1  0.99368042  0.87614558  0.99428801  1
  O  O331  1  0.49814380  0.49883292  0.38154136  1
  O  O332  1  0.50057960  0.51067586  0.88959748  1
  O  O333  1  0.49368108  0.99493417  0.37935527  1
  O  O334  1  0.49521255  0.98994912  0.88339024  1
  O  O335  1  0.98735961  0.50204770  0.38424934  1
  O  O336  1  0.99374612  0.49016976  0.88570051  1
  O  O337  1  0.98796155  0.99002495  0.36960660  1
  O  O338  1  0.99644545  0.98585453  0.87693680  1
  O  O339  1  -0.04315651  0.01467911  0.11278611  1
  O  O340  1  0.01522024  -0.00244314  0.63028537  1
  O  O341  1  0.01159795  0.49605231  0.12070452  1
  O  O342  1  -0.00345591  0.49695075  0.61210058  1
  O  O343  1  0.50808478  0.00340817  0.12179271  1
  O  O344  1  0.50315245  0.00694463  0.61533060  1
  O  O345  1  0.50690932  0.50567260  0.12583475  1
  O  O346  1  0.50658522  0.50897959  0.61545345  1
  O  O347  1  0.24104022  0.38185550  0.24399889  1
  O  O348  1  0.24457510  0.38744805  0.74099449  1
  O  O349  1  0.24858289  0.88452885  0.24234159  1
  O  O350  1  0.24131622  0.88036699  0.74596132  1
  O  O351  1  0.75733850  0.38745596  0.24427628  1
  O  O352  1  0.74815238  0.38640074  0.74389197  1
  O  O353  1  0.75186616  0.87896714  0.24306476  1
  O  O354  1  0.73130361  0.86959372  0.75544263  1
  O  O355  1  0.25243610  0.11976350  0.25524007  1
  O  O356  1  0.25474289  0.11425496  0.74071321  1
  O  O357  1  0.25566343  0.61900451  0.24835183  1
  O  O358  1  0.24694951  0.61392312  0.75781912  1
  O  O359  1  0.75519822  0.11420750  0.25331763  1
  O  O360  1  0.76168023  0.12737886  0.74419507  1
  O  O361  1  0.75681462  0.61369703  0.25707185  1
  O  O362  1  0.75344573  0.61353199  0.75610768  1
  O  O363  1  0.36717169  0.12086540  0.37088410  1
  O  O364  1  0.38677098  0.10705718  0.88212094  1
  O  O365  1  0.37208422  0.62555347  0.36176633  1
  O  O366  1  0.36209250  0.62961068  0.88055886  1
  O  O367  1  0.87907673  0.11245236  0.37434763  1
  O  O368  1  0.87654505  0.10526456  0.86864491  1
  O  O369  1  0.86664365  0.61804605  0.36713059  1
  O  O370  1  0.86384339  0.60923220  0.87846904  1
  O  O371  1  0.13300622  0.38136815  0.13093309  1
  O  O372  1  0.13459209  0.37884186  0.62917344  1
  O  O373  1  0.13749799  0.87208963  0.12677778  1
  O  O374  1  0.13156145  0.88095144  0.63083662  1
  O  O375  1  0.63243264  0.38554130  0.13032371  1
  O  O376  1  0.62733940  0.38825433  0.62637347  1
  O  O377  1  0.63839489  0.88273236  0.12715370  1
  O  O378  1  0.61881687  0.88362423  0.63724235  1
  O  O379  1  0.12711217  0.26275872  0.25004653  1
  O  O380  1  0.11473591  0.25832666  0.74156950  1
  O  O381  1  0.11824777  0.75200876  0.25704655  1
  O  O382  1  0.12796351  0.75998556  0.75687243  1
  O  O383  1  0.61618780  0.24041303  0.26087734  1
  O  O384  1  0.62730534  0.26871220  0.74008682  1
  O  O385  1  0.61340158  0.74863912  0.24380819  1
  O  O386  1  0.61439069  0.75909873  0.74778241  1
  O  O387  1  0.38228756  0.24464665  0.24070917  1
  O  O388  1  0.37624929  0.26051494  0.72817592  1
  O  O389  1  0.38120095  0.74431158  0.24477235  1
  O  O390  1  0.38740353  0.75497365  0.74395890  1
  O  O391  1  0.88437375  0.24467850  0.26434884  1
  O  O392  1  0.87841593  0.24301039  0.74305842  1
  O  O393  1  0.88320923  0.74006296  0.24745572  1
  O  O394  1  0.87804879  0.74822982  0.73647180  1
  O  O395  1  0.38233523  0.49673349  0.49681644  1
  O  O396  1  0.38204183  0.48798842  1.01340828  1
  O  O397  1  0.37738208  0.99461059  0.49349941  1
  O  O398  1  0.38441830  0.99260543  0.99621546  1
  O  O399  1  0.88211040  0.49335795  0.49561495  1
  O  O400  1  0.88459214  0.49489589  0.99517879  1
  O  O401  1  0.86786607  0.98690520  0.49370607  1
  O  O402  1  0.87169164  0.97969946  0.98244664  1
  O  O403  1  0.12513123  0.01065333  0.00374277  1
  O  O404  1  0.13314387  0.01059903  0.50975335  1
  O  O405  1  0.12040171  0.50250329  0.00705022  1
  O  O406  1  0.10638271  0.50248269  0.49903043  1
  O  O407  1  0.61455635  -0.00456645  0.01065191  1
  O  O408  1  0.61923000  0.00742101  0.50516769  1
  O  O409  1  0.61358949  0.49167299  0.00925627  1
  O  O410  1  0.61929449  0.50463517  0.50395413  1
  O  O411  1  0.36324099  0.36839760  0.12330739  1
  O  O412  1  0.36453788  0.37417906  0.61095879  1
  O  O413  1  0.36865580  0.87026899  0.12024897  1
  O  O414  1  0.37120806  0.87039876  0.61816392  1
  O  O415  1  0.86735357  0.37676742  0.11898352  1
  O  O416  1  0.87313097  0.36368843  0.61809486  1
  O  O417  1  0.86554051  0.86874658  0.11565492  1
  O  O418  1  0.87168322  0.87382895  0.61122983  1
  O  O419  1  0.13165009  0.11737896  0.38907599  1
  O  O420  1  0.12204579  0.12016302  0.89220131  1
  O  O421  1  0.12519079  0.63959897  0.38076462  1
  O  O422  1  0.13664546  0.62672770  0.88869216  1
  O  O423  1  0.61845691  0.13472624  0.38937248  1
  O  O424  1  0.61923866  0.11779359  0.88198928  1
  O  O425  1  0.63619407  0.62184665  0.38238729  1
  O  O426  1  0.63955331  0.62324735  0.87662820  1
