# generated using pymatgen
data_V85Zn86O256
_symmetry_space_group_name_H-M   'P 1'
_cell_length_a   16.94873040
_cell_length_b   16.94535811
_cell_length_c   16.94914173
_cell_angle_alpha   90.01025669
_cell_angle_beta   90.06101736
_cell_angle_gamma   90.02545047
_symmetry_Int_Tables_number   1
_chemical_formula_structural   V85Zn86O256
_chemical_formula_sum   'V85 Zn86 O256'
_cell_volume   4867.82927092
_cell_formula_units_Z   1
loop_
 _symmetry_equiv_pos_site_id
 _symmetry_equiv_pos_as_xyz
  1  'x, y, z'
loop_
 _atom_site_type_symbol
 _atom_site_label
 _atom_site_symmetry_multiplicity
 _atom_site_fract_x
 _atom_site_fract_y
 _atom_site_fract_z
 _atom_site_occupancy
  V  V0  1  0.87629126  0.75137436  0.12719387  1
  V  V1  1  0.24869577  0.75023722  -0.00028528  1
  V  V2  1  0.86966601  0.00297800  0.87834426  1
  V  V3  1  0.87892237  0.24779435  0.61876477  1
  V  V4  1  0.74998220  0.88542744  0.12991869  1
  V  V5  1  0.12532642  0.75046813  0.87548120  1
  V  V6  1  0.12565883  0.87363467  0.25217710  1
  V  V7  1  0.87486284  0.12756015  0.75069028  1
  V  V8  1  0.75178871  0.63068351  0.37449153  1
  V  V9  1  0.87992297  0.37174777  0.49658102  1
  V  V10  1  0.37020693  0.60201995  0.24540625  1
  V  V11  1  0.00655385  0.62210141  0.61733972  1
  V  V12  1  0.24931536  0.87530879  0.12592315  1
  V  V13  1  0.00006867  0.13175076  0.13448851  1
  V  V14  1  0.62687118  0.25149499  0.87515785  1
  V  V15  1  0.25199539  -0.00155220  0.25242349  1
  V  V16  1  0.50277260  0.75104286  0.24898339  1
  V  V17  1  0.87030232  0.49903243  0.37151834  1
  V  V18  1  0.50266418  0.12769804  0.12724232  1
  V  V19  1  0.25383026  0.74997598  0.49377061  1
  V  V20  1  0.66288447  0.57416638  0.05360187  1
  V  V21  1  0.87810544  0.26279756  0.13019891  1
  V  V22  1  0.49851017  0.37796598  0.87189569  1
  V  V23  1  0.36839389  0.12769783  0.74921125  1
  V  V24  1  0.62567038  0.37774882  0.74540220  1
  V  V25  1  0.25153047  0.25044155  -0.00432599  1
  V  V26  1  0.75481058  0.62622631  0.86963625  1
  V  V27  1  0.63110333  0.12042791  0.50203308  1
  V  V28  1  0.74807990  0.10994133  0.37036442  1
  V  V29  1  0.49855557  0.74660220  0.74737384  1
  V  V30  1  0.87373660  0.87568821  0.00145357  1
  V  V31  1  0.57424292  0.69632691  0.42868170  1
  V  V32  1  0.37523270  0.87754760  -0.00145677  1
  V  V33  1  0.62955694  0.12936537  0.00450230  1
  V  V34  1  0.75683642  0.75267240  0.49630603  1
  V  V35  1  0.12677108  0.24785857  0.86981213  1
  V  V36  1  0.87341692  0.74009726  0.62489658  1
  V  V37  1  0.12016394  0.11583380  0.50842184  1
  V  V38  1  0.12857731  0.87833284  0.73989521  1
  V  V39  1  -0.00521005  0.74087704  0.75183996  1
  V  V40  1  0.62612634  0.50907402  0.60798261  1
  V  V41  1  0.37468032  0.75288748  0.61644994  1
  V  V42  1  0.12928413  0.12651112  -0.00365599  1
  V  V43  1  0.36535838  0.00588321  0.87394348  1
  V  V44  1  0.62548395  0.88308000  0.25331397  1
  V  V45  1  0.87038862  0.11668718  0.25261326  1
  V  V46  1  0.25873392  0.25344259  0.50367884  1
  V  V47  1  0.69677505  0.29886353  0.44848058  1
  V  V48  1  0.26780908  0.37592462  0.62699838  1
  V  V49  1  0.12766120  0.37554209  0.25172791  1
  V  V50  1  0.37603730  0.37529002  -0.00170646  1
  V  V51  1  0.49549264  0.25054263  0.27510233  1
  V  V52  1  0.11674997  0.24771194  0.37447891  1
  V  V53  1  0.50248555  0.12446576  0.62797877  1
  V  V54  1  0.75729013  0.50525750  0.74539866  1
  V  V55  1  0.37229960  0.12168103  0.25305530  1
  V  V56  1  0.93188253  0.93104310  0.54651043  1
  V  V57  1  0.25004669  0.61886156  0.86703641  1
  V  V58  1  0.24520506  0.60736828  0.36972410  1
  V  V59  1  0.00146071  0.49289148  0.00272759  1
  V  V60  1  0.13519704  0.50115425  0.12924687  1
  V  V61  1  0.49784379  0.62782714  0.11692367  1
  V  V62  1  0.62478110  0.88144706  0.74977451  1
  V  V63  1  0.87762520  0.49343925  0.87570419  1
  V  V64  1  0.62294421  0.74565962  0.87762093  1
  V  V65  1  0.37311951  0.75205419  0.12655461  1
  V  V66  1  0.12402415  0.74581981  0.37828179  1
  V  V67  1  0.50214039  0.00189704  0.00009757  1
  V  V68  1  0.75918704  0.26470663  0.00262005  1
  V  V69  1  0.49763042  0.50711216  -0.00748944  1
  V  V70  1  0.74660254  0.74984598  0.00093793  1
  V  V71  1  0.49558109  0.25180156  0.74483167  1
  V  V72  1  0.50247948  -0.00356778  0.51068818  1
  V  V73  1  0.50121860  0.87688102  0.38103710  1
  V  V74  1  -0.00894528  0.88615306  0.37183465  1
  V  V75  1  0.12506735  0.38435298  0.74388025  1
  V  V76  1  0.75118541  0.36933724  0.62374153  1
  V  V77  1  0.44063668  0.44421430  0.43819968  1
  V  V78  1  -0.00057574  0.87309845  0.87749319  1
  V  V79  1  0.37359168  -0.00521373  0.38671559  1
  V  V80  1  0.00073033  0.00301396  0.00169875  1
  V  V81  1  0.12625839  0.00315797  0.12602960  1
  V  V82  1  0.37672981  0.25133449  0.12655521  1
  V  V83  1  0.74530724  0.88196292  0.62091838  1
  V  V84  1  0.87236943  0.61995783  0.24816526  1
  Zn  Zn85  1  0.69503884  0.43593703  0.17869540  1
  Zn  Zn86  1  -0.00113310  0.11024475  0.62198973  1
  Zn  Zn87  1  0.74956356  0.12728215  0.87490780  1
  Zn  Zn88  1  0.49908275  0.87546891  0.87385087  1
  Zn  Zn89  1  0.00242843  0.24871795  0.74779063  1
  Zn  Zn90  1  -0.00112283  0.37235411  0.87450772  1
  Zn  Zn91  1  0.00283784  0.62413865  0.12538665  1
  Zn  Zn92  1  0.50295898  0.62338604  0.61658369  1
  Zn  Zn93  1  0.24062277  0.00906819  0.74532040  1
  Zn  Zn94  1  0.61193680  0.36281757  0.27060303  1
  Zn  Zn95  1  0.63210686  0.00889433  0.13156949  1
  Zn  Zn96  1  -0.00066465  0.74829187  0.25246961  1
  Zn  Zn97  1  0.36728227  0.49564594  0.86240776  1
  Zn  Zn98  1  0.36909291  0.62068072  0.73994824  1
  Zn  Zn99  1  -0.00275755  0.37236586  0.36862375  1
  Zn  Zn100  1  0.00500046  0.50338993  0.49267568  1
  Zn  Zn101  1  0.13437437  0.50441155  0.61853534  1
  Zn  Zn102  1  0.25972124  0.38301791  0.13438535  1
  Zn  Zn103  1  0.24897778  0.12612183  0.38141059  1
  Zn  Zn104  1  0.74328525  0.00464269  0.74585460  1
  Zn  Zn105  1  0.25465305  0.88418106  0.61057915  1
  Zn  Zn106  1  0.12388267  0.62339444  0.00191989  1
  Zn  Zn107  1  0.19076685  0.19234757  0.18907867  1
  Zn  Zn108  1  0.18669530  0.19061965  0.68171565  1
  Zn  Zn109  1  0.18733882  0.68507819  0.19186307  1
  Zn  Zn110  1  0.18634298  0.69427395  0.68542625  1
  Zn  Zn111  1  0.69981842  0.22239714  0.20405534  1
  Zn  Zn112  1  0.68711650  0.18792192  0.68482996  1
  Zn  Zn113  1  0.69122721  0.69873566  0.19617165  1
  Zn  Zn114  1  0.68779879  0.69103549  0.68797623  1
  Zn  Zn115  1  0.31169360  0.31997243  0.32135791  1
  Zn  Zn116  1  0.30966414  0.31269167  0.81006107  1
  Zn  Zn117  1  0.31658451  0.80870920  0.31514228  1
  Zn  Zn118  1  0.31422857  0.81080860  0.81044894  1
  Zn  Zn119  1  0.81296996  0.31458399  0.30340232  1
  Zn  Zn120  1  0.81279578  0.31174705  0.81060836  1
  Zn  Zn121  1  0.81249844  0.81464808  0.31077201  1
  Zn  Zn122  1  0.81041920  0.81382917  0.81030710  1
  Zn  Zn123  1  0.18273512  0.43295756  0.44548979  1
  Zn  Zn124  1  0.18427574  0.43412444  0.93986824  1
  Zn  Zn125  1  0.18527579  0.93438300  0.43662322  1
  Zn  Zn126  1  0.18816112  0.93803569  0.93436058  1
  Zn  Zn127  1  0.64493316  0.47776222  0.39620773  1
  Zn  Zn128  1  0.69044929  0.43490798  0.93094757  1
  Zn  Zn129  1  0.68511847  0.93656395  0.43886590  1
  Zn  Zn130  1  0.68555076  0.93634464  0.93880933  1
  Zn  Zn131  1  0.31235514  0.06471738  0.06298816  1
  Zn  Zn132  1  0.30991258  0.06706931  0.56875387  1
  Zn  Zn133  1  0.31256583  0.56477568  0.05536591  1
  Zn  Zn134  1  0.30859572  0.56034514  0.56288315  1
  Zn  Zn135  1  0.81328926  0.06958852  0.06457219  1
  Zn  Zn136  1  0.80866896  0.06643199  0.56120919  1
  Zn  Zn137  1  0.82862691  0.55962003  0.05941092  1
  Zn  Zn138  1  0.81119782  0.56236594  0.55531752  1
  Zn  Zn139  1  0.47358206  0.42530774  0.17395508  1
  Zn  Zn140  1  0.44122688  0.44669826  0.68333317  1
  Zn  Zn141  1  0.43946620  0.93907618  0.18788428  1
  Zn  Zn142  1  0.43203665  0.93585658  0.68862382  1
  Zn  Zn143  1  0.94632810  0.43849962  0.19311140  1
  Zn  Zn144  1  0.93883982  0.43666499  0.68900251  1
  Zn  Zn145  1  0.93941632  0.93999292  0.18990956  1
  Zn  Zn146  1  0.93344297  0.93195908  0.70776963  1
  Zn  Zn147  1  0.06380007  0.06570872  0.31437554  1
  Zn  Zn148  1  0.05876166  0.06320342  0.81330074  1
  Zn  Zn149  1  0.05933809  0.55977438  0.30952829  1
  Zn  Zn150  1  0.06251997  0.56297555  0.81076973  1
  Zn  Zn151  1  0.56294492  0.06527809  0.31785294  1
  Zn  Zn152  1  0.55926510  0.06425168  0.81761545  1
  Zn  Zn153  1  0.55263124  0.55425049  0.29147985  1
  Zn  Zn154  1  0.56637086  0.56364239  0.80835260  1
  Zn  Zn155  1  0.43209617  0.17717551  0.44606127  1
  Zn  Zn156  1  0.43985196  0.18799573  0.93396203  1
  Zn  Zn157  1  0.40439807  0.63640924  0.45725915  1
  Zn  Zn158  1  0.43395810  0.68923063  0.93395409  1
  Zn  Zn159  1  0.93568248  0.18107233  0.43758444  1
  Zn  Zn160  1  0.94154451  0.18978592  0.94020640  1
  Zn  Zn161  1  0.93636375  0.69398338  0.43717162  1
  Zn  Zn162  1  0.93697279  0.68123172  0.94083169  1
  Zn  Zn163  1  0.06446759  0.31623811  0.06497849  1
  Zn  Zn164  1  0.06298500  0.30952592  0.55944688  1
  Zn  Zn165  1  0.06212097  0.81279417  0.06341094  1
  Zn  Zn166  1  0.06754991  0.80205181  0.56007343  1
  Zn  Zn167  1  0.56711108  0.31641974  0.06565228  1
  Zn  Zn168  1  0.55317163  0.31697127  0.56354813  1
  Zn  Zn169  1  0.56530696  0.81556906  0.06302061  1
  Zn  Zn170  1  0.56096681  0.81705981  0.56836952  1
  O  O171  1  0.11918097  0.12415367  0.12132294  1
  O  O172  1  0.11851729  0.12602438  0.61429698  1
  O  O173  1  0.12305379  0.61674184  0.12549376  1
  O  O174  1  0.11009314  0.62547369  0.63080104  1
  O  O175  1  0.61975307  0.12731841  0.11819822  1
  O  O176  1  0.61630347  0.12590415  0.61770053  1
  O  O177  1  0.61682696  0.63699099  0.12541972  1
  O  O178  1  0.63018136  0.61236543  0.62569690  1
  O  O179  1  0.37473935  0.39244522  0.38167785  1
  O  O180  1  0.37981531  0.37557540  0.87984393  1
  O  O181  1  0.38988041  0.88262861  0.36905779  1
  O  O182  1  0.37669203  0.88278696  0.88116150  1
  O  O183  1  0.87108270  0.38156399  0.37782945  1
  O  O184  1  0.87570796  0.38865446  0.86858254  1
  O  O185  1  0.89178061  0.87228109  0.36988778  1
  O  O186  1  0.87909055  0.88214651  0.88042845  1
  O  O187  1  0.25863354  -0.00162018  0.37011271  1
  O  O188  1  0.26143269  -0.00090234  0.86945041  1
  O  O189  1  0.24005932  0.50956928  0.37557397  1
  O  O190  1  0.24604640  0.51632498  0.88099066  1
  O  O191  1  0.74722794  0.01087802  0.37348013  1
  O  O192  1  0.76110499  0.00198434  0.87831414  1
  O  O193  1  0.76011993  0.52077444  0.38497027  1
  O  O194  1  0.75509081  0.50660290  0.86672956  1
  O  O195  1  0.23960733  0.50003411  0.11662384  1
  O  O196  1  0.25068741  0.48183211  0.61996285  1
  O  O197  1  0.24537416  0.99517471  0.13092147  1
  O  O198  1  0.26055302  0.99330266  0.63478030  1
  O  O199  1  0.73424877  0.51515753  0.10897451  1
  O  O200  1  0.74759912  0.49175080  0.62891246  1
  O  O201  1  0.75071454  0.98894672  0.11943853  1
  O  O202  1  0.75628086  0.98597261  0.62616484  1
  O  O203  1  0.01802278  0.37161179  0.25268922  1
  O  O204  1  0.01191809  0.37230847  0.75263258  1
  O  O205  1  0.00641422  0.87368915  0.25799543  1
  O  O206  1  0.00986205  0.86446396  0.75920097  1
  O  O207  1  0.48914595  0.35379338  0.26549371  1
  O  O208  1  0.50801883  0.36994132  0.75018536  1
  O  O209  1  0.50408577  0.86860361  0.25578313  1
  O  O210  1  0.50688958  0.86454250  0.75073266  1
  O  O211  1  0.48653886  0.12808185  0.24918810  1
  O  O212  1  0.49896282  0.13293765  0.74530329  1
  O  O213  1  0.49231185  0.63297372  0.23857230  1
  O  O214  1  0.50616676  0.63944786  0.74677202  1
  O  O215  1  0.99533710  0.12385149  0.23931590  1
  O  O216  1  0.98732400  0.12239610  0.74369331  1
  O  O217  1  0.98545023  0.62773320  0.24731606  1
  O  O218  1  1.00021880  0.63662232  0.74375044  1
  O  O219  1  0.36908765  0.25133494  0.00465905  1
  O  O220  1  0.35751820  0.24204437  0.50103485  1
  O  O221  1  0.36916254  0.75775611  0.00552156  1
  O  O222  1  0.36731995  0.74158268  0.50364910  1
  O  O223  1  0.86509827  0.24976878  0.00478893  1
  O  O224  1  0.87619603  0.25609463  0.50709977  1
  O  O225  1  0.86840048  0.75465360  0.00643300  1
  O  O226  1  0.86799433  0.75385345  0.51030724  1
  O  O227  1  0.13095412  0.24289845  0.49101763  1
  O  O228  1  0.13316784  0.24577822  0.99534647  1
  O  O229  1  0.13224871  0.74496929  0.48510615  1
  O  O230  1  0.12888177  0.74984478  0.99182949  1
  O  O231  1  0.63066812  0.24484507  0.50778393  1
  O  O232  1  0.63384705  0.24687667  0.99901624  1
  O  O233  1  0.63000728  0.75338429  0.49294126  1
  O  O234  1  0.63292401  0.75578496  0.99042403  1
  O  O235  1  0.48639909  0.24263400  0.12182099  1
  O  O236  1  0.50568124  0.24263393  0.63821021  1
  O  O237  1  0.49525571  0.74491284  0.12860472  1
  O  O238  1  0.49476931  0.74621726  0.63014148  1
  O  O239  1  0.98720914  0.24343738  0.11377184  1
  O  O240  1  0.98692541  0.24934742  0.62682404  1
  O  O241  1  0.98682511  0.75063953  0.12486698  1
  O  O242  1  0.99467052  0.74101074  0.63071604  1
  O  O243  1  0.01354436  0.24918511  0.37952414  1
  O  O244  1  0.01341912  0.25223878  0.87480461  1
  O  O245  1  0.00879173  0.75737735  0.37389619  1
  O  O246  1  0.00414042  0.75049378  0.87040858  1
  O  O247  1  0.49344403  0.23941412  0.37329427  1
  O  O248  1  0.50851265  0.25796488  0.86661480  1
  O  O249  1  0.50611701  0.75369415  0.37003173  1
  O  O250  1  0.50766475  0.75168768  0.86856795  1
  O  O251  1  0.23994189  0.13674265  0.50421291  1
  O  O252  1  0.23708929  0.13271801  1.00630075  1
  O  O253  1  0.25612309  0.63164385  0.47844507  1
  O  O254  1  0.24652732  0.63564812  0.98911028  1
  O  O255  1  0.73957509  0.12260580  0.49047908  1
  O  O256  1  0.73931220  0.13232893  0.99810591  1
  O  O257  1  0.75250046  0.64198081  0.49330347  1
  O  O258  1  0.74305559  0.62762949  0.99619123  1
  O  O259  1  0.25844632  0.36644625  0.00336865  1
  O  O260  1  0.24819935  0.36298587  0.51307028  1
  O  O261  1  0.25431501  0.87051486  0.00555336  1
  O  O262  1  0.24582621  0.85730953  0.49593158  1
  O  O263  1  0.74418288  0.36338636  0.00349906  1
  O  O264  1  0.75870266  0.36538071  0.50544637  1
  O  O265  1  0.75604278  0.87031478  0.00780470  1
  O  O266  1  0.74225777  0.86408553  0.50710908  1
  O  O267  1  0.12239286  0.49117385  0.23996180  1
  O  O268  1  0.12390946  0.48731812  0.74546604  1
  O  O269  1  0.13258953  0.99536129  0.24586103  1
  O  O270  1  0.12250406  0.98270901  0.75880853  1
  O  O271  1  0.63579217  0.48123558  0.27541771  1
  O  O272  1  0.63694803  0.49092552  0.74427936  1
  O  O273  1  0.61315537  0.98839548  0.24656540  1
  O  O274  1  0.62449665  0.98605024  0.76187641  1
  O  O275  1  0.37217754  0.00532055  0.25797171  1
  O  O276  1  0.38028734  0.00999314  0.76071148  1
  O  O277  1  0.39117328  0.50655940  0.23357293  1
  O  O278  1  0.38068654  0.50905542  0.75166426  1
  O  O279  1  0.87393233  0.01696449  0.24188062  1
  O  O280  1  0.86920742  0.00729952  0.76212250  1
  O  O281  1  0.87223539  0.50688875  0.25542444  1
  O  O282  1  0.86292377  0.49765371  0.75424392  1
  O  O283  1  0.12420266  0.36280397  0.37113948  1
  O  O284  1  0.12928460  0.36732117  0.86055523  1
  O  O285  1  0.11729451  0.86656762  0.36906571  1
  O  O286  1  0.11892779  0.86444690  0.87311880  1
  O  O287  1  0.63725205  0.35918177  0.39308256  1
  O  O288  1  0.62046398  0.37145098  0.86358768  1
  O  O289  1  0.61194873  0.87919132  0.36736994  1
  O  O290  1  0.62542430  0.86323124  0.86940497  1
  O  O291  1  0.37959043  0.13017093  0.13372148  1
  O  O292  1  0.39286234  0.12328367  0.63494608  1
  O  O293  1  0.37963306  0.63304455  0.12708250  1
  O  O294  1  0.38008426  0.63519856  0.62235677  1
  O  O295  1  0.88392003  0.13303384  0.12903298  1
  O  O296  1  0.87480955  0.13188852  0.63071795  1
  O  O297  1  0.87504466  0.63409970  0.13189591  1
  O  O298  1  0.87941956  0.63632935  0.62420098  1
  O  O299  1  0.26347296  0.25010792  0.11608595  1
  O  O300  1  0.24535889  0.26205689  0.61338862  1
  O  O301  1  0.25275995  0.75576850  0.12005104  1
  O  O302  1  0.25567644  0.74911958  0.61194748  1
  O  O303  1  0.76665966  0.24239703  0.10983019  1
  O  O304  1  0.76065454  0.26271827  0.63197160  1
  O  O305  1  0.75985150  0.76009061  0.12083399  1
  O  O306  1  0.75813888  0.75921103  0.62107544  1
  O  O307  1  0.24304325  0.24987912  0.38931765  1
  O  O308  1  0.24157858  0.25195180  0.88732850  1
  O  O309  1  0.24276937  0.74525708  0.37633818  1
  O  O310  1  0.24137430  0.74644139  0.88001237  1
  O  O311  1  0.75112271  0.24437114  0.38322979  1
  O  O312  1  0.74678321  0.25119578  0.88707350  1
  O  O313  1  0.75610582  0.74320607  0.38257620  1
  O  O314  1  0.74707014  0.74307912  0.87936422  1
  O  O315  1  0.01098283  0.12152072  0.00920094  1
  O  O316  1  0.01386964  0.12461283  0.50214446  1
  O  O317  1  0.00314222  0.61210220  0.00344098  1
  O  O318  1  -0.00554904  0.62761131  0.51484313  1
  O  O319  1  0.51067296  0.12171765  0.00340526  1
  O  O320  1  0.50896237  0.11811108  0.50901526  1
  O  O321  1  0.49895774  0.62138753  0.00232526  1
  O  O322  1  0.51615338  0.64147207  0.49103946  1
  O  O323  1  0.48657578  0.38058690  0.50195891  1
  O  O324  1  0.49568701  0.38487080  0.99148176  1
  O  O325  1  0.50497522  0.88340004  0.49330426  1
  O  O326  1  0.49461622  0.88545816  1.00061054  1
  O  O327  1  0.98755099  0.37442632  0.49545333  1
  O  O328  1  1.00940622  0.38782230  0.99285311  1
  O  O329  1  1.00122715  0.87425052  0.49164203  1
  O  O330  1  0.99347668  0.88194931  0.99610756  1
  O  O331  1  0.51599701  0.49446294  0.38495948  1
  O  O332  1  0.50140477  0.49643502  0.87812330  1
  O  O333  1  0.49378247  0.99391441  0.38574379  1
  O  O334  1  0.49273636  0.99845474  0.88826105  1
  O  O335  1  0.98355970  0.49837262  0.37417313  1
  O  O336  1  0.99274637  0.50134224  0.87928797  1
  O  O337  1  1.00517347  0.98508036  0.37210369  1
  O  O338  1  0.98867451  0.99543279  0.88187573  1
  O  O339  1  0.00763131  0.00857174  0.11987659  1
  O  O340  1  -0.01636232  -0.01260429  0.61551175  1
  O  O341  1  0.00936263  0.50009564  0.11739265  1
  O  O342  1  -0.00678331  0.51843626  0.62796521  1
  O  O343  1  0.49823843  0.00873115  0.11316434  1
  O  O344  1  0.49625494  0.00316836  0.61629374  1
  O  O345  1  0.50052429  0.52041528  0.10940539  1
  O  O346  1  0.52140764  0.50421690  0.62335787  1
  O  O347  1  0.23693851  0.36671216  0.24786025  1
  O  O348  1  0.23926031  0.36685505  0.73526285  1
  O  O349  1  0.24639982  0.87868399  0.24533253  1
  O  O350  1  0.23279033  0.87043977  0.75212128  1
  O  O351  1  0.72628205  0.33930560  0.23531102  1
  O  O352  1  0.74465693  0.38145544  0.74177494  1
  O  O353  1  0.73879095  0.87023103  0.24230073  1
  O  O354  1  0.74204939  0.87722345  0.74188924  1
  O  O355  1  0.26058946  0.11964123  0.25119238  1
  O  O356  1  0.26452601  0.12961244  0.74383190  1
  O  O357  1  0.25894846  0.62133107  0.25517321  1
  O  O358  1  0.24668320  0.63349695  0.76393146  1
  O  O359  1  0.75291225  0.13234458  0.26330663  1
  O  O360  1  0.75943088  0.12390669  0.75246457  1
  O  O361  1  0.76208428  0.63434187  0.25903637  1
  O  O362  1  0.74782438  0.61790954  0.75733869  1
  O  O363  1  0.37037526  0.11305117  0.36905638  1
  O  O364  1  0.38163971  0.11657857  0.86522700  1
  O  O365  1  0.35786472  0.62331895  0.35526304  1
  O  O366  1  0.35711532  0.62814285  0.87331561  1
  O  O367  1  0.86050799  0.12874398  0.36751974  1
  O  O368  1  0.87545959  0.11966980  0.86967342  1
  O  O369  1  0.87008004  0.62177275  0.36851967  1
  O  O370  1  0.86096393  0.61563431  0.88059802  1
  O  O371  1  0.13073702  0.38164038  0.13300485  1
  O  O372  1  0.12361742  0.37290549  0.63747258  1
  O  O373  1  0.12898412  0.88182536  0.13136421  1
  O  O374  1  0.12464779  0.86767158  0.63790711  1
  O  O375  1  0.58961151  0.39026802  0.14542355  1
  O  O376  1  0.63352389  0.38257955  0.62797999  1
  O  O377  1  0.63405861  0.87959192  0.13207272  1
  O  O378  1  0.63475677  0.87123179  0.63635933  1
  O  O379  1  0.13102995  0.25086773  0.26757655  1
  O  O380  1  0.12386859  0.25343549  0.75725554  1
  O  O381  1  0.12320494  0.75825105  0.25699843  1
  O  O382  1  0.11629949  0.75870244  0.75780375  1
  O  O383  1  0.59597698  0.24011233  0.25184095  1
  O  O384  1  0.62224918  0.26167384  0.75266808  1
  O  O385  1  0.60988446  0.76344906  0.24502399  1
  O  O386  1  0.62028029  0.75973304  0.75677659  1
  O  O387  1  0.37870263  0.24171590  0.24622902  1
  O  O388  1  0.38696878  0.24197028  0.75928720  1
  O  O389  1  0.38763082  0.74887774  0.24243680  1
  O  O390  1  0.38345727  0.74504281  0.74367340  1
  O  O391  1  0.87383952  0.24085003  0.23396725  1
  O  O392  1  0.87780212  0.24232356  0.74429828  1
  O  O393  1  0.87622260  0.74487601  0.24045466  1
  O  O394  1  0.88488803  0.76038941  0.73949669  1
  O  O395  1  0.39090625  0.52113197  0.49188866  1
  O  O396  1  0.38535482  0.49722341  0.99219808  1
  O  O397  1  0.38250215  1.00752286  0.49064299  1
  O  O398  1  0.38030195  0.99945094  0.99360177  1
  O  O399  1  0.87698188  0.48955699  0.49172718  1
  O  O400  1  0.88655139  0.49700632  0.98932114  1
  O  O401  1  0.87429255  0.99366164  0.49623728  1
  O  O402  1  0.87998149  0.99783136  0.99621455  1
  O  O403  1  0.12264069  0.00814577  0.00390953  1
  O  O404  1  0.13302426  0.01787349  0.49481791  1
  O  O405  1  0.11971128  0.50140742  0.00812431  1
  O  O406  1  0.11599814  0.49648586  0.50715101  1
  O  O407  1  0.61794168  0.00946628  0.00164219  1
  O  O408  1  0.61532724  0.00949517  0.49869523  1
  O  O409  1  0.61505383  0.50427410  -0.01055856  1
  O  O410  1  0.63917480  0.50048185  0.51085036  1
  O  O411  1  0.38046199  0.36679063  0.11771212  1
  O  O412  1  0.36596915  0.37189473  0.63330858  1
  O  O413  1  0.36967771  0.87229635  0.11930296  1
  O  O414  1  0.37323853  0.85764228  0.62905072  1
  O  O415  1  0.87964567  0.36206918  0.13241605  1
  O  O416  1  0.86965273  0.37092118  0.61640575  1
  O  O417  1  0.86982574  0.87056211  0.12292215  1
  O  O418  1  0.87511499  0.87165285  0.61705796  1
  O  O419  1  0.12844000  0.13394965  0.38191677  1
  O  O420  1  0.12079384  0.13262411  0.88455010  1
  O  O421  1  0.13668111  0.63252549  0.35993231  1
  O  O422  1  0.13185549  0.63610169  0.87412285  1
  O  O423  1  0.63727624  0.12434677  0.38370257  1
  O  O424  1  0.62597508  0.13449730  0.88393219  1
  O  O425  1  0.62977109  0.63265018  0.36887833  1
  O  O426  1  0.63631196  0.63797789  0.86982814  1
