# generated using pymatgen
data_V85Zn86O256
_symmetry_space_group_name_H-M   'P 1'
_cell_length_a   16.95331562
_cell_length_b   16.94103940
_cell_length_c   16.94540838
_cell_angle_alpha   90.08893168
_cell_angle_beta   90.05845526
_cell_angle_gamma   89.95098187
_symmetry_Int_Tables_number   1
_chemical_formula_structural   V85Zn86O256
_chemical_formula_sum   'V85 Zn86 O256'
_cell_volume   4866.82613986
_cell_formula_units_Z   1
loop_
 _symmetry_equiv_pos_site_id
 _symmetry_equiv_pos_as_xyz
  1  'x, y, z'
loop_
 _atom_site_type_symbol
 _atom_site_label
 _atom_site_symmetry_multiplicity
 _atom_site_fract_x
 _atom_site_fract_y
 _atom_site_fract_z
 _atom_site_occupancy
  V  V0  1  0.87008092  -0.00483335  0.87393825  1
  V  V1  1  0.37139039  0.13087110  0.74141266  1
  V  V2  1  0.62343544  -0.00315636  0.12483225  1
  V  V3  1  0.62463331  0.49817850  0.14128450  1
  V  V4  1  0.49916357  0.12251297  0.12464105  1
  V  V5  1  0.39006447  0.48973462  0.38921178  1
  V  V6  1  0.62357982  0.12435828  0.00164793  1
  V  V7  1  0.87993081  0.87062282  -0.00275360  1
  V  V8  1  0.87456720  0.62915874  0.24973010  1
  V  V9  1  0.00104060  0.49709370  -0.00326642  1
  V  V10  1  0.62692367  0.63583875  0.50844070  1
  V  V11  1  0.12553920  0.25038974  0.37455148  1
  V  V12  1  0.38231626  0.39066514  0.00096882  1
  V  V13  1  0.37835818  -0.00465098  0.37728870  1
  V  V14  1  0.87545477  0.25309290  0.12436699  1
  V  V15  1  0.57743182  0.30505552  0.41958543  1
  V  V16  1  0.37683986  0.62717798  0.26001904  1
  V  V17  1  0.51449319  0.26173434  0.24749117  1
  V  V18  1  0.38002102  -0.00011446  0.87487551  1
  V  V19  1  0.26239534  0.25746804  0.50175428  1
  V  V20  1  0.25303544  0.50440174  0.26250055  1
  V  V21  1  0.87490554  -0.00148848  0.37244961  1
  V  V22  1  0.50363634  0.39324578  0.88023666  1
  V  V23  1  0.48802158  0.75919920  0.73952294  1
  V  V24  1  0.62163703  0.61398744  -0.00285031  1
  V  V25  1  0.24520508  0.12750142  0.87410477  1
  V  V26  1  0.12614971  0.37618754  0.73270019  1
  V  V27  1  0.00239616  -0.00335063  -0.00461638  1
  V  V28  1  0.12242025  0.73539442  0.36981912  1
  V  V29  1  0.87487316  0.12516621  0.24874990  1
  V  V30  1  0.12496451  0.12364853  0.49707309  1
  V  V31  1  0.74906125  -0.00239598  0.24793094  1
  V  V32  1  0.37836182  0.87389529  -0.00290830  1
  V  V33  1  0.25902405  0.74347013  0.49606187  1
  V  V34  1  -0.00032886  0.37886405  0.37569647  1
  V  V35  1  0.12112845  0.25787292  0.87629108  1
  V  V36  1  0.87673320  0.37540835  -0.00520598  1
  V  V37  1  0.25128928  0.25190740  0.00130407  1
  V  V38  1  0.37634890  0.25171698  0.12587535  1
  V  V39  1  0.00250558  0.63080192  0.12822240  1
  V  V40  1  0.37686953  0.12559624  0.25040493  1
  V  V41  1  0.61369089  0.75790609  0.87407359  1
  V  V42  1  0.87405821  0.37861612  0.50288860  1
  V  V43  1  0.75152028  0.63350262  0.37848229  1
  V  V44  1  0.87086864  0.50225577  0.37076163  1
  V  V45  1  0.74197460  0.86255882  0.61956279  1
  V  V46  1  0.50105127  0.62464658  0.13001249  1
  V  V47  1  0.73994780  0.12777394  0.37195387  1
  V  V48  1  0.74918561  0.38230078  0.13567895  1
  V  V49  1  0.75415783  0.49603851  0.73532080  1
  V  V50  1  0.62416235  0.11894701  0.50660759  1
  V  V51  1  0.37298230  0.61732104  0.76060272  1
  V  V52  1  0.61040638  0.49538616  0.62078025  1
  V  V53  1  0.12675468  0.37670709  0.25058380  1
  V  V54  1  0.12342368  -0.00666882  0.62478561  1
  V  V55  1  0.75003377  0.25214482  0.00055222  1
  V  V56  1  -0.00139016  -0.00437134  0.49491762  1
  V  V57  1  -0.00010287  0.25224280  0.25015328  1
  V  V58  1  0.48992904  0.25519892  0.74858952  1
  V  V59  1  0.12058560  0.86817618  0.25156956  1
  V  V60  1  0.88105048  0.63729659  0.74944504  1
  V  V61  1  0.61962662  0.25123397  0.87596365  1
  V  V62  1  0.74941633  0.74701278  -0.00310480  1
  V  V63  1  0.11106395  0.75136760  0.86819557  1
  V  V64  1  0.00353437  0.50211307  0.51330799  1
  V  V65  1  0.00100765  0.12500327  0.12463245  1
  V  V66  1  0.75025166  0.87239688  0.12366759  1
  V  V67  1  0.25342102  0.74043670  -0.01077250  1
  V  V68  1  0.86919627  0.25394112  0.62481527  1
  V  V69  1  0.25056134  0.12182347  0.37466668  1
  V  V70  1  0.12705671  -0.00418318  0.12425947  1
  V  V71  1  0.74960934  0.25657515  0.49740354  1
  V  V72  1  0.62072394  0.86172985  0.24757425  1
  V  V73  1  0.74806007  0.12480560  0.87506136  1
  V  V74  1  0.24727719  -0.00553965  0.74922205  1
  V  V75  1  0.13052876  0.62030329  0.51256438  1
  V  V76  1  0.25264199  0.37642424  0.12647713  1
  V  V77  1  -0.00127071  0.24908320  0.75484639  1
  V  V78  1  0.37773264  0.75043901  0.13102627  1
  V  V79  1  -0.00324499  0.12439234  0.62348698  1
  V  V80  1  0.87627992  0.49860882  0.87160895  1
  V  V81  1  0.74106437  0.00308106  0.73848318  1
  V  V82  1  0.25422904  0.86801336  0.62483093  1
  V  V83  1  0.49909090  0.86374356  0.37214577  1
  V  V84  1  0.12633616  0.50131690  0.12599166  1
  Zn  Zn85  1  0.61694129  0.88243542  0.75024124  1
  Zn  Zn86  1  0.24452499  0.50367730  0.75084364  1
  Zn  Zn87  1  0.88620434  0.75584951  0.61876928  1
  Zn  Zn88  1  0.50166139  -0.00789799  -0.00364105  1
  Zn  Zn89  1  0.38060138  0.86896270  0.50473979  1
  Zn  Zn90  1  0.50465632  -0.00679777  0.50765590  1
  Zn  Zn91  1  0.01045494  0.63984104  0.63538582  1
  Zn  Zn92  1  0.62808841  0.37519612  0.74781402  1
  Zn  Zn93  1  0.13089389  0.62118463  -0.00669818  1
  Zn  Zn94  1  0.24941304  0.87004193  0.12509528  1
  Zn  Zn95  1  0.06160082  0.82609194  0.71643816  1
  Zn  Zn96  1  0.25018716  -0.00449377  0.24994575  1
  Zn  Zn97  1  -0.00389977  0.86447819  0.36894442  1
  Zn  Zn98  1  0.86406277  0.86679058  0.49374843  1
  Zn  Zn99  1  0.50044521  0.12068014  0.62824293  1
  Zn  Zn100  1  0.48920812  0.63212811  0.61868526  1
  Zn  Zn101  1  0.87149475  0.12629731  0.74980153  1
  Zn  Zn102  1  0.12522122  0.12419144  -0.00116540  1
  Zn  Zn103  1  0.88093962  0.75053808  0.12676617  1
  Zn  Zn104  1  0.31369247  0.31592533  0.66043920  1
  Zn  Zn105  1  0.74734901  0.62419843  0.87183356  1
  Zn  Zn106  1  0.62718091  0.74883399  0.37668056  1
  Zn  Zn107  1  0.18748057  0.18548462  0.18774855  1
  Zn  Zn108  1  0.18259117  0.18360019  0.68663532  1
  Zn  Zn109  1  0.19306924  0.68535478  0.18462759  1
  Zn  Zn110  1  0.19949009  0.68606095  0.69032852  1
  Zn  Zn111  1  0.68941169  0.18808322  0.18456261  1
  Zn  Zn112  1  0.68584365  0.19303021  0.68685578  1
  Zn  Zn113  1  0.69468772  0.68130570  0.18706653  1
  Zn  Zn114  1  0.68710170  0.68571131  0.69352608  1
  Zn  Zn115  1  0.31735831  0.31332721  0.31522045  1
  Zn  Zn116  1  0.29676699  0.34990233  0.83441086  1
  Zn  Zn117  1  0.30653404  0.81081832  0.31301823  1
  Zn  Zn118  1  0.31175190  0.81490629  0.81365059  1
  Zn  Zn119  1  0.81101851  0.31409357  0.31546801  1
  Zn  Zn120  1  0.80995363  0.31473082  0.81217319  1
  Zn  Zn121  1  0.81385792  0.80917102  0.30930957  1
  Zn  Zn122  1  0.80477712  0.81593871  0.81188660  1
  Zn  Zn123  1  0.19090482  0.43881731  0.44103314  1
  Zn  Zn124  1  0.18797572  0.44187991  0.93402913  1
  Zn  Zn125  1  0.18819673  0.93076876  0.43619616  1
  Zn  Zn126  1  0.19174896  0.93013354  0.93546166  1
  Zn  Zn127  1  0.69066781  0.44652092  0.44230409  1
  Zn  Zn128  1  0.69270352  0.43874027  0.93711969  1
  Zn  Zn129  1  0.68582981  0.93610765  0.43474981  1
  Zn  Zn130  1  0.68804708  0.93618848  0.93782294  1
  Zn  Zn131  1  0.31148601  0.06204964  0.06046279  1
  Zn  Zn132  1  0.31300295  0.06003270  0.56129412  1
  Zn  Zn133  1  0.31300440  0.56468234  0.06876302  1
  Zn  Zn134  1  0.31126800  0.56458158  0.57217357  1
  Zn  Zn135  1  0.81257446  0.06148912  0.06150922  1
  Zn  Zn136  1  0.81158117  0.06404594  0.55825870  1
  Zn  Zn137  1  0.81101154  0.56254345  0.06384099  1
  Zn  Zn138  1  0.81630791  0.57166672  0.56218515  1
  Zn  Zn139  1  0.43967294  0.44276377  0.18973522  1
  Zn  Zn140  1  0.39879453  0.46553812  0.66527430  1
  Zn  Zn141  1  0.43677965  0.93560379  0.18893576  1
  Zn  Zn142  1  0.43705640  0.94007049  0.68554384  1
  Zn  Zn143  1  0.93688132  0.44241430  0.18655558  1
  Zn  Zn144  1  0.94137010  0.43272319  0.69073472  1
  Zn  Zn145  1  0.94047877  0.93401911  0.18478374  1
  Zn  Zn146  1  0.92447845  0.93886308  0.68307392  1
  Zn  Zn147  1  0.06343904  0.05953982  0.30879453  1
  Zn  Zn148  1  0.04208197  0.02312634  0.79155810  1
  Zn  Zn149  1  0.05918424  0.56202811  0.31361906  1
  Zn  Zn150  1  0.06557069  0.56237383  0.81565991  1
  Zn  Zn151  1  0.56027433  0.05699673  0.31089672  1
  Zn  Zn152  1  0.55932479  0.06630767  0.81191633  1
  Zn  Zn153  1  0.56198141  0.56451449  0.31741227  1
  Zn  Zn154  1  0.56192706  0.57038245  0.80451571  1
  Zn  Zn155  1  0.43822603  0.18594956  0.43513020  1
  Zn  Zn156  1  0.43326193  0.18862385  0.93708364  1
  Zn  Zn157  1  0.44253527  0.68174377  0.43721738  1
  Zn  Zn158  1  0.44180759  0.68521929  0.94154612  1
  Zn  Zn159  1  0.93459320  0.18647323  0.43556911  1
  Zn  Zn160  1  0.93763242  0.18205338  0.93711786  1
  Zn  Zn161  1  0.94181592  0.68572424  0.44187050  1
  Zn  Zn162  1  0.94027560  0.68247534  0.93569599  1
  Zn  Zn163  1  0.06299232  0.31466318  0.06166526  1
  Zn  Zn164  1  0.05993449  0.30725784  0.55819603  1
  Zn  Zn165  1  0.06706383  0.81072025  0.05500619  1
  Zn  Zn166  1  0.06329951  0.80901450  0.55053800  1
  Zn  Zn167  1  0.56394501  0.31675141  0.06455674  1
  Zn  Zn168  1  0.51110342  0.33895537  0.59078881  1
  Zn  Zn169  1  0.55928747  0.80689290  0.06166527  1
  Zn  Zn170  1  0.56641987  0.81672808  0.56238000  1
  O  O171  1  0.11853708  0.11576755  0.12401877  1
  O  O172  1  0.11421338  0.11786353  0.61611654  1
  O  O173  1  0.11950085  0.61748746  0.12142749  1
  O  O174  1  0.12767306  0.62638824  0.61712466  1
  O  O175  1  0.61860470  0.11860665  0.12048228  1
  O  O176  1  0.63010836  0.12821843  0.60787882  1
  O  O177  1  0.62181140  0.61676005  0.12100578  1
  O  O178  1  0.62817264  0.62033325  0.61748096  1
  O  O179  1  0.37304353  0.39028931  0.37506582  1
  O  O180  1  0.39728248  0.36842258  0.88897300  1
  O  O181  1  0.38203842  0.88001218  0.37222320  1
  O  O182  1  0.36783739  0.88812918  0.88407526  1
  O  O183  1  0.87983654  0.38364967  0.38065298  1
  O  O184  1  0.87132577  0.37980957  0.88746564  1
  O  O185  1  0.87590864  0.88618301  0.37120079  1
  O  O186  1  0.86681890  0.88709674  0.88228210  1
  O  O187  1  0.25575156  0.00577973  0.37358930  1
  O  O188  1  0.25360963  0.00798139  0.86855576  1
  O  O189  1  0.25451525  0.49814779  0.36438284  1
  O  O190  1  0.26123198  0.45865698  0.85533557  1
  O  O191  1  0.75691894  0.00583305  0.36779076  1
  O  O192  1  0.75411578  0.00569918  0.87073717  1
  O  O193  1  0.76583268  0.51041529  0.38140544  1
  O  O194  1  0.76197655  0.50277896  0.86830910  1
  O  O195  1  0.24378132  0.49421119  0.13328676  1
  O  O196  1  0.28390463  0.48145428  0.64419302  1
  O  O197  1  0.23631438  1.00014905  0.12444702  1
  O  O198  1  0.24445365  0.99392495  0.63007330  1
  O  O199  1  0.73797427  0.49423263  0.12178001  1
  O  O200  1  0.75207867  0.50036973  0.63409514  1
  O  O201  1  0.74450929  0.99319420  0.12847844  1
  O  O202  1  0.75222495  1.00259104  0.63702650  1
  O  O203  1  0.00522960  0.37232980  0.25488887  1
  O  O204  1  0.00956121  0.35727775  0.74763461  1
  O  O205  1  0.01429639  0.87571206  0.24981655  1
  O  O206  1  0.01033129  0.91852714  0.74927033  1
  O  O207  1  0.50008227  0.36004838  0.24299663  1
  O  O208  1  0.50856119  0.36610415  0.77341173  1
  O  O209  1  0.51145502  0.87989845  0.25703790  1
  O  O210  1  0.50046807  0.86513331  0.75029724  1
  O  O211  1  0.49798556  0.13008429  0.23961928  1
  O  O212  1  0.48606393  0.13367690  0.75539665  1
  O  O213  1  0.49376550  0.62212786  0.23907358  1
  O  O214  1  0.49791021  0.64543007  0.74759666  1
  O  O215  1  0.99419004  0.13027190  0.24427055  1
  O  O216  1  0.99452993  0.12606650  0.73826322  1
  O  O217  1  0.99324851  0.61910252  0.23778151  1
  O  O218  1  0.98418735  0.61593419  0.74953979  1
  O  O219  1  0.36944637  0.25497422  0.00913801  1
  O  O220  1  0.36185131  0.24650851  0.49361288  1
  O  O221  1  0.36854849  0.75415243  0.00542691  1
  O  O222  1  0.36217648  0.74709907  0.49181739  1
  O  O223  1  0.87330025  0.25725426  0.00425777  1
  O  O224  1  0.86900406  0.25464578  0.50588402  1
  O  O225  1  0.86794931  0.75560603  -0.00265198  1
  O  O226  1  0.88361105  0.75586469  0.50357330  1
  O  O227  1  0.12697265  0.24029765  0.49016743  1
  O  O228  1  0.12981695  0.24928234  0.99360481  1
  O  O229  1  0.13244342  0.73801398  0.48871029  1
  O  O230  1  0.14086729  0.74562796  0.99532571  1
  O  O231  1  0.63486310  0.24136497  0.48548275  1
  O  O232  1  0.62972017  0.24445778  0.99630300  1
  O  O233  1  0.62991692  0.73916695  0.50026490  1
  O  O234  1  0.63010432  0.74433357  0.99130688  1
  O  O235  1  0.49771612  0.24348870  0.13251962  1
  O  O236  1  0.51311634  0.23724311  0.64802464  1
  O  O237  1  0.48663713  0.74233271  0.12470368  1
  O  O238  1  0.50402633  0.75318586  0.63687996  1
  O  O239  1  0.99460794  0.24676321  0.12997828  1
  O  O240  1  0.99338695  0.23817056  0.62924196  1
  O  O241  1  1.00088257  0.73418758  0.11335226  1
  O  O242  1  1.00533557  0.75912342  0.63476336  1
  O  O243  1  0.00359614  0.25615873  0.36935687  1
  O  O244  1  0.00705514  0.23771652  0.86469691  1
  O  O245  1  0.01836185  0.74766625  0.37636994  1
  O  O246  1  0.01101947  0.75274675  0.87992125  1
  O  O247  1  0.50726527  0.24710147  0.36135726  1
  O  O248  1  0.51147497  0.24576075  0.87197185  1
  O  O249  1  0.50318765  0.76023065  0.37434299  1
  O  O250  1  0.51171771  0.75237933  0.87145817  1
  O  O251  1  0.24571828  0.12845581  0.48778965  1
  O  O252  1  0.24863535  0.13408200  0.99365251  1
  O  O253  1  0.24528628  0.63511678  0.50488983  1
  O  O254  1  0.25262536  0.63629404  1.00253370  1
  O  O255  1  0.74135580  0.13184333  0.49149152  1
  O  O256  1  0.74455334  0.13206955  0.99634954  1
  O  O257  1  0.73964221  0.62146251  0.49260313  1
  O  O258  1  0.74308079  0.63314451  0.99824092  1
  O  O259  1  0.25858223  0.36877812  0.00824110  1
  O  O260  1  0.24465645  0.35602833  0.49690440  1
  O  O261  1  0.26157268  0.86361970  0.00458047  1
  O  O262  1  0.25176044  0.86154547  0.50513226  1
  O  O263  1  0.75847369  0.36964619  0.00737380  1
  O  O264  1  0.75732646  0.36375320  0.49496604  1
  O  O265  1  0.75929150  0.86857437  0.00453781  1
  O  O266  1  0.74638589  0.88195123  0.51535939  1
  O  O267  1  0.13304811  0.49606247  0.24777593  1
  O  O268  1  0.12220841  0.47907652  0.75301939  1
  O  O269  1  0.12598161  0.99133279  0.24024814  1
  O  O270  1  0.14265610  1.01421810  0.73940387  1
  O  O271  1  0.62765221  0.50533758  0.23942285  1
  O  O272  1  0.63798356  0.50591039  0.73647796  1
  O  O273  1  0.63201053  0.99186193  0.24258022  1
  O  O274  1  0.63739776  1.00106995  0.75891700  1
  O  O275  1  0.37277239  0.00644487  0.25949478  1
  O  O276  1  0.36411980  0.00872070  0.75787796  1
  O  O277  1  0.36882502  0.50725335  0.25429569  1
  O  O278  1  0.39621435  0.51882340  0.76682956  1
  O  O279  1  0.87055180  0.00419360  0.25259248  1
  O  O280  1  0.85896370  0.00486497  0.75961566  1
  O  O281  1  0.88149996  0.51050900  0.26127311  1
  O  O282  1  0.86812246  0.49960861  0.75412586  1
  O  O283  1  0.11989280  0.37043211  0.36908628  1
  O  O284  1  0.12219395  0.35933007  0.86808808  1
  O  O285  1  0.12246133  0.86349729  0.36688256  1
  O  O286  1  0.13053896  0.85253701  0.88060903  1
  O  O287  1  0.63697635  0.36958280  0.37243921  1
  O  O288  1  0.61791100  0.36732148  0.88221339  1
  O  O289  1  0.61912349  0.87240330  0.36505761  1
  O  O290  1  0.62804761  0.86151768  0.87493489  1
  O  O291  1  0.38168561  0.12874037  0.12971491  1
  O  O292  1  0.37092837  0.12429763  0.63854548  1
  O  O293  1  0.38474827  0.62966597  0.13303048  1
  O  O294  1  0.37857002  0.62701844  0.64497114  1
  O  O295  1  0.88014949  0.13085528  0.12931086  1
  O  O296  1  0.88049929  0.13513141  0.62237891  1
  O  O297  1  0.88264493  0.62306446  0.13263464  1
  O  O298  1  0.87950992  0.63169717  0.63886364  1
  O  O299  1  0.25518657  0.25519463  0.12171794  1
  O  O300  1  0.24571539  0.23959113  0.60615158  1
  O  O301  1  0.26256681  0.74798736  0.11489879  1
  O  O302  1  0.24385695  0.75735786  0.61006075  1
  O  O303  1  0.75703599  0.25692819  0.11877720  1
  O  O304  1  0.75834029  0.24601005  0.61291918  1
  O  O305  1  0.75150740  0.75367129  0.11153174  1
  O  O306  1  0.75076481  0.76201691  0.63212017  1
  O  O307  1  0.24547582  0.24133249  0.38009846  1
  O  O308  1  0.24379811  0.24806872  0.88413053  1
  O  O309  1  0.23866556  0.75229464  0.38882739  1
  O  O310  1  0.25158248  0.75027926  0.88832968  1
  O  O311  1  0.76083882  0.23782908  0.38382941  1
  O  O312  1  0.74051658  0.24617967  0.88017138  1
  O  O313  1  0.75004407  0.73780899  0.37314623  1
  O  O314  1  0.74103681  0.74859124  0.88418344  1
  O  O315  1  0.00198890  0.11562115  0.00853420  1
  O  O316  1  0.00333595  0.11713677  0.50188841  1
  O  O317  1  -0.00192633  0.60973619  0.00806825  1
  O  O318  1  0.01161915  0.61685130  0.50746342  1
  O  O319  1  0.50254731  0.12594871  0.01285339  1
  O  O320  1  0.51721893  0.12992345  0.49680648  1
  O  O321  1  0.51063708  0.63015503  0.01518843  1
  O  O322  1  0.52030173  0.62910227  0.50254728  1
  O  O323  1  0.52000516  0.35866249  0.47945093  1
  O  O324  1  0.49596096  0.37340140  0.99165303  1
  O  O325  1  0.49908549  0.87502919  0.48952658  1
  O  O326  1  0.48438754  0.87419215  1.00497415  1
  O  O327  1  0.99504331  0.38077364  0.49360819  1
  O  O328  1  0.99100673  0.38761388  1.00680493  1
  O  O329  1  1.00100688  0.88925277  0.49187534  1
  O  O330  1  0.98758239  0.88129927  1.00460749  1
  O  O331  1  0.48968973  0.49916324  0.37402736  1
  O  O332  1  0.51463752  0.49076182  0.87657567  1
  O  O333  1  0.49249961  0.99063215  0.37764112  1
  O  O334  1  0.48407642  1.00826435  0.87806293  1
  O  O335  1  0.99084773  0.49600797  0.38369737  1
  O  O336  1  0.98654181  0.50124436  0.88247937  1
  O  O337  1  0.99051987  1.00242845  0.37868238  1
  O  O338  1  0.98668225  1.00978431  0.89049302  1
  O  O339  1  0.00905011  0.00261128  0.11532235  1
  O  O340  1  -0.00207314  0.01066118  0.61142431  1
  O  O341  1  0.00810751  0.50610269  0.11823474  1
  O  O342  1  -0.00357666  0.49930189  0.61439004  1
  O  O343  1  0.50441796  0.00762110  0.12350419  1
  O  O344  1  0.49515375  0.00804412  0.61991624  1
  O  O345  1  0.51579678  0.50630196  0.12711625  1
  O  O346  1  0.51042099  0.51026825  0.62987063  1
  O  O347  1  0.24621351  0.38024802  0.24480956  1
  O  O348  1  0.23022107  0.34810022  0.73801480  1
  O  O349  1  0.23671847  0.87644200  0.24584865  1
  O  O350  1  0.25245088  0.88425088  0.74157968  1
  O  O351  1  0.75858013  0.37291288  0.23456887  1
  O  O352  1  0.74604383  0.39125683  0.75414103  1
  O  O353  1  0.74401274  0.87833355  0.24243322  1
  O  O354  1  0.74619687  0.88830986  0.74041776  1
  O  O355  1  0.25518257  0.12407946  0.26141673  1
  O  O356  1  0.25543014  0.12282765  0.75682993  1
  O  O357  1  0.26268430  0.61404890  0.24372627  1
  O  O358  1  0.26517832  0.62004522  0.75411471  1
  O  O359  1  0.75546538  0.12041903  0.25380039  1
  O  O360  1  0.74842338  0.11788676  0.75515642  1
  O  O361  1  0.76199626  0.62364112  0.26019948  1
  O  O362  1  0.76254427  0.61357952  0.75100558  1
  O  O363  1  0.36959930  0.11717857  0.36966834  1
  O  O364  1  0.36210110  0.12044495  0.87074506  1
  O  O365  1  0.38148679  0.61786604  0.36289685  1
  O  O366  1  0.38143603  0.64072948  0.85978975  1
  O  O367  1  0.86720674  0.11505960  0.36850192  1
  O  O368  1  0.86420218  0.11461934  0.87669566  1
  O  O369  1  0.87281523  0.62054348  0.36951323  1
  O  O370  1  0.87255109  0.61705627  0.86501725  1
  O  O371  1  0.13059812  0.38106143  0.13201603  1
  O  O372  1  0.11673831  0.37065102  0.63433248  1
  O  O373  1  0.12561112  0.87961608  0.12949972  1
  O  O374  1  0.13390046  0.88012977  0.62179803  1
  O  O375  1  0.63314580  0.39026415  0.12123651  1
  O  O376  1  0.61335171  0.39145179  0.62861096  1
  O  O377  1  0.62813912  0.87701847  0.12897372  1
  O  O378  1  0.63789000  0.87731146  0.63048093  1
  O  O379  1  0.11953778  0.25521779  0.25515722  1
  O  O380  1  0.11373232  0.24899130  0.75543720  1
  O  O381  1  0.13419568  0.75117925  0.26211258  1
  O  O382  1  0.12860160  0.74612423  0.76253895  1
  O  O383  1  0.61376609  0.24904593  0.24352175  1
  O  O384  1  0.62214277  0.25320138  0.76210831  1
  O  O385  1  0.63085986  0.75937588  0.24816645  1
  O  O386  1  0.62017171  0.75176752  0.76372435  1
  O  O387  1  0.38402636  0.24315923  0.24540011  1
  O  O388  1  0.37864282  0.24425256  0.75616888  1
  O  O389  1  0.36670832  0.74056245  0.24297355  1
  O  O390  1  0.38669547  0.75371193  0.75099017  1
  O  O391  1  0.88094058  0.24549857  0.24448302  1
  O  O392  1  0.87886666  0.24871961  0.74386923  1
  O  O393  1  0.87677118  0.73626334  0.24590981  1
  O  O394  1  0.87163855  0.73873435  0.75558009  1
  O  O395  1  0.37280687  0.50984598  0.48602135  1
  O  O396  1  0.37411737  0.48959506  1.00745596  1
  O  O397  1  0.37477720  0.99819333  0.48545169  1
  O  O398  1  0.37359353  0.99234984  0.99295569  1
  O  O399  1  0.88362144  0.49766883  0.49570097  1
  O  O400  1  0.87878978  0.49393026  0.99294875  1
  O  O401  1  0.88076955  0.99916412  0.48830738  1
  O  O402  1  0.87968233  0.99159638  0.99512038  1
  O  O403  1  0.11774470  -0.00314306  0.00383761  1
  O  O404  1  0.11785986  0.00442133  0.50180585  1
  O  O405  1  0.11786346  0.49840675  0.00346625  1
  O  O406  1  0.11810983  0.51046649  0.49311188  1
  O  O407  1  0.62225364  0.00487125  0.00567208  1
  O  O408  1  0.62567251  0.01640287  0.49352775  1
  O  O409  1  0.63191372  0.51261612  0.00423914  1
  O  O410  1  0.63115869  0.50894778  0.51806827  1
  O  O411  1  0.37348008  0.37051587  0.12049468  1
  O  O412  1  0.41047797  0.35944229  0.63415703  1
  O  O413  1  0.37264224  0.86686212  0.12172891  1
  O  O414  1  0.35883883  0.88077996  0.62077744  1
  O  O415  1  0.86982447  0.37444776  0.11489391  1
  O  O416  1  0.88201875  0.36088267  0.61937713  1
  O  O417  1  0.86954891  0.87193372  0.11632032  1
  O  O418  1  0.85706680  0.87560584  0.62147553  1
  O  O419  1  0.13278265  0.12807978  0.37576642  1
  O  O420  1  0.13934244  0.13386255  0.87598252  1
  O  O421  1  0.12507996  0.63259124  0.37953758  1
  O  O422  1  0.12177130  0.63873650  0.87919688  1
  O  O423  1  0.63683328  0.12032045  0.37500840  1
  O  O424  1  0.62913360  0.13147992  0.88304517  1
  O  O425  1  0.63445121  0.62522540  0.38535312  1
  O  O426  1  0.62564663  0.63509495  0.88229857  1
