# generated using pymatgen
data_V85Zn86O256
_symmetry_space_group_name_H-M   'P 1'
_cell_length_a   16.97147621
_cell_length_b   16.97697329
_cell_length_c   16.94815759
_cell_angle_alpha   90.01440423
_cell_angle_beta   90.00448672
_cell_angle_gamma   90.07559163
_symmetry_Int_Tables_number   1
_chemical_formula_structural   V85Zn86O256
_chemical_formula_sum   'V85 Zn86 O256'
_cell_volume   4883.17159704
_cell_formula_units_Z   1
loop_
 _symmetry_equiv_pos_site_id
 _symmetry_equiv_pos_as_xyz
  1  'x, y, z'
loop_
 _atom_site_type_symbol
 _atom_site_label
 _atom_site_symmetry_multiplicity
 _atom_site_fract_x
 _atom_site_fract_y
 _atom_site_fract_z
 _atom_site_occupancy
  V  V0  1  0.62566938  0.12520293  0.00324602  1
  V  V1  1  0.37264004  0.87212801  0.50230073  1
  V  V2  1  0.87455382  0.87464984  0.50403692  1
  V  V3  1  0.25459861  0.61751343  0.37500556  1
  V  V4  1  0.25149353  -0.00750844  0.24474812  1
  V  V5  1  0.50234114  0.24779893  0.25062860  1
  V  V6  1  0.24315570  0.37518083  0.62528553  1
  V  V7  1  0.49941234  0.37739351  0.37709587  1
  V  V8  1  0.65035134  0.09213262  0.52126163  1
  V  V9  1  0.87555281  0.12279922  0.75228753  1
  V  V10  1  0.75321789  0.12897257  0.37382486  1
  V  V11  1  0.62509213  0.24770918  0.38485336  1
  V  V12  1  0.88599939  0.24952654  0.63046375  1
  V  V13  1  0.37545310  0.49890504  0.87006641  1
  V  V14  1  0.00111789  0.51031376  -0.00072294  1
  V  V15  1  0.25168406  0.24670485  -0.00955194  1
  V  V16  1  0.87821285  0.37743600  0.49847441  1
  V  V17  1  0.74064925  0.62557490  0.87631738  1
  V  V18  1  0.37105141  0.74937185  0.11863684  1
  V  V19  1  0.74053368  0.74426397  0.00147050  1
  V  V20  1  0.50337709  0.50325126  -0.00426298  1
  V  V21  1  0.37711476  0.61827737  0.25060624  1
  V  V22  1  0.75747354  0.37486685  0.63351583  1
  V  V23  1  0.88227425  0.74722185  0.12882034  1
  V  V24  1  -0.00098443  0.87381116  0.87451768  1
  V  V25  1  -0.00147973  0.87447283  0.37097234  1
  V  V26  1  0.88838164  0.62978457  0.24880534  1
  V  V27  1  0.12964979  0.11856224  0.50055229  1
  V  V28  1  0.37295455  -0.00226354  0.37358344  1
  V  V29  1  0.12114640  0.50606494  0.62926516  1
  V  V30  1  0.75282536  0.25104799  0.00108105  1
  V  V31  1  0.24925124  0.75064250  0.50095116  1
  V  V32  1  0.12617818  0.87831434  0.74483987  1
  V  V33  1  -0.00390854  -0.00091848  0.00164749  1
  V  V34  1  0.74348674  -0.00096817  0.24879074  1
  V  V35  1  0.00333426  0.74489899  0.74987943  1
  V  V36  1  0.62709595  0.75216080  0.37930256  1
  V  V37  1  0.87700666  0.37626217  0.00100828  1
  V  V38  1  0.62399994  0.50908787  0.12057939  1
  V  V39  1  -0.00001718  0.50997779  0.50274071  1
  V  V40  1  0.11945749  0.37096901  0.75369497  1
  V  V41  1  0.59386335  0.46442889  0.64468419  1
  V  V42  1  0.62177121  0.62296209  0.50885179  1
  V  V43  1  0.87248379  0.87152452  0.00178879  1
  V  V44  1  0.12404208  0.62790133  0.50467997  1
  V  V45  1  0.87619204  0.75176709  0.62967491  1
  V  V46  1  0.87387802  0.13044260  0.24281898  1
  V  V47  1  0.50008597  0.76900572  0.75852543  1
  V  V48  1  0.12287974  0.74949391  0.37307349  1
  V  V49  1  0.74911922  0.12199497  0.87147890  1
  V  V50  1  0.62727414  0.37532177  0.25251449  1
  V  V51  1  0.25081279  0.24735199  0.49763957  1
  V  V52  1  0.36293584  0.00115552  0.87628542  1
  V  V53  1  0.12090731  0.86858827  0.24798640  1
  V  V54  1  0.38015607  0.11996589  0.24995724  1
  V  V55  1  -0.00531886  0.13841702  0.12336645  1
  V  V56  1  0.74984767  0.37333017  0.12418285  1
  V  V57  1  0.74158132  0.87739765  0.12428783  1
  V  V58  1  0.87497470  0.50330876  0.37556562  1
  V  V59  1  0.37284714  0.37712851  0.49508461  1
  V  V60  1  0.12417849  0.49257183  0.13167714  1
  V  V61  1  0.37821481  0.24922116  0.12352890  1
  V  V62  1  0.49642509  0.12712664  0.63262913  1
  V  V63  1  0.38167245  0.37466999  -0.00442766  1
  V  V64  1  0.25516256  0.63292054  0.86956077  1
  V  V65  1  0.50466177  0.11100951  0.12572439  1
  V  V66  1  0.49569428  0.00101139  0.50722385  1
  V  V67  1  0.74890828  0.49925523  0.74803395  1
  V  V68  1  0.49667137  0.62974298  0.63974480  1
  V  V69  1  0.74803496  0.50606472  0.25169240  1
  V  V70  1  0.74790993  0.74990798  0.51161076  1
  V  V71  1  0.00661589  0.12113879  0.63080662  1
  V  V72  1  0.75188007  0.25699745  0.49966889  1
  V  V73  1  0.50107136  0.87185863  0.37769368  1
  V  V74  1  0.87863258  0.62397934  0.74980018  1
  V  V75  1  0.37178594  0.74848205  0.63330807  1
  V  V76  1  0.12992543  0.12385681  -0.00532576  1
  V  V77  1  0.50573855  -0.00954267  -0.01167351  1
  V  V78  1  0.00846588  -0.00385208  0.50451062  1
  V  V79  1  0.49319868  0.50416379  0.49800912  1
  V  V80  1  0.61500009  0.26062020  0.86347873  1
  V  V81  1  0.24452823  0.01297879  0.74484612  1
  V  V82  1  0.12372163  -0.00327174  0.12270747  1
  V  V83  1  0.13519550  0.63025163  0.00741542  1
  V  V84  1  0.65588199  0.89991441  0.74452851  1
  Zn  Zn85  1  0.37645706  0.25334406  0.63405563  1
  Zn  Zn86  1  0.87540443  0.50041727  0.87523336  1
  Zn  Zn87  1  0.25108186  0.50233513  0.75095899  1
  Zn  Zn88  1  0.24781467  0.37191249  0.12834040  1
  Zn  Zn89  1  0.37602587  0.13816447  0.76199289  1
  Zn  Zn90  1  0.50157153  0.74785057  0.24893377  1
  Zn  Zn91  1  0.50190055  0.62716657  0.12358569  1
  Zn  Zn92  1  0.24968372  0.48863705  0.25653853  1
  Zn  Zn93  1  0.13111243  0.26922932  0.34759712  1
  Zn  Zn94  1  0.74862500  0.62664798  0.37916642  1
  Zn  Zn95  1  0.62392019  0.87590311  0.24946749  1
  Zn  Zn96  1  0.24488187  0.87865448  0.62552388  1
  Zn  Zn97  1  0.61993150  0.75838328  0.87484905  1
  Zn  Zn98  1  0.12066392  0.24201185  0.86771193  1
  Zn  Zn99  1  0.01122005  0.37574044  0.35187876  1
  Zn  Zn100  1  0.86885050  -0.00338178  0.86998607  1
  Zn  Zn101  1  0.37166360  0.86752914  -0.00977720  1
  Zn  Zn102  1  0.24681120  0.86696721  0.11002294  1
  Zn  Zn103  1  0.13124477  0.75268297  0.88067358  1
  Zn  Zn104  1  -0.00219717  0.37294981  0.87440276  1
  Zn  Zn105  1  0.87817892  0.00142697  0.37417809  1
  Zn  Zn106  1  0.24942209  0.12639586  0.37084135  1
  Zn  Zn107  1  0.19369717  0.18352766  0.18123268  1
  Zn  Zn108  1  0.18531437  0.19132636  0.68184311  1
  Zn  Zn109  1  0.19045478  0.68460624  0.18812853  1
  Zn  Zn110  1  0.18724104  0.68872645  0.69136136  1
  Zn  Zn111  1  0.68812940  0.18922985  0.18787209  1
  Zn  Zn112  1  0.69117336  0.18778575  0.68918152  1
  Zn  Zn113  1  0.69067022  0.69057828  0.19077004  1
  Zn  Zn114  1  0.68272316  0.68839598  0.69110304  1
  Zn  Zn115  1  0.31279621  0.31217611  0.31193962  1
  Zn  Zn116  1  0.31056993  0.31412087  0.81147363  1
  Zn  Zn117  1  0.31253257  0.80541056  0.30832054  1
  Zn  Zn118  1  0.31413318  0.81884231  0.81384733  1
  Zn  Zn119  1  0.85195923  0.33461889  0.28252192  1
  Zn  Zn120  1  0.81301872  0.30771931  0.81555438  1
  Zn  Zn121  1  0.81062732  0.81174710  0.31515730  1
  Zn  Zn122  1  0.80978792  0.81281338  0.81404561  1
  Zn  Zn123  1  0.18367899  0.43695207  0.43822094  1
  Zn  Zn124  1  0.19328545  0.43927850  0.94159775  1
  Zn  Zn125  1  0.18620471  0.93708351  0.43626191  1
  Zn  Zn126  1  0.18740902  0.93570056  0.93531329  1
  Zn  Zn127  1  0.68424975  0.44014959  0.44417241  1
  Zn  Zn128  1  0.68542393  0.43721058  0.93497823  1
  Zn  Zn129  1  0.69608874  0.94101617  0.45083991  1
  Zn  Zn130  1  0.68475300  0.93541421  0.93289205  1
  Zn  Zn131  1  0.31468629  0.05843293  0.06020196  1
  Zn  Zn132  1  0.31517959  0.06261293  0.56751853  1
  Zn  Zn133  1  0.31207146  0.56122763  0.06335315  1
  Zn  Zn134  1  0.31211836  0.56404426  0.56399050  1
  Zn  Zn135  1  0.81085950  0.05887160  0.06174210  1
  Zn  Zn136  1  0.82084590  0.06299156  0.56143400  1
  Zn  Zn137  1  0.81328668  0.56430745  0.06369197  1
  Zn  Zn138  1  0.81209375  0.56678236  0.56795886  1
  Zn  Zn139  1  0.43739769  0.43633298  0.18637539  1
  Zn  Zn140  1  0.42747743  0.43416533  0.68562781  1
  Zn  Zn141  1  0.44037162  0.92964802  0.18629390  1
  Zn  Zn142  1  0.43082837  0.94109939  0.69011595  1
  Zn  Zn143  1  0.94133332  0.44607352  0.17935376  1
  Zn  Zn144  1  0.94170586  0.44154482  0.68727831  1
  Zn  Zn145  1  0.93133244  0.93912907  0.18843891  1
  Zn  Zn146  1  0.93461676  0.93786671  0.68856933  1
  Zn  Zn147  1  0.08097216  0.09236553  0.29389420  1
  Zn  Zn148  1  0.05991724  0.06097646  0.81317713  1
  Zn  Zn149  1  0.06359988  0.56172936  0.31600025  1
  Zn  Zn150  1  0.06577526  0.56154013  0.81928619  1
  Zn  Zn151  1  0.56615996  0.06072127  0.32262103  1
  Zn  Zn152  1  0.56895637  0.06166178  0.81448268  1
  Zn  Zn153  1  0.56209934  0.56502433  0.31511046  1
  Zn  Zn154  1  0.56085283  0.56181166  0.81454504  1
  Zn  Zn155  1  0.43843593  0.18533218  0.44362518  1
  Zn  Zn156  1  0.44071460  0.18395666  0.93610023  1
  Zn  Zn157  1  0.43537508  0.68672786  0.43923917  1
  Zn  Zn158  1  0.43937039  0.68252895  0.93725410  1
  Zn  Zn159  1  0.94136268  0.18782898  0.43113691  1
  Zn  Zn160  1  0.93822893  0.19207003  0.93627357  1
  Zn  Zn161  1  0.93750563  0.68986417  0.43581003  1
  Zn  Zn162  1  0.93418385  0.68705088  0.93616672  1
  Zn  Zn163  1  0.06226416  0.31379519  0.05364252  1
  Zn  Zn164  1  0.04693943  0.29615185  0.51845514  1
  Zn  Zn165  1  0.06173079  0.81013813  0.06281352  1
  Zn  Zn166  1  0.05955676  0.80947170  0.56624968  1
  Zn  Zn167  1  0.56343767  0.31343549  0.05922458  1
  Zn  Zn168  1  0.55975146  0.31236949  0.57277553  1
  Zn  Zn169  1  0.55995871  0.80952944  0.06430229  1
  Zn  Zn170  1  0.56471188  0.81831154  0.57317176  1
  O  O171  1  0.11119536  0.11449457  0.11465718  1
  O  O172  1  0.11644079  0.12541266  0.61574424  1
  O  O173  1  0.13004471  0.61923066  0.11182964  1
  O  O174  1  0.13201942  0.61888032  0.61678601  1
  O  O175  1  0.61867651  0.13038522  0.11332750  1
  O  O176  1  0.61944779  0.13108798  0.61415806  1
  O  O177  1  0.62615181  0.61181009  0.13228488  1
  O  O178  1  0.61096682  0.62787943  0.62161020  1
  O  O179  1  0.38202028  0.37006896  0.38853171  1
  O  O180  1  0.36702799  0.38328924  0.88863250  1
  O  O181  1  0.38193943  0.87664377  0.38082239  1
  O  O182  1  0.37738792  0.89513209  0.87348596  1
  O  O183  1  0.86840793  0.39282655  0.38621921  1
  O  O184  1  0.87125468  0.37820149  0.88895836  1
  O  O185  1  0.88274028  0.87323460  0.38341064  1
  O  O186  1  0.88460755  0.87540942  0.88095516  1
  O  O187  1  0.26253405  -0.00443836  0.36830078  1
  O  O188  1  0.25768760  0.00332205  0.86656332  1
  O  O189  1  0.24698112  0.51477171  0.37760937  1
  O  O190  1  0.25883988  0.50949294  0.87642484  1
  O  O191  1  0.75424942  0.01346587  0.37315412  1
  O  O192  1  0.75354304  0.01837188  0.88844444  1
  O  O193  1  0.75300467  0.50317301  0.36938420  1
  O  O194  1  0.74881127  0.50612160  0.86333687  1
  O  O195  1  0.23447761  0.49859706  0.12296908  1
  O  O196  1  0.23939634  0.49543640  0.62394396  1
  O  O197  1  0.24488789  0.99499918  0.13112735  1
  O  O198  1  0.25456399  0.99677588  0.64123060  1
  O  O199  1  0.74236221  0.49472585  0.13109108  1
  O  O200  1  0.75386209  0.49319193  0.63785007  1
  O  O201  1  0.75241791  0.98972112  0.13458000  1
  O  O202  1  0.71860837  1.01494200  0.55487770  1
  O  O203  1  -0.04235281  0.36778035  0.25415823  1
  O  O204  1  0.01607266  0.37904726  0.74937022  1
  O  O205  1  0.00863729  0.88282272  0.25853321  1
  O  O206  1  0.00377622  0.87092508  0.75799748  1
  O  O207  1  0.50523355  0.36795298  0.25702474  1
  O  O208  1  0.52818462  0.38473637  0.67442904  1
  O  O209  1  0.50478858  0.87252765  0.26434801  1
  O  O210  1  0.49874069  0.86837673  0.75012730  1
  O  O211  1  0.50115411  0.12588666  0.24505697  1
  O  O212  1  0.50396728  0.11490622  0.73430757  1
  O  O213  1  0.49176244  0.62660764  0.25033164  1
  O  O214  1  0.49859049  0.62958310  0.74159967  1
  O  O215  1  0.98711714  0.11336377  0.23018140  1
  O  O216  1  0.99753230  0.12381410  0.73812109  1
  O  O217  1  0.98724010  0.62600969  0.25793395  1
  O  O218  1  0.99217290  0.63351283  0.76081979  1
  O  O219  1  0.37300995  0.25327574  0.00461987  1
  O  O220  1  0.36554695  0.25638228  0.50325295  1
  O  O221  1  0.38392466  0.74886200  0.01426705  1
  O  O222  1  0.36800241  0.75527886  0.50757115  1
  O  O223  1  0.86029063  0.25922292  -0.00054397  1
  O  O224  1  0.87103675  0.26220522  0.50448321  1
  O  O225  1  0.86558724  0.75411504  0.00650365  1
  O  O226  1  0.87031984  0.75200176  0.51027046  1
  O  O227  1  0.14223050  0.23531873  0.50322109  1
  O  O228  1  0.13796350  0.24014760  1.00714808  1
  O  O229  1  0.12966915  0.74578187  0.49738759  1
  O  O230  1  0.11922976  0.73383301  0.99881909  1
  O  O231  1  0.63266554  0.25694548  0.49188230  1
  O  O232  1  0.63490041  0.24393236  0.99604387  1
  O  O233  1  0.63213924  0.74817954  0.50193378  1
  O  O234  1  0.63646453  0.75530247  0.99571789  1
  O  O235  1  0.49344358  0.23976211  0.12770456  1
  O  O236  1  0.49532647  0.22994300  0.61661042  1
  O  O237  1  0.49166398  0.74598232  0.12966706  1
  O  O238  1  0.49122267  0.74772935  0.63525427  1
  O  O239  1  1.00088905  0.23618979  0.11756373  1
  O  O240  1  0.99014764  0.23967976  0.61016017  1
  O  O241  1  0.98142063  0.75573735  0.12293030  1
  O  O242  1  0.99289074  0.75016866  0.64125782  1
  O  O243  1  0.01585098  0.26651910  0.40597230  1
  O  O244  1  0.01134824  0.26194938  0.89204721  1
  O  O245  1  0.00819496  0.76417383  0.38192801  1
  O  O246  1  -0.00049604  0.75796980  0.86642543  1
  O  O247  1  0.50822904  0.25337890  0.37383619  1
  O  O248  1  0.51625598  0.24742694  0.88107190  1
  O  O249  1  0.50672236  0.75975901  0.38050272  1
  O  O250  1  0.49820278  0.74768834  0.86197311  1
  O  O251  1  0.24715182  0.12910786  0.50265931  1
  O  O252  1  0.24066389  0.13095042  1.00731826  1
  O  O253  1  0.24623594  0.63277462  0.49386017  1
  O  O254  1  0.23909592  0.62266639  0.99270763  1
  O  O255  1  0.75398403  0.14123747  0.49206523  1
  O  O256  1  0.74426821  0.13371246  1.00043784  1
  O  O257  1  0.74082323  0.63140516  0.50289681  1
  O  O258  1  0.75464246  0.63310432  0.99036122  1
  O  O259  1  0.25876914  0.36427877  0.00789541  1
  O  O260  1  0.25397801  0.36847996  0.50359918  1
  O  O261  1  0.25705059  0.87720195  -0.00255229  1
  O  O262  1  0.25355151  0.86825753  0.50279930  1
  O  O263  1  0.75270422  0.37043086  0.00620692  1
  O  O264  1  0.76439982  0.37747268  0.50693354  1
  O  O265  1  0.75393038  0.86981046  0.00619087  1
  O  O266  1  0.76709649  0.86357709  0.49780471  1
  O  O267  1  0.12509120  0.50900365  0.23427006  1
  O  O268  1  0.12636818  0.49519981  0.74269685  1
  O  O269  1  0.13457634  0.99372629  0.24388851  1
  O  O270  1  0.13744944  0.99455754  0.75754899  1
  O  O271  1  0.63200461  0.49436828  0.24728351  1
  O  O272  1  0.63094690  0.50253710  0.73841027  1
  O  O273  1  0.63843183  0.99676792  0.26008833  1
  O  O274  1  0.63939163  0.99917409  0.75065202  1
  O  O275  1  0.37147192  -0.00264254  0.25548256  1
  O  O276  1  0.36138790  0.00532560  0.75972027  1
  O  O277  1  0.37328506  0.51414019  0.24269598  1
  O  O278  1  0.37343080  0.49232517  0.76488056  1
  O  O279  1  0.86139054  0.00802954  0.25324760  1
  O  O280  1  0.88017556  0.01635119  0.75203094  1
  O  O281  1  0.86643909  0.51100033  0.25757585  1
  O  O282  1  0.86987040  0.50852525  0.75096464  1
  O  O283  1  0.12326853  0.37929125  0.36710940  1
  O  O284  1  0.13039623  0.38100713  0.85869942  1
  O  O285  1  0.11885664  0.87021632  0.36700160  1
  O  O286  1  0.11295418  0.87293715  0.86753249  1
  O  O287  1  0.62186273  0.36792924  0.37219426  1
  O  O288  1  0.62959990  0.35987832  0.87475596  1
  O  O289  1  0.61978233  0.86444867  0.38335457  1
  O  O290  1  0.63650446  0.87281033  0.85117017  1
  O  O291  1  0.38630125  0.12767226  0.12992445  1
  O  O292  1  0.38763661  0.12609158  0.62981235  1
  O  O293  1  0.37543821  0.63291173  0.13125821  1
  O  O294  1  0.38097082  0.64045020  0.62024331  1
  O  O295  1  0.88684407  0.11947904  0.12611995  1
  O  O296  1  0.88154938  0.13166716  0.63063917  1
  O  O297  1  0.86945732  0.63357143  0.13708640  1
  O  O298  1  0.87225903  0.63635430  0.64009174  1
  O  O299  1  0.26708674  0.24459759  0.11878843  1
  O  O300  1  0.25154185  0.26026874  0.61634896  1
  O  O301  1  0.26626717  0.74965168  0.12951528  1
  O  O302  1  0.25648793  0.75231675  0.62186328  1
  O  O303  1  0.74154332  0.26582402  0.11897476  1
  O  O304  1  0.76423665  0.25634184  0.62122161  1
  O  O305  1  0.75465663  0.75485940  0.11733835  1
  O  O306  1  0.75722546  0.74526155  0.61797371  1
  O  O307  1  0.24998261  0.24420211  0.38305360  1
  O  O308  1  0.24393511  0.25222079  0.88812394  1
  O  O309  1  0.24201853  0.74398932  0.38154686  1
  O  O310  1  0.25291303  0.73692499  0.87118651  1
  O  O311  1  0.74108493  0.23954309  0.37672351  1
  O  O312  1  0.74398403  0.24047079  0.88455637  1
  O  O313  1  0.74273142  0.74811644  0.38979106  1
  O  O314  1  0.75008287  0.74219801  0.88367338  1
  O  O315  1  0.00086570  0.11586948  0.00872193  1
  O  O316  1  0.00802116  0.11347730  0.50590792  1
  O  O317  1  0.01112105  0.61587305  -0.01016878  1
  O  O318  1  0.00473677  0.61674159  0.49671855  1
  O  O319  1  0.50834502  0.11587659  0.00768283  1
  O  O320  1  0.50410891  0.11393715  0.50970793  1
  O  O321  1  0.49825280  0.60845615  0.00412539  1
  O  O322  1  0.50226430  0.61905464  0.50652188  1
  O  O323  1  0.49053842  0.38185978  0.49934387  1
  O  O324  1  0.49101537  0.38511928  1.00467355  1
  O  O325  1  0.49329099  0.87950769  0.49646505  1
  O  O326  1  0.49884971  0.88929650  1.00460178  1
  O  O327  1  0.98552513  0.39388847  0.50769412  1
  O  O328  1  0.99012837  0.38823613  1.00392681  1
  O  O329  1  0.99253888  0.87744305  0.49832089  1
  O  O330  1  0.99575679  0.87920891  0.99272319  1
  O  O331  1  0.50935331  0.49142775  0.38804087  1
  O  O332  1  0.49071557  0.50333048  0.88224702  1
  O  O333  1  0.48672620  0.99026396  0.37809645  1
  O  O334  1  0.49652797  1.00288458  0.88621308  1
  O  O335  1  0.99060560  0.49922300  0.38390251  1
  O  O336  1  0.99768414  0.49347198  0.88442326  1
  O  O337  1  0.99884073  0.98481580  0.38719407  1
  O  O338  1  0.99663318  0.99249128  0.88604175  1
  O  O339  1  0.00331751  -0.00403578  0.11259662  1
  O  O340  1  -0.00616089  0.00976953  0.61726805  1
  O  O341  1  0.01366035  0.50547868  0.11516388  1
  O  O342  1  0.01264791  0.50317328  0.61911720  1
  O  O343  1  0.49590777  0.00799655  0.11711080  1
  O  O344  1  0.49262598  0.00768421  0.61586727  1
  O  O345  1  0.50968220  0.50039781  0.11903627  1
  O  O346  1  0.49247073  0.51596817  0.62018948  1
  O  O347  1  0.25938464  0.37684829  0.24139525  1
  O  O348  1  0.24124312  0.38128457  0.74007622  1
  O  O349  1  0.24314444  0.88246793  0.24988221  1
  O  O350  1  0.24030631  0.88471900  0.75117201  1
  O  O351  1  0.75163826  0.38749246  0.24237891  1
  O  O352  1  0.75980577  0.38363154  0.74378899  1
  O  O353  1  0.74938578  0.88194946  0.24439988  1
  O  O354  1  0.75663843  0.88491541  0.74463736  1
  O  O355  1  0.26354123  0.10652058  0.24939419  1
  O  O356  1  0.24613619  0.11529708  0.74645229  1
  O  O357  1  0.25692528  0.62174281  0.25991866  1
  O  O358  1  0.24686836  0.62128669  0.76560032  1
  O  O359  1  0.75006568  0.11756844  0.25570764  1
  O  O360  1  0.76089436  0.12938524  0.76021125  1
  O  O361  1  0.75204420  0.61411161  0.25473487  1
  O  O362  1  0.75558797  0.61839241  0.75410087  1
  O  O363  1  0.37696942  0.11333681  0.36925338  1
  O  O364  1  0.38141840  0.10788014  0.87487598  1
  O  O365  1  0.36524264  0.63238892  0.36613988  1
  O  O366  1  0.36094068  0.61583027  0.88361969  1
  O  O367  1  0.86996647  0.12457706  0.36702083  1
  O  O368  1  0.86917680  0.12741153  0.86800612  1
  O  O369  1  0.87091052  0.61752922  0.37166262  1
  O  O370  1  0.86352818  0.62495694  0.86329744  1
  O  O371  1  0.12333102  0.38945287  0.12034007  1
  O  O372  1  0.13325600  0.38464548  0.63227654  1
  O  O373  1  0.12572883  0.87809699  0.13187702  1
  O  O374  1  0.12281808  0.87132921  0.64093337  1
  O  O375  1  0.63134721  0.38299068  0.13360054  1
  O  O376  1  0.65394352  0.37390205  0.60967149  1
  O  O377  1  0.63772758  0.86829076  0.12881294  1
  O  O378  1  0.62656573  0.87363410  0.64887522  1
  O  O379  1  0.12254844  0.19750016  0.26350904  1
  O  O380  1  0.13025924  0.26691276  0.74988632  1
  O  O381  1  0.13007227  0.76243209  0.25334864  1
  O  O382  1  0.11776330  0.75699459  0.75591690  1
  O  O383  1  0.62097705  0.25429168  0.26194623  1
  O  O384  1  0.62831943  0.24456377  0.76442584  1
  O  O385  1  0.62536723  0.75216817  0.26532913  1
  O  O386  1  0.60674396  0.75114986  0.75077482  1
  O  O387  1  0.38433369  0.24052787  0.24291832  1
  O  O388  1  0.37341483  0.25021106  0.74800420  1
  O  O389  1  0.37845946  0.73865132  0.24140870  1
  O  O390  1  0.38563060  0.75659952  0.74361709  1
  O  O391  1  0.85684560  0.22832161  0.24475297  1
  O  O392  1  0.87583842  0.24050264  0.74036735  1
  O  O393  1  0.86409498  0.73971907  0.24277282  1
  O  O394  1  0.88100548  0.74515472  0.74599147  1
  O  O395  1  0.38463581  0.49378226  0.50291220  1
  O  O396  1  0.38140787  0.49149433  0.99559699  1
  O  O397  1  0.37854080  0.99362449  0.49266858  1
  O  O398  1  0.38603268  1.00035206  0.98967172  1
  O  O399  1  0.87971891  0.50190459  0.49628767  1
  O  O400  1  0.88342400  0.49817809  0.99859379  1
  O  O401  1  0.88699989  0.98911295  0.49933362  1
  O  O402  1  0.88191224  0.98986429  0.99895979  1
  O  O403  1  0.11684202  0.00436191  0.00358694  1
  O  O404  1  0.11516544  -0.00308872  0.50615428  1
  O  O405  1  0.11995247  0.50951466  0.00586835  1
  O  O406  1  0.11681131  0.50749012  0.50709524  1
  O  O407  1  0.61312282  0.00693016  -0.00473597  1
  O  O408  1  0.59932236  0.00000113  0.47836224  1
  O  O409  1  0.61755749  0.49325821  0.00952068  1
  O  O410  1  0.60934069  0.49889864  0.52028077  1
  O  O411  1  0.37966261  0.36258843  0.11542783  1
  O  O412  1  0.35918094  0.37663110  0.61222466  1
  O  O413  1  0.37389500  0.85900890  0.12588765  1
  O  O414  1  0.37240512  0.86551233  0.61906072  1
  O  O415  1  0.86107621  0.38620610  0.11028680  1
  O  O416  1  0.87377157  0.36909704  0.62166339  1
  O  O417  1  0.86336963  0.86756282  0.12158305  1
  O  O418  1  0.88077621  0.86114520  0.61911373  1
  O  O419  1  0.13287769  0.10461479  0.39627384  1
  O  O420  1  0.11764327  0.12415084  0.89077858  1
  O  O421  1  0.13092764  0.63163999  0.38268641  1
  O  O422  1  0.13964589  0.62559818  0.88521138  1
  O  O423  1  0.63442240  0.12921984  0.39232884  1
  O  O424  1  0.63186139  0.13156858  0.88700227  1
  O  O425  1  0.62297244  0.63753419  0.38748547  1
  O  O426  1  0.63782249  0.62969478  0.86791668  1
