# generated using pymatgen
data_V85Zn86O256
_symmetry_space_group_name_H-M   'P 1'
_cell_length_a   16.94226035
_cell_length_b   16.94365894
_cell_length_c   16.94355802
_cell_angle_alpha   89.97151506
_cell_angle_beta   89.98947941
_cell_angle_gamma   89.96150302
_symmetry_Int_Tables_number   1
_chemical_formula_structural   V85Zn86O256
_chemical_formula_sum   'V85 Zn86 O256'
_cell_volume   4863.88174248
_cell_formula_units_Z   1
loop_
 _symmetry_equiv_pos_site_id
 _symmetry_equiv_pos_as_xyz
  1  'x, y, z'
loop_
 _atom_site_type_symbol
 _atom_site_label
 _atom_site_symmetry_multiplicity
 _atom_site_fract_x
 _atom_site_fract_y
 _atom_site_fract_z
 _atom_site_occupancy
  V  V0  1  0.74550320  0.12643110  0.38825355  1
  V  V1  1  0.75099414  0.00353845  0.74707320  1
  V  V2  1  0.87409818  0.12614396  0.24935687  1
  V  V3  1  0.49658010  0.87433122  0.37631678  1
  V  V4  1  0.00332621  0.62641579  0.12742253  1
  V  V5  1  0.00080332  0.12345990  0.62352434  1
  V  V6  1  0.38099957  0.00130734  0.87509622  1
  V  V7  1  0.49892844  0.74877538  0.25100724  1
  V  V8  1  0.62300960  0.25301974  0.87404929  1
  V  V9  1  0.13084317  0.37773950  0.74266323  1
  V  V10  1  -0.00157779  0.50176548  -0.00153781  1
  V  V11  1  0.24756699  0.12069920  0.37840550  1
  V  V12  1  0.87560564  0.25026281  0.12395706  1
  V  V13  1  0.12644947  0.11506001  0.00169631  1
  V  V14  1  0.49386425  0.63025418  0.62007440  1
  V  V15  1  0.37891736  0.87126409  0.51661865  1
  V  V16  1  0.87549294  0.74954370  0.62745705  1
  V  V17  1  0.37195590  0.26669172  0.62228888  1
  V  V18  1  0.50130312  0.37916798  0.37368508  1
  V  V19  1  0.37680450  0.12562391  0.74340705  1
  V  V20  1  -0.00281395  0.25163899  0.74652659  1
  V  V21  1  0.75171299  0.49344164  0.75448347  1
  V  V22  1  0.74898668  0.00155522  0.25039589  1
  V  V23  1  0.37722113  0.74844509  0.12555173  1
  V  V24  1  0.13157870  0.49756061  0.13707951  1
  V  V25  1  0.87435450  0.74866556  0.12795648  1
  V  V26  1  0.62589205  0.87441678  0.74736242  1
  V  V27  1  0.38027135  0.87836823  0.00018078  1
  V  V28  1  0.62568576  0.74573592  0.87252745  1
  V  V29  1  0.62892428  0.50107035  0.61668280  1
  V  V30  1  0.31662110  0.45036985  0.31412912  1
  V  V31  1  0.37436663  0.63163565  0.76524695  1
  V  V32  1  0.87934886  -0.00156311  0.37406730  1
  V  V33  1  0.74844201  0.87459981  0.62152584  1
  V  V34  1  0.62673359  0.01077511  0.61721908  1
  V  V35  1  0.12540985  0.76872871  0.87306618  1
  V  V36  1  0.87400972  0.37804795  -0.00381537  1
  V  V37  1  0.00900920  0.25660452  0.24919731  1
  V  V38  1  0.25590552  0.74404028  -0.00944214  1
  V  V39  1  0.50007817  0.25334061  0.74721191  1
  V  V40  1  0.73621254  0.37712945  0.12581010  1
  V  V41  1  0.48343335  0.49927871  0.49905293  1
  V  V42  1  0.49683107  0.50068990  -0.00942876  1
  V  V43  1  0.50054711  0.12336937  0.11959266  1
  V  V44  1  0.50727101  0.88243252  0.87655293  1
  V  V45  1  0.00675129  -0.00381446  0.50049738  1
  V  V46  1  0.11826128  0.75686720  0.37915264  1
  V  V47  1  0.61895430  -0.00273594  0.12262039  1
  V  V48  1  0.75140808  0.62474200  0.37988430  1
  V  V49  1  0.12890511  0.62447641  -0.00981804  1
  V  V50  1  0.74944859  0.25042422  -0.00041076  1
  V  V51  1  0.25141707  0.12692705  0.87381600  1
  V  V52  1  0.51182871  0.25219235  0.24887210  1
  V  V53  1  0.24011206  -0.00121162  0.74393725  1
  V  V54  1  0.87505834  0.61456588  0.25302016  1
  V  V55  1  0.86562184  0.26041564  0.60752901  1
  V  V56  1  0.25325939  0.63139229  0.36487819  1
  V  V57  1  0.87962519  0.87264273  0.49430845  1
  V  V58  1  0.00377740  0.76288212  0.75481380  1
  V  V59  1  0.00120173  0.49519380  0.49742930  1
  V  V60  1  0.37377961  0.25203931  0.12300758  1
  V  V61  1  0.75604720  0.12781353  0.87280758  1
  V  V62  1  0.13138259  0.62496256  0.50496550  1
  V  V63  1  0.25045521  0.26564205  0.50620205  1
  V  V64  1  0.74761768  0.74471294  0.00360603  1
  V  V65  1  0.74861270  0.74642799  0.50108026  1
  V  V66  1  0.12833473  0.12441134  0.50525336  1
  V  V67  1  0.50175940  0.00861537  0.49793044  1
  V  V68  1  0.26235025  0.49803397  0.75760277  1
  V  V69  1  0.62318195  0.74497620  0.38101077  1
  V  V70  1  0.87566481  0.62230521  0.76127365  1
  V  V71  1  0.82669010  0.44405926  0.43324482  1
  V  V72  1  0.62327098  0.11205674  -0.00484538  1
  V  V73  1  0.73825298  0.49517605  0.24539525  1
  V  V74  1  -0.00101664  0.38049767  0.87391834  1
  V  V75  1  0.74862612  0.87384634  0.12779029  1
  V  V76  1  0.50369728  0.61554909  0.12753765  1
  V  V77  1  0.00356008  0.11501126  0.12410224  1
  V  V78  1  0.23434661  0.87180256  0.62888846  1
  V  V79  1  0.62615391  0.61657736  0.00433347  1
  V  V80  1  0.00352798  0.62253026  0.63076625  1
  V  V81  1  0.37080605  0.37998412  -0.00544181  1
  V  V82  1  0.62607054  0.24780777  0.39188112  1
  V  V83  1  0.12531079  0.25184655  0.87834007  1
  V  V84  1  0.37596964  0.12079650  0.24986372  1
  Zn  Zn85  1  0.87626497  0.12664729  0.74704087  1
  Zn  Zn86  1  0.11727514  0.88626581  0.24525106  1
  Zn  Zn87  1  0.12594261  0.25828674  0.37389481  1
  Zn  Zn88  1  0.24940966  0.37995834  0.13336563  1
  Zn  Zn89  1  -0.00505857  0.75477828  0.26343494  1
  Zn  Zn90  1  0.00171450  0.38774508  0.36459045  1
  Zn  Zn91  1  0.24765712  0.25388109  0.00352115  1
  Zn  Zn92  1  0.50431937  0.13285342  0.61621195  1
  Zn  Zn93  1  0.23953687  0.00130874  0.23954056  1
  Zn  Zn94  1  0.25738114  0.74525719  0.50901155  1
  Zn  Zn95  1  0.13354019  0.49686639  0.62665104  1
  Zn  Zn96  1  0.37349311  0.62208956  0.25108840  1
  Zn  Zn97  1  0.37355930  -0.00294905  0.37533861  1
  Zn  Zn98  1  0.88269934  -0.01273514  0.87211653  1
  Zn  Zn99  1  0.24543253  0.87972073  0.12800134  1
  Zn  Zn100  1  0.88317275  0.87320307  -0.00358283  1
  Zn  Zn101  1  0.49616503  0.75321580  0.74350272  1
  Zn  Zn102  1  0.00206610  -0.01113140  -0.00894752  1
  Zn  Zn103  1  0.62191376  0.87518945  0.25229538  1
  Zn  Zn104  1  0.49578040  0.37975029  0.87107750  1
  Zn  Zn105  1  0.75351119  0.61949598  0.87818761  1
  Zn  Zn106  1  0.62800278  0.37403544  0.74291056  1
  Zn  Zn107  1  0.18861305  0.18269690  0.18580232  1
  Zn  Zn108  1  0.18632226  0.18870169  0.68613199  1
  Zn  Zn109  1  0.17669306  0.71315974  0.17787357  1
  Zn  Zn110  1  0.19222614  0.68683224  0.69535367  1
  Zn  Zn111  1  0.68962099  0.18503918  0.18580114  1
  Zn  Zn112  1  0.68959171  0.19133539  0.68322869  1
  Zn  Zn113  1  0.68504432  0.68427845  0.19346172  1
  Zn  Zn114  1  0.68502371  0.68086825  0.68711286  1
  Zn  Zn115  1  0.31571984  0.29066382  0.31515450  1
  Zn  Zn116  1  0.31228392  0.31413926  0.81188869  1
  Zn  Zn117  1  0.30843432  0.81460634  0.31336607  1
  Zn  Zn118  1  0.31276293  0.81377780  0.81013918  1
  Zn  Zn119  1  0.80707359  0.30741699  0.30902189  1
  Zn  Zn120  1  0.81525442  0.31439624  0.81030935  1
  Zn  Zn121  1  0.81319468  0.81113423  0.31137876  1
  Zn  Zn122  1  0.81100856  0.80794833  0.81097291  1
  Zn  Zn123  1  0.17660767  0.43820456  0.43469226  1
  Zn  Zn124  1  0.18862237  0.44020629  0.93729313  1
  Zn  Zn125  1  0.19114969  0.93742979  0.43984172  1
  Zn  Zn126  1  0.19740700  0.93803365  0.93897460  1
  Zn  Zn127  1  0.66275980  0.43999903  0.43336253  1
  Zn  Zn128  1  0.68591081  0.43777475  0.93497609  1
  Zn  Zn129  1  0.68718416  0.93612933  0.43630494  1
  Zn  Zn130  1  0.71684869  0.92518019  0.92712361  1
  Zn  Zn131  1  0.31138545  0.06293194  0.05977962  1
  Zn  Zn132  1  0.31529372  0.06040007  0.56377884  1
  Zn  Zn133  1  0.31319195  0.56403692  0.06264367  1
  Zn  Zn134  1  0.31131556  0.55994115  0.57189993  1
  Zn  Zn135  1  0.81510886  0.05957446  0.05987249  1
  Zn  Zn136  1  0.81908718  0.06563421  0.56356508  1
  Zn  Zn137  1  0.81323107  0.55880288  0.06559121  1
  Zn  Zn138  1  0.81144468  0.56727214  0.57208202  1
  Zn  Zn139  1  0.44792430  0.43257066  0.18014393  1
  Zn  Zn140  1  0.43856381  0.44312173  0.68815203  1
  Zn  Zn141  1  0.43485483  0.93706142  0.18712738  1
  Zn  Zn142  1  0.44192254  0.94235217  0.68886339  1
  Zn  Zn143  1  0.93371084  0.43819263  0.18221319  1
  Zn  Zn144  1  0.93593533  0.43776380  0.68525635  1
  Zn  Zn145  1  0.94159885  0.93307050  0.18774848  1
  Zn  Zn146  1  0.93566668  0.94011760  0.68330695  1
  Zn  Zn147  1  0.06277461  0.06491782  0.31435928  1
  Zn  Zn148  1  0.06169220  0.06322072  0.81374114  1
  Zn  Zn149  1  0.06313388  0.56859803  0.31737163  1
  Zn  Zn150  1  0.06559192  0.56157798  0.81189452  1
  Zn  Zn151  1  0.56309391  0.06443499  0.31207570  1
  Zn  Zn152  1  0.56563481  0.06532077  0.80733829  1
  Zn  Zn153  1  0.56245679  0.56448800  0.31547790  1
  Zn  Zn154  1  0.56347140  0.56380674  0.80734362  1
  Zn  Zn155  1  0.43338476  0.19177307  0.43683845  1
  Zn  Zn156  1  0.43844150  0.18879952  0.93713227  1
  Zn  Zn157  1  0.43353654  0.68700591  0.44196917  1
  Zn  Zn158  1  0.44523826  0.69086085  0.93660654  1
  Zn  Zn159  1  0.93760038  0.18730784  0.43432995  1
  Zn  Zn160  1  0.94075270  0.18514715  0.93768248  1
  Zn  Zn161  1  0.93667793  0.67864230  0.44224946  1
  Zn  Zn162  1  0.94270664  0.69428068  0.93972243  1
  Zn  Zn163  1  0.06432902  0.31393074  0.06593127  1
  Zn  Zn164  1  0.06034608  0.31106645  0.56010890  1
  Zn  Zn165  1  0.06424053  0.81689216  0.06544520  1
  Zn  Zn166  1  0.06174536  0.80894867  0.56277547  1
  Zn  Zn167  1  0.55892763  0.30993894  0.05644403  1
  Zn  Zn168  1  0.55791264  0.32155021  0.56209783  1
  Zn  Zn169  1  0.56222659  0.81015813  0.06075052  1
  Zn  Zn170  1  0.56336438  0.81357255  0.56150124  1
  O  O171  1  0.11646840  0.13250247  0.11262072  1
  O  O172  1  0.11807156  0.12849286  0.61340411  1
  O  O173  1  0.11815685  0.62401228  0.11507515  1
  O  O174  1  0.11967723  0.62697912  0.62253731  1
  O  O175  1  0.62240651  0.11689881  0.11524025  1
  O  O176  1  0.62412993  0.11454150  0.62627769  1
  O  O177  1  0.61613164  0.63193274  0.11640725  1
  O  O178  1  0.60886538  0.61115959  0.63418200  1
  O  O179  1  0.37566218  0.38375032  0.36711335  1
  O  O180  1  0.37768384  0.36710368  0.89022493  1
  O  O181  1  0.38564073  0.87445731  0.38409450  1
  O  O182  1  0.38547070  0.88275727  0.87696028  1
  O  O183  1  0.87827233  0.37749948  0.37443144  1
  O  O184  1  0.88382224  0.36980112  0.88738177  1
  O  O185  1  0.86907447  0.88187047  0.38590768  1
  O  O186  1  0.83079355  0.88318692  0.89000462  1
  O  O187  1  0.25393060  0.01225910  0.37756376  1
  O  O188  1  0.26061238  0.00476312  0.86301143  1
  O  O189  1  0.25208229  0.50810056  0.37300086  1
  O  O190  1  0.24067474  0.50299916  0.85709459  1
  O  O191  1  0.75629494  0.00496203  0.37009741  1
  O  O192  1  0.74201340  0.01569895  0.86104802  1
  O  O193  1  0.75548283  0.50244005  0.37318950  1
  O  O194  1  0.74666076  0.50235445  0.85976104  1
  O  O195  1  0.23567329  0.50301991  0.12424325  1
  O  O196  1  0.24746488  0.50349834  0.64722976  1
  O  O197  1  0.25926507  0.99264406  0.12532574  1
  O  O198  1  0.25579053  0.99201157  0.63765198  1
  O  O199  1  0.75009067  0.48980860  0.13255774  1
  O  O200  1  0.73552697  0.50826134  0.63389541  1
  O  O201  1  0.74062184  0.99196669  0.12901967  1
  O  O202  1  0.74538509  0.99780001  0.62758079  1
  O  O203  1  -0.00872018  0.35969961  0.24440056  1
  O  O204  1  0.00563605  0.37161513  0.75790628  1
  O  O205  1  0.00306890  0.86595822  0.24902362  1
  O  O206  1  -0.00658817  0.86165306  0.74244997  1
  O  O207  1  0.49446399  0.36508299  0.26098074  1
  O  O208  1  0.50028230  0.36481177  0.75222582  1
  O  O209  1  0.49866025  0.86825799  0.26011448  1
  O  O210  1  0.50800178  0.87367911  0.75646441  1
  O  O211  1  0.49487358  0.13052211  0.24168658  1
  O  O212  1  0.49401182  0.13680636  0.74672778  1
  O  O213  1  0.49927167  0.62979510  0.24362805  1
  O  O214  1  0.48961713  0.62520122  0.74235142  1
  O  O215  1  0.99290242  0.13420722  0.24167543  1
  O  O216  1  1.00192749  0.13457393  0.73985096  1
  O  O217  1  0.99131844  0.62858754  0.24417461  1
  O  O218  1  0.99447969  0.62943065  0.74647366  1
  O  O219  1  0.37502633  0.25596724  0.00921282  1
  O  O220  1  0.36057010  0.24688688  0.50867021  1
  O  O221  1  0.37309236  0.75561176  0.00106998  1
  O  O222  1  0.37452897  0.76690277  0.50138941  1
  O  O223  1  0.86950120  0.25610647  0.00379571  1
  O  O224  1  0.87788535  0.24928192  0.50791538  1
  O  O225  1  0.86612238  0.74641020  0.01288062  1
  O  O226  1  0.87241417  0.75644722  0.50582878  1
  O  O227  1  0.13659570  0.24322773  0.50211662  1
  O  O228  1  0.12511516  0.24778816  0.98977503  1
  O  O229  1  0.12791728  0.73868828  0.49659691  1
  O  O230  1  0.13543826  0.74443377  0.98771859  1
  O  O231  1  0.61858742  0.25043130  0.49034866  1
  O  O232  1  0.63021566  0.24142571  0.99065671  1
  O  O233  1  0.63098757  0.75403134  0.48821279  1
  O  O234  1  0.62821920  0.73867997  0.99367302  1
  O  O235  1  0.49208379  0.24667772  0.13059592  1
  O  O236  1  0.49288332  0.25074126  0.62954906  1
  O  O237  1  0.49339943  0.74091719  0.12769324  1
  O  O238  1  0.50896109  0.73446840  0.62510678  1
  O  O239  1  0.99463150  0.24462172  0.13242061  1
  O  O240  1  0.99613478  0.24153912  0.62990111  1
  O  O241  1  0.98934202  0.73538786  0.12371447  1
  O  O242  1  0.99705838  0.73971526  0.63286931  1
  O  O243  1  -0.00196839  0.24745013  0.35627622  1
  O  O244  1  0.00658976  0.25802967  0.86809542  1
  O  O245  1  0.01395651  0.74200436  0.38490722  1
  O  O246  1  0.01437671  0.75126728  0.86920546  1
  O  O247  1  0.50704516  0.25382531  0.36917865  1
  O  O248  1  0.50765024  0.25011701  0.86574240  1
  O  O249  1  0.50555338  0.75315500  0.37418174  1
  O  O250  1  0.51311825  0.76228610  0.87311632  1
  O  O251  1  0.24354023  0.12433507  0.49729545  1
  O  O252  1  0.24467543  0.13151145  0.99146235  1
  O  O253  1  0.24493630  0.62554082  0.49939644  1
  O  O254  1  0.24511309  0.63574430  0.99985059  1
  O  O255  1  0.75134616  0.11732946  0.48703678  1
  O  O256  1  0.74303319  0.13114497  0.99131913  1
  O  O257  1  0.75753222  0.63242284  0.49174380  1
  O  O258  1  0.74342713  0.62594560  1.00037902  1
  O  O259  1  0.25661174  0.37468668  0.00474245  1
  O  O260  1  0.24516359  0.36351037  0.49790530  1
  O  O261  1  0.26532759  0.86387621  -0.00075763  1
  O  O262  1  0.26079881  0.87908241  0.51648507  1
  O  O263  1  0.75693078  0.37208007  0.00249045  1
  O  O264  1  0.76001962  0.39330458  0.48468182  1
  O  O265  1  0.74014688  0.86158550  0.02000863  1
  O  O266  1  0.75756837  0.86794287  0.50339655  1
  O  O267  1  0.11915945  0.50997856  0.23438895  1
  O  O268  1  0.13046702  0.49146115  0.74848237  1
  O  O269  1  0.12531816  1.00108602  0.25178258  1
  O  O270  1  0.14235720  1.00804376  0.75160581  1
  O  O271  1  0.63913564  0.50142978  0.25627120  1
  O  O272  1  0.63577366  0.49773376  0.74340370  1
  O  O273  1  0.63103755  0.99962995  0.24083808  1
  O  O274  1  0.63420155  0.99667339  0.73983110  1
  O  O275  1  0.37836777  0.01311459  0.25293172  1
  O  O276  1  0.37283450  0.00890561  0.75723753  1
  O  O277  1  0.37704822  0.50187394  0.24885176  1
  O  O278  1  0.36891820  0.50687214  0.75494741  1
  O  O279  1  0.87034571  0.00415729  0.25753365  1
  O  O280  1  0.86164544  0.00293950  0.74901510  1
  O  O281  1  0.86789284  0.51073953  0.24494355  1
  O  O282  1  0.86167719  0.50772690  0.74250849  1
  O  O283  1  0.11368963  0.37054613  0.37469124  1
  O  O284  1  0.11822972  0.36781072  0.86924006  1
  O  O285  1  0.12970527  0.85797249  0.38396912  1
  O  O286  1  0.12943194  0.86699827  0.87670840  1
  O  O287  1  0.61524832  0.35841084  0.37128130  1
  O  O288  1  0.62239318  0.36182934  0.87346125  1
  O  O289  1  0.61237384  0.86760502  0.37522601  1
  O  O290  1  0.62375551  0.86982829  0.87031691  1
  O  O291  1  0.38167944  0.13199466  0.12804221  1
  O  O292  1  0.37794819  0.12997193  0.63533219  1
  O  O293  1  0.38612853  0.63037678  0.12727135  1
  O  O294  1  0.39014582  0.62157380  0.63553873  1
  O  O295  1  0.87985692  0.13194610  0.12836908  1
  O  O296  1  0.88470061  0.13621915  0.62653046  1
  O  O297  1  0.88085477  0.62882903  0.13220510  1
  O  O298  1  0.88373384  0.63250048  0.63635770  1
  O  O299  1  0.26263526  0.25430599  0.12837989  1
  O  O300  1  0.25620730  0.24792318  0.61406013  1
  O  O301  1  0.27047228  0.74306499  0.11276174  1
  O  O302  1  0.24647523  0.76711550  0.62891118  1
  O  O303  1  0.75609200  0.25465099  0.11844272  1
  O  O304  1  0.76640263  0.24923751  0.62565797  1
  O  O305  1  0.75431702  0.75356922  0.12692695  1
  O  O306  1  0.75365130  0.75206979  0.62062490  1
  O  O307  1  0.24941558  0.23804453  0.39005995  1
  O  O308  1  0.24059670  0.24436516  0.87323226  1
  O  O309  1  0.24230434  0.74170782  0.38410251  1
  O  O310  1  0.23962777  0.75383881  0.87868400  1
  O  O311  1  0.73394237  0.24296508  0.37177506  1
  O  O312  1  0.74254058  0.24570262  0.87606466  1
  O  O313  1  0.74287148  0.74336238  0.37846224  1
  O  O314  1  0.73755041  0.74309709  0.88113002  1
  O  O315  1  0.01014608  0.12715652  0.00835964  1
  O  O316  1  0.00765623  0.12038521  0.50477175  1
  O  O317  1  0.00506676  0.61857867  0.00650426  1
  O  O318  1  0.00728784  0.61729664  0.51207383  1
  O  O319  1  0.51160194  0.12920440  0.00573267  1
  O  O320  1  0.49332067  0.11238928  0.49748272  1
  O  O321  1  0.50625928  0.61882737  0.00660642  1
  O  O322  1  0.49479485  0.61894281  0.51217295  1
  O  O323  1  0.49809994  0.38244817  0.48432325  1
  O  O324  1  0.49284266  0.38502299  0.99936960  1
  O  O325  1  0.49244474  0.88182711  0.49693467  1
  O  O326  1  0.49032136  0.87143034  0.99047926  1
  O  O327  1  1.00352704  0.39249917  0.50352971  1
  O  O328  1  0.99526571  0.38149604  0.99481475  1
  O  O329  1  0.99160829  0.88386234  0.50755635  1
  O  O330  1  0.99689598  0.87420153  1.00419476  1
  O  O331  1  0.50930397  0.49209453  0.38540011  1
  O  O332  1  0.50614822  0.49904132  0.88662250  1
  O  O333  1  0.50075368  0.99131324  0.38098997  1
  O  O334  1  0.49779809  0.99110667  0.86803183  1
  O  O335  1  0.99770672  0.50603290  0.38721710  1
  O  O336  1  1.00491986  0.48811816  0.88209944  1
  O  O337  1  0.98522478  1.00941023  0.38507319  1
  O  O338  1  0.99286598  1.00871204  0.87698860  1
  O  O339  1  -0.00691473  0.01358437  0.12127523  1
  O  O340  1  -0.00694559  0.01406732  0.61541497  1
  O  O341  1  0.00649761  0.50952308  0.11867172  1
  O  O342  1  0.00221651  0.51218556  0.62329469  1
  O  O343  1  0.51310366  0.00258342  0.12677885  1
  O  O344  1  0.50973778  0.00364636  0.61622156  1
  O  O345  1  0.50199415  0.51062577  0.11535924  1
  O  O346  1  0.50557848  0.50743358  0.61827325  1
  O  O347  1  0.26350535  0.38283518  0.25775607  1
  O  O348  1  0.24428905  0.38548249  0.75433974  1
  O  O349  1  0.24470928  0.88084254  0.25058451  1
  O  O350  1  0.25510213  0.88757315  0.73923982  1
  O  O351  1  0.75678283  0.38277229  0.23772116  1
  O  O352  1  0.75073876  0.38915043  0.75097830  1
  O  O353  1  0.74654037  0.87978643  0.24204656  1
  O  O354  1  0.74462000  0.88324192  0.74032021  1
  O  O355  1  0.25850029  0.12711873  0.25966750  1
  O  O356  1  0.25771141  0.11769982  0.75170468  1
  O  O357  1  0.24837432  0.63385584  0.26391051  1
  O  O358  1  0.26787020  0.61836227  0.75009602  1
  O  O359  1  0.75604212  0.11861939  0.25530440  1
  O  O360  1  0.75030779  0.12017727  0.75499837  1
  O  O361  1  0.75570850  0.61596547  0.25720974  1
  O  O362  1  0.75906168  0.61673207  0.75243398  1
  O  O363  1  0.36812240  0.12555830  0.36610679  1
  O  O364  1  0.37336005  0.12072340  0.86499251  1
  O  O365  1  0.35902204  0.63025316  0.37364232  1
  O  O366  1  0.38467907  0.62574242  0.86394222  1
  O  O367  1  0.86585480  0.11819468  0.36955919  1
  O  O368  1  0.86189514  0.13108913  0.87129167  1
  O  O369  1  0.86249597  0.63135770  0.36609521  1
  O  O370  1  0.87707951  0.63077485  0.86456376  1
  O  O371  1  0.12715842  0.39230826  0.12437237  1
  O  O372  1  0.11961000  0.37222511  0.64036807  1
  O  O373  1  0.14197526  0.82516772  0.14224595  1
  O  O374  1  0.13616090  0.87825561  0.62109242  1
  O  O375  1  0.63735638  0.36723667  0.11747240  1
  O  O376  1  0.61901833  0.39458769  0.62633430  1
  O  O377  1  0.62719331  0.88080471  0.12866593  1
  O  O378  1  0.63057676  0.88378005  0.62821254  1
  O  O379  1  0.11143145  0.24584141  0.24781172  1
  O  O380  1  0.11678749  0.25517448  0.75731252  1
  O  O381  1  0.11902227  0.73756849  0.27596444  1
  O  O382  1  0.11942321  0.74605122  0.76557062  1
  O  O383  1  0.61342252  0.24364990  0.25032359  1
  O  O384  1  0.61760097  0.25187318  0.75388409  1
  O  O385  1  0.61813726  0.75144471  0.26337296  1
  O  O386  1  0.62506799  0.75496019  0.75735110  1
  O  O387  1  0.38646134  0.23776925  0.24243464  1
  O  O388  1  0.37989740  0.24421037  0.74362866  1
  O  O389  1  0.38134989  0.74873484  0.24132445  1
  O  O390  1  0.37813457  0.73724042  0.75431184  1
  O  O391  1  0.87895019  0.24296674  0.24206335  1
  O  O392  1  0.88925338  0.25025191  0.74844681  1
  O  O393  1  0.87264155  0.73894932  0.24082198  1
  O  O394  1  0.88123368  0.74327981  0.74685827  1
  O  O395  1  0.38400428  0.50099322  0.50422346  1
  O  O396  1  0.38350273  0.49226158  1.00474138  1
  O  O397  1  0.38407071  0.98932001  0.49889133  1
  O  O398  1  0.37350200  0.99391880  0.98307336  1
  O  O399  1  0.88041596  0.50375965  0.50070012  1
  O  O400  1  0.88892100  0.49331095  1.00443410  1
  O  O401  1  0.88236955  0.99213091  0.49396677  1
  O  O402  1  0.87518081  0.99443920  0.99385778  1
  O  O403  1  0.12800795  0.01218472  -0.00610935  1
  O  O404  1  0.11306098  0.00628280  0.49379154  1
  O  O405  1  0.11596001  0.50695749  0.00637158  1
  O  O406  1  0.11986792  0.51064783  0.50715839  1
  O  O407  1  0.63468991  0.00911106  0.00374355  1
  O  O408  1  0.61578236  -0.00664685  0.50701902  1
  O  O409  1  0.61972663  0.51097906  -0.00260034  1
  O  O410  1  0.61554766  0.50482512  0.51335204  1
  O  O411  1  0.37415395  0.36765118  0.11647750  1
  O  O412  1  0.37680136  0.36548412  0.62941134  1
  O  O413  1  0.38131238  0.86593785  0.11411008  1
  O  O414  1  0.37570724  0.87801083  0.61854256  1
  O  O415  1  0.86961423  0.36890881  0.11124227  1
  O  O416  1  0.88276026  0.35864375  0.62511147  1
  O  O417  1  0.86397871  0.86422524  0.12639118  1
  O  O418  1  0.86796568  0.86971069  0.61461812  1
  O  O419  1  0.13155636  0.13247021  0.38715982  1
  O  O420  1  0.13027510  0.13554168  0.88114139  1
  O  O421  1  0.13734987  0.62782898  0.38771739  1
  O  O422  1  0.11954941  0.62860218  0.88835540  1
  O  O423  1  0.63022502  0.13778693  0.37246563  1
  O  O424  1  0.63121223  0.13402889  0.87844656  1
  O  O425  1  0.63938475  0.63231921  0.37298532  1
  O  O426  1  0.62347222  0.63221766  0.88245660  1
