# generated using pymatgen
data_V85Zn86O256
_symmetry_space_group_name_H-M   'P 1'
_cell_length_a   16.95062325
_cell_length_b   16.94818914
_cell_length_c   16.93827080
_cell_angle_alpha   90.05353727
_cell_angle_beta   90.03529493
_cell_angle_gamma   89.98910597
_symmetry_Int_Tables_number   1
_chemical_formula_structural   V85Zn86O256
_chemical_formula_sum   'V85 Zn86 O256'
_cell_volume   4866.06342637
_cell_formula_units_Z   1
loop_
 _symmetry_equiv_pos_site_id
 _symmetry_equiv_pos_as_xyz
  1  'x, y, z'
loop_
 _atom_site_type_symbol
 _atom_site_label
 _atom_site_symmetry_multiplicity
 _atom_site_fract_x
 _atom_site_fract_y
 _atom_site_fract_z
 _atom_site_occupancy
  V  V0  1  0.62263443  0.87627598  0.25390916  1
  V  V1  1  0.74696929  0.24913722  -0.00044023  1
  V  V2  1  0.12481534  0.49977934  0.62205917  1
  V  V3  1  0.37755240  0.50087651  0.37327230  1
  V  V4  1  0.38404637  0.87214817  0.48898282  1
  V  V5  1  0.49467892  0.13868472  0.13468151  1
  V  V6  1  0.45000599  0.31825469  0.31388901  1
  V  V7  1  0.74730161  0.50073889  0.74224549  1
  V  V8  1  0.62621356  0.50098260  0.12761684  1
  V  V9  1  0.62088220  0.75188004  0.37641210  1
  V  V10  1  0.75315695  0.87477464  0.12613582  1
  V  V11  1  -0.00689965  0.37604094  0.36975160  1
  V  V12  1  0.12221492  0.24452693  0.38093285  1
  V  V13  1  0.11919552  -0.00304255  0.61618783  1
  V  V14  1  0.87728882  0.88253097  0.50008255  1
  V  V15  1  -0.00865157  0.50241305  0.49580133  1
  V  V16  1  0.87465648  0.88169369  0.00527817  1
  V  V17  1  0.12347019  0.62516611  0.49540288  1
  V  V18  1  0.88310182  0.75224670  0.63589279  1
  V  V19  1  -0.01630122  0.74259722  0.23981794  1
  V  V20  1  0.62060132  0.62837623  0.00211439  1
  V  V21  1  0.37650500  0.86204802  -0.00008046  1
  V  V22  1  0.55625569  0.92290309  0.82193628  1
  V  V23  1  0.12574750  0.86627739  0.25039509  1
  V  V24  1  0.75197313  0.00103489  0.25168847  1
  V  V25  1  0.74969095  0.37325806  0.12737286  1
  V  V26  1  0.12594810  0.37341202  0.74768577  1
  V  V27  1  0.87763031  0.36956220  -0.00161677  1
  V  V28  1  0.13422527  0.12374115  -0.01152178  1
  V  V29  1  0.00486821  0.37177054  0.87489035  1
  V  V30  1  0.37396116  0.62856661  0.24716756  1
  V  V31  1  0.49185095  0.25661189  0.73908021  1
  V  V32  1  0.49754390  -0.00194315  0.00825158  1
  V  V33  1  0.78343993  0.72090209  0.02192147  1
  V  V34  1  0.62716335  0.37369714  0.25997879  1
  V  V35  1  0.61987122  0.37955496  0.74503376  1
  V  V36  1  0.76500964  0.50529537  0.25414252  1
  V  V37  1  0.12813992  0.74879563  0.87851345  1
  V  V38  1  0.25071174  0.49888173  0.74851847  1
  V  V39  1  0.87301498  0.00288690  0.87233077  1
  V  V40  1  0.25101784  0.36566600  0.62130416  1
  V  V41  1  0.12036695  0.86876107  0.75062471  1
  V  V42  1  0.74861848  0.62209942  0.87524375  1
  V  V43  1  0.74384761  0.12673501  0.37703102  1
  V  V44  1  0.38027921  0.48776344  0.87391169  1
  V  V45  1  0.00028579  0.24764336  0.74708005  1
  V  V46  1  0.25617459  0.86197745  0.12224088  1
  V  V47  1  0.24755555  0.62745616  0.37349546  1
  V  V48  1  0.50397867  0.62135360  0.62525563  1
  V  V49  1  0.74520584  0.87828273  0.64779889  1
  V  V50  1  0.49495325  0.62981247  0.12548954  1
  V  V51  1  0.25392242  0.62899975  0.87905190  1
  V  V52  1  0.24926650  0.87248150  0.62641789  1
  V  V53  1  0.74853097  0.12541091  0.87279204  1
  V  V54  1  0.36990307  0.12816069  0.74580852  1
  V  V55  1  -0.00411271  0.11930586  0.61232658  1
  V  V56  1  0.24488140  0.50046568  0.23979415  1
  V  V57  1  0.37719665  0.37045217  0.50565309  1
  V  V58  1  0.87907372  0.12767715  0.25103775  1
  V  V59  1  0.87064794  0.25497394  0.62142560  1
  V  V60  1  0.37596107  0.62606794  0.75065572  1
  V  V61  1  0.61115066  0.25881695  0.87662790  1
  V  V62  1  0.87132102  0.12180191  0.74733146  1
  V  V63  1  0.36728389  -0.00006412  0.87756641  1
  V  V64  1  0.87771215  0.24735785  0.12587147  1
  V  V65  1  0.00455809  0.12896256  0.12682739  1
  V  V66  1  0.37526632  0.74868775  0.62627664  1
  V  V67  1  0.24503629  0.00463117  0.75436223  1
  V  V68  1  0.75190739  0.75648995  0.50198891  1
  V  V69  1  0.12237866  0.36809605  0.24381323  1
  V  V70  1  0.62259892  0.74832085  0.87436961  1
  V  V71  1  0.76446945  0.62598057  0.37309375  1
  V  V72  1  0.12533695  0.62315748  0.00465768  1
  V  V73  1  0.50573030  0.49458898  0.49579297  1
  V  V74  1  0.00726157  0.87466871  0.37783896  1
  V  V75  1  0.62653886  0.62338309  0.50313263  1
  V  V76  1  0.87542770  0.49740396  0.87208569  1
  V  V77  1  0.24614331  0.74939854  0.49696311  1
  V  V78  1  0.37548248  0.37159209  0.01821030  1
  V  V79  1  0.00344941  0.00067503  -0.00083319  1
  V  V80  1  0.37643978  0.01424863  0.37311383  1
  V  V81  1  0.13285611  -0.00024428  0.12605107  1
  V  V82  1  0.25304877  0.25338674  0.00389016  1
  V  V83  1  0.49547856  0.75329979  0.25017388  1
  V  V84  1  -0.00380011  0.86555422  0.87346671  1
  Zn  Zn85  1  0.62523057  0.12474428  0.51059154  1
  Zn  Zn86  1  0.11412847  0.50251022  0.12743295  1
  Zn  Zn87  1  0.62150079  0.00363689  0.12830685  1
  Zn  Zn88  1  0.87047822  0.37986617  0.49583237  1
  Zn  Zn89  1  0.12749509  0.11468652  0.49145794  1
  Zn  Zn90  1  0.36970765  0.13896004  0.24765290  1
  Zn  Zn91  1  0.13325041  0.24239907  0.86867212  1
  Zn  Zn92  1  0.88426903  0.63140321  0.75773919  1
  Zn  Zn93  1  0.88133617  0.00390140  0.38105863  1
  Zn  Zn94  1  0.50159075  0.11797937  0.62621011  1
  Zn  Zn95  1  0.50258420  0.49282749  -0.00401937  1
  Zn  Zn96  1  0.00076529  0.49986758  0.00298652  1
  Zn  Zn97  1  0.50781115  -0.00214843  0.49991686  1
  Zn  Zn98  1  0.62565413  -0.00339948  0.62852716  1
  Zn  Zn99  1  0.25829296  0.23410775  0.49924632  1
  Zn  Zn100  1  0.74704376  0.38101576  0.62071062  1
  Zn  Zn101  1  0.00507601  0.62947707  0.63189381  1
  Zn  Zn102  1  0.62335408  0.25094481  0.37599017  1
  Zn  Zn103  1  0.50456239  0.75133672  0.75301801  1
  Zn  Zn104  1  0.61863292  0.12762179  0.00391062  1
  Zn  Zn105  1  0.74742310  0.25497372  0.49802873  1
  Zn  Zn106  1  0.24898922  0.00821172  0.25802382  1
  Zn  Zn107  1  0.19102810  0.18849696  0.18649665  1
  Zn  Zn108  1  0.18568980  0.18263208  0.68011546  1
  Zn  Zn109  1  0.18445814  0.68973946  0.18838755  1
  Zn  Zn110  1  0.18634969  0.68679657  0.68917220  1
  Zn  Zn111  1  0.68225661  0.18720961  0.18931400  1
  Zn  Zn112  1  0.68452037  0.18998241  0.68931500  1
  Zn  Zn113  1  0.68870207  0.68772506  0.19109254  1
  Zn  Zn114  1  0.69209654  0.68863031  0.68845948  1
  Zn  Zn115  1  0.28782629  0.31052138  0.31179897  1
  Zn  Zn116  1  0.30768319  0.30798497  0.81643980  1
  Zn  Zn117  1  0.30870424  0.81286664  0.30934050  1
  Zn  Zn118  1  0.31379709  0.81491853  0.81485765  1
  Zn  Zn119  1  0.81205393  0.31020175  0.31034331  1
  Zn  Zn120  1  0.80975926  0.31166435  0.80884492  1
  Zn  Zn121  1  0.81586988  0.81180436  0.31541772  1
  Zn  Zn122  1  0.80991792  0.80735878  0.82448409  1
  Zn  Zn123  1  0.18584116  0.43692951  0.43351363  1
  Zn  Zn124  1  0.19272004  0.43721349  0.93773664  1
  Zn  Zn125  1  0.19219483  0.93577197  0.43577401  1
  Zn  Zn126  1  0.19047485  0.93339816  0.94015630  1
  Zn  Zn127  1  0.69193931  0.44183748  0.43748347  1
  Zn  Zn128  1  0.68683367  0.43617333  0.93635160  1
  Zn  Zn129  1  0.68815589  0.93997869  0.43691997  1
  Zn  Zn130  1  0.69062118  0.94336407  0.94517777  1
  Zn  Zn131  1  0.31364163  0.06509135  0.06600953  1
  Zn  Zn132  1  0.31119069  0.05666319  0.56212132  1
  Zn  Zn133  1  0.31222176  0.56326739  0.05908504  1
  Zn  Zn134  1  0.31452622  0.55801465  0.56133767  1
  Zn  Zn135  1  0.81065912  0.06312061  0.06441836  1
  Zn  Zn136  1  0.80446482  0.05951506  0.56535910  1
  Zn  Zn137  1  0.81680233  0.55257337  0.06291956  1
  Zn  Zn138  1  0.81409428  0.57001051  0.56285056  1
  Zn  Zn139  1  0.43606865  0.44872012  0.18294058  1
  Zn  Zn140  1  0.43975915  0.43861215  0.68461158  1
  Zn  Zn141  1  0.43600904  0.93871483  0.18871949  1
  Zn  Zn142  1  0.43088740  0.94123458  0.68104957  1
  Zn  Zn143  1  0.94223565  0.43888980  0.18334273  1
  Zn  Zn144  1  0.93954043  0.44101030  0.68679689  1
  Zn  Zn145  1  0.94167828  0.93854043  0.19017146  1
  Zn  Zn146  1  0.93586085  0.93696357  0.68909801  1
  Zn  Zn147  1  0.06125705  0.05697334  0.30933292  1
  Zn  Zn148  1  0.05710355  0.05730459  0.80745117  1
  Zn  Zn149  1  0.05854406  0.56351729  0.31140965  1
  Zn  Zn150  1  0.06239396  0.56240353  0.81302126  1
  Zn  Zn151  1  0.55550891  0.05948629  0.31516881  1
  Zn  Zn152  1  0.55772764  0.08479105  0.81582730  1
  Zn  Zn153  1  0.56780760  0.56433987  0.31468557  1
  Zn  Zn154  1  0.56163757  0.56143486  0.81208972  1
  Zn  Zn155  1  0.43961666  0.18276450  0.44769616  1
  Zn  Zn156  1  0.43186909  0.18417636  0.93944505  1
  Zn  Zn157  1  0.43768789  0.68746512  0.43606651  1
  Zn  Zn158  1  0.44086705  0.68530824  0.93472577  1
  Zn  Zn159  1  0.93594121  0.19232343  0.43484534  1
  Zn  Zn160  1  0.94154157  0.18715476  0.93745196  1
  Zn  Zn161  1  0.94302041  0.69825703  0.43813948  1
  Zn  Zn162  1  0.93596156  0.68225303  0.95158980  1
  Zn  Zn163  1  0.06707485  0.30829487  0.06048035  1
  Zn  Zn164  1  0.05679660  0.31354418  0.55905346  1
  Zn  Zn165  1  0.06431813  0.80980544  0.06282066  1
  Zn  Zn166  1  0.06324952  0.81275373  0.55900989  1
  Zn  Zn167  1  0.56028507  0.31575470  0.06496120  1
  Zn  Zn168  1  0.56688272  0.30998349  0.56129977  1
  Zn  Zn169  1  0.56427602  0.81349882  0.06396903  1
  Zn  Zn170  1  0.56463058  0.81155822  0.56888744  1
  O  O171  1  0.11907584  0.11766363  0.11768498  1
  O  O172  1  0.11099825  0.11210165  0.62690625  1
  O  O173  1  0.13265890  0.62815504  0.10704777  1
  O  O174  1  0.12722457  0.61905750  0.61332897  1
  O  O175  1  0.61223057  0.12315045  0.12423803  1
  O  O176  1  0.62427764  0.11614383  0.63224354  1
  O  O177  1  0.62101393  0.61930011  0.12009712  1
  O  O178  1  0.61948429  0.63418291  0.61259510  1
  O  O179  1  0.38263344  0.37656124  0.37288437  1
  O  O180  1  0.37276698  0.38714389  0.87443092  1
  O  O181  1  0.37435665  0.86711226  0.38873115  1
  O  O182  1  0.36974495  0.88679240  0.88677589  1
  O  O183  1  0.88928721  0.37145410  0.37211407  1
  O  O184  1  0.88232356  0.37682893  0.87702243  1
  O  O185  1  0.88244408  0.87746110  0.38512794  1
  O  O186  1  0.87996017  0.88587299  0.87752624  1
  O  O187  1  0.26981019  -0.00853287  0.37554238  1
  O  O188  1  0.25461714  -0.00354578  0.86721927  1
  O  O189  1  0.25566348  0.51054709  0.36841903  1
  O  O190  1  0.26079027  0.50670722  0.86756392  1
  O  O191  1  0.75681669  0.00513134  0.36327642  1
  O  O192  1  0.75514804  0.01767255  0.88399272  1
  O  O193  1  0.74771501  0.51365036  0.36590494  1
  O  O194  1  0.75681758  0.50364888  0.86918514  1
  O  O195  1  0.24509442  0.50792069  0.13770435  1
  O  O196  1  0.24302456  0.49365681  0.62945886  1
  O  O197  1  0.23983295  0.99340792  0.12350841  1
  O  O198  1  0.23963940  0.98919085  0.63432597  1
  O  O199  1  0.74518253  0.49482336  0.13085811  1
  O  O200  1  0.75650654  0.50426907  0.63903377  1
  O  O201  1  0.74611599  0.99504524  0.13559240  1
  O  O202  1  0.75001867  0.98166538  0.63136015  1
  O  O203  1  0.00950728  0.38033589  0.26138842  1
  O  O204  1  0.00586558  0.36857767  0.75485453  1
  O  O205  1  0.00693849  0.86936403  0.25672166  1
  O  O206  1  0.00837093  0.87959196  0.76089262  1
  O  O207  1  0.50503103  0.37881512  0.24957528  1
  O  O208  1  0.50534484  0.37099492  0.74935830  1
  O  O209  1  0.51076502  0.86525844  0.24143504  1
  O  O210  1  0.49717363  0.87220347  0.75553346  1
  O  O211  1  0.49401353  0.12412832  0.23921183  1
  O  O212  1  0.48782115  0.13789162  0.74745211  1
  O  O213  1  0.49686467  0.63156100  0.24414920  1
  O  O214  1  0.49504245  0.62484458  0.74091508  1
  O  O215  1  0.99152522  0.11816925  0.23831981  1
  O  O216  1  0.99145383  0.13102249  0.74285438  1
  O  O217  1  1.00340224  0.64429537  0.25639140  1
  O  O218  1  0.99601737  0.61838938  0.74478666  1
  O  O219  1  0.36682333  0.26219276  -0.00313652  1
  O  O220  1  0.37403812  0.26633737  0.49298938  1
  O  O221  1  0.38108212  0.76268798  -0.00567701  1
  O  O222  1  0.36646681  0.75434670  0.50413328  1
  O  O223  1  0.86756871  0.25155163  0.00400706  1
  O  O224  1  0.87273645  0.25423505  0.50924585  1
  O  O225  1  0.87487132  0.77739985  -0.01770900  1
  O  O226  1  0.86877879  0.76039050  0.51062982  1
  O  O227  1  0.12085011  0.24901700  0.48783396  1
  O  O228  1  0.13225916  0.24023225  0.99375877  1
  O  O229  1  0.13821128  0.74202809  0.50447286  1
  O  O230  1  0.12375932  0.74073913  0.98700213  1
  O  O231  1  0.62944440  0.24491136  0.49435033  1
  O  O232  1  0.63108125  0.25415248  0.99348518  1
  O  O233  1  0.63189723  0.74795185  0.49391063  1
  O  O234  1  0.62580429  0.73967859  0.99515433  1
  O  O235  1  0.50163370  0.23737618  0.12321056  1
  O  O236  1  0.49843176  0.25110415  0.63730690  1
  O  O237  1  0.50905159  0.73735638  0.13529365  1
  O  O238  1  0.49471517  0.73899750  0.62887486  1
  O  O239  1  0.99607291  0.23562692  0.11855206  1
  O  O240  1  0.99052150  0.24189946  0.62844680  1
  O  O241  1  1.00227079  0.75642718  0.14034691  1
  O  O242  1  0.98583300  0.75401590  0.62273231  1
  O  O243  1  0.00760312  0.26650671  0.37813688  1
  O  O244  1  0.00265533  0.25882956  0.86721401  1
  O  O245  1  -0.00387161  0.76748103  0.36299037  1
  O  O246  1  0.00523411  0.76163332  0.88048228  1
  O  O247  1  0.50143737  0.25364793  0.37331052  1
  O  O248  1  0.50873625  0.24408643  0.87125962  1
  O  O249  1  0.51355902  0.74403842  0.36768132  1
  O  O250  1  0.51323966  0.74690829  0.87197094  1
  O  O251  1  0.23895408  0.12422814  0.51338744  1
  O  O252  1  0.24327546  0.13328576  1.00259680  1
  O  O253  1  0.24659521  0.62912052  0.49329859  1
  O  O254  1  0.24337221  0.62240048  0.98639869  1
  O  O255  1  0.75129628  0.12529900  0.48845317  1
  O  O256  1  0.74722808  0.13688754  0.99711270  1
  O  O257  1  0.74384502  0.63682507  0.49780564  1
  O  O258  1  0.73294140  0.61819403  0.99585675  1
  O  O259  1  0.26334580  0.36709464  -0.00345429  1
  O  O260  1  0.25870311  0.37889703  0.50660809  1
  O  O261  1  0.25885445  0.87617436  0.01322753  1
  O  O262  1  0.25632047  0.86384477  0.50483177  1
  O  O263  1  0.75506925  0.36467620  0.00430162  1
  O  O264  1  0.75401279  0.37623383  0.50378452  1
  O  O265  1  0.75846490  0.87847886  0.01199817  1
  O  O266  1  0.75778304  0.86544939  0.50057582  1
  O  O267  1  0.12966412  0.49325168  0.24975011  1
  O  O268  1  0.13169077  0.49282595  0.74329058  1
  O  O269  1  0.12717826  0.98877432  0.24113186  1
  O  O270  1  0.12908834  0.98876426  0.74523281  1
  O  O271  1  0.63073188  0.49691214  0.23994635  1
  O  O272  1  0.63444503  0.49270296  0.75745312  1
  O  O273  1  0.63190370  0.99111744  0.25183680  1
  O  O274  1  0.61051912  0.98875469  0.76898314  1
  O  O275  1  0.37505883  -0.00413426  0.26728008  1
  O  O276  1  0.36322406  0.00065190  0.75842272  1
  O  O277  1  0.36632440  0.50736265  0.25509451  1
  O  O278  1  0.37198968  0.50490118  0.75831017  1
  O  O279  1  0.86771293  0.01118556  0.24795059  1
  O  O280  1  0.87811599  0.01443796  0.75538302  1
  O  O281  1  0.86333187  0.49717421  0.24495294  1
  O  O282  1  0.86759237  0.49665077  0.76173232  1
  O  O283  1  0.11618824  0.36767131  0.36767938  1
  O  O284  1  0.11831282  0.37556132  0.86759142  1
  O  O285  1  0.11583825  0.87860371  0.36800965  1
  O  O286  1  0.11904313  0.86736375  0.87164151  1
  O  O287  1  0.62538958  0.38067999  0.36279124  1
  O  O288  1  0.62914309  0.36601290  0.86543641  1
  O  O289  1  0.63303161  0.86614979  0.36214306  1
  O  O290  1  0.62438948  0.86881914  0.88063205  1
  O  O291  1  0.38935389  0.12438173  0.12714796  1
  O  O292  1  0.37501967  0.11342571  0.64299450  1
  O  O293  1  0.38488478  0.61996027  0.13055738  1
  O  O294  1  0.38146577  0.62965993  0.62841475  1
  O  O295  1  0.88359574  0.12770490  0.12907770  1
  O  O296  1  0.87772313  0.12867210  0.63101250  1
  O  O297  1  0.86296551  0.65451908  0.05332114  1
  O  O298  1  0.87525281  0.64480112  0.62641325  1
  O  O299  1  0.23973995  0.25334703  0.10468580  1
  O  O300  1  0.24454665  0.26280042  0.62095385  1
  O  O301  1  0.25065945  0.76329034  0.12724378  1
  O  O302  1  0.25526638  0.75206631  0.61817367  1
  O  O303  1  0.75324967  0.25356674  0.11731668  1
  O  O304  1  0.76267454  0.25179376  0.62793028  1
  O  O305  1  0.74652419  0.75706756  0.11613701  1
  O  O306  1  0.75830876  0.76022606  0.62021899  1
  O  O307  1  0.22851742  0.25140270  0.38438148  1
  O  O308  1  0.24593493  0.25001676  0.89077939  1
  O  O309  1  0.25379243  0.73668320  0.38177460  1
  O  O310  1  0.24143445  0.74083596  0.86935463  1
  O  O311  1  0.74945478  0.23993119  0.37499374  1
  O  O312  1  0.74470402  0.24403477  0.88276157  1
  O  O313  1  0.74176777  0.74641882  0.38260905  1
  O  O314  1  0.74858293  0.73692330  0.89525184  1
  O  O315  1  0.00780085  0.11854636  0.00626844  1
  O  O316  1  -0.00048163  0.12535380  0.51011315  1
  O  O317  1  0.02271299  0.61849669  -0.01398007  1
  O  O318  1  0.00892422  0.62224374  0.50059226  1
  O  O319  1  0.49797149  0.11652137  0.00833706  1
  O  O320  1  0.50420247  0.11885987  0.50871140  1
  O  O321  1  0.50683905  0.62132379  0.00788955  1
  O  O322  1  0.50750111  0.62067966  0.50525585  1
  O  O323  1  0.49459670  0.38755647  0.50956107  1
  O  O324  1  0.48230101  0.37602996  1.00428245  1
  O  O325  1  0.48531721  0.86737701  0.50500787  1
  O  O326  1  0.48919305  0.88442188  1.01195103  1
  O  O327  1  0.99694256  0.38542209  0.48871594  1
  O  O328  1  0.99647731  0.37091032  0.98961087  1
  O  O329  1  0.99410552  0.86887170  0.48720836  1
  O  O330  1  0.99567332  0.88221484  0.99533476  1
  O  O331  1  0.49356814  0.50934246  0.38595058  1
  O  O332  1  0.48387248  0.50740695  0.87862021  1
  O  O333  1  0.48325235  0.99734999  0.38118942  1
  O  O334  1  0.49702608  0.99169202  0.87860476  1
  O  O335  1  1.00614721  0.48784738  0.38282816  1
  O  O336  1  0.99286789  0.48616704  0.87597538  1
  O  O337  1  0.99592541  0.98184887  0.36811637  1
  O  O338  1  0.99368472  0.99091351  0.88120311  1
  O  O339  1  0.01241853  0.00505459  0.11888262  1
  O  O340  1  0.00677085  0.00670512  0.63050225  1
  O  O341  1  0.00001816  0.50329998  0.11615895  1
  O  O342  1  0.00983626  0.50028669  0.61450643  1
  O  O343  1  0.50058165  0.00677054  0.12006430  1
  O  O344  1  0.50660294  -0.00378414  0.62237305  1
  O  O345  1  0.51019010  0.51259603  0.12344881  1
  O  O346  1  0.49522198  0.51498365  0.61384873  1
  O  O347  1  0.23254195  0.38716237  0.25277718  1
  O  O348  1  0.24595830  0.37869223  0.74146276  1
  O  O349  1  0.24464958  0.87781700  0.23902429  1
  O  O350  1  0.24122350  0.88220520  0.74656721  1
  O  O351  1  0.74415576  0.38385708  0.24600594  1
  O  O352  1  0.74209636  0.38442275  0.74862190  1
  O  O353  1  0.74762315  0.88100767  0.24492260  1
  O  O354  1  0.75291859  0.87155458  0.74621368  1
  O  O355  1  0.25755789  0.12140791  0.24287717  1
  O  O356  1  0.25098592  0.11241110  0.74695937  1
  O  O357  1  0.25142187  0.62226977  0.25662821  1
  O  O358  1  0.25581686  0.61857403  0.75712749  1
  O  O359  1  0.75643950  0.11721635  0.25270536  1
  O  O360  1  0.75896578  0.13366219  0.76229234  1
  O  O361  1  0.74778688  0.61851243  0.25978570  1
  O  O362  1  0.75492700  0.61814114  0.75867922  1
  O  O363  1  0.37571972  0.11675369  0.37418465  1
  O  O364  1  0.38078722  0.10759145  0.86523688  1
  O  O365  1  0.36762913  0.62137055  0.36804568  1
  O  O366  1  0.36903526  0.61810880  0.87156094  1
  O  O367  1  0.86968285  0.12408059  0.36636226  1
  O  O368  1  0.86981447  0.12313690  0.86876644  1
  O  O369  1  0.86270332  0.63448848  0.38527576  1
  O  O370  1  0.86939980  0.61371572  0.87802662  1
  O  O371  1  0.11600729  0.37526847  0.14069318  1
  O  O372  1  0.13008670  0.38040809  0.62671043  1
  O  O373  1  0.13546800  0.88045419  0.12767703  1
  O  O374  1  0.12658632  0.87698429  0.63347661  1
  O  O375  1  0.63044210  0.38392955  0.13140026  1
  O  O376  1  0.62789953  0.37212655  0.64054219  1
  O  O377  1  0.63744820  0.87553218  0.13585472  1
  O  O378  1  0.64191588  0.87040942  0.63006171  1
  O  O379  1  0.12875170  0.26286637  0.25914745  1
  O  O380  1  0.11861881  0.25377117  0.74877573  1
  O  O381  1  0.12251807  0.76367672  0.24921175  1
  O  O382  1  0.12810798  0.76105884  0.75930070  1
  O  O383  1  0.62949656  0.26639559  0.25325455  1
  O  O384  1  0.61374310  0.25876848  0.75857189  1
  O  O385  1  0.61848944  0.75489902  0.25775179  1
  O  O386  1  0.63112222  0.74441864  0.76903015  1
  O  O387  1  0.38132004  0.26260622  0.26168094  1
  O  O388  1  0.37948934  0.24089455  0.75729429  1
  O  O389  1  0.38881144  0.74649192  0.25542862  1
  O  O390  1  0.37593522  0.74305565  0.74500561  1
  O  O391  1  0.87034312  0.23585782  0.24117088  1
  O  O392  1  0.88098931  0.24090599  0.74457003  1
  O  O393  1  0.88319057  0.75242649  0.24603994  1
  O  O394  1  0.87024094  0.75237295  0.73945709  1
  O  O395  1  0.38138490  0.49037858  0.49124335  1
  O  O396  1  0.37275165  0.48729789  0.99144086  1
  O  O397  1  0.37468095  0.98416678  0.49225418  1
  O  O398  1  0.38243621  0.99675952  0.99367884  1
  O  O399  1  0.88826810  0.50361818  0.50503863  1
  O  O400  1  0.87393283  0.48604671  0.98596053  1
  O  O401  1  0.87168487  0.98600372  0.50346304  1
  O  O402  1  0.88004091  0.99617574  0.99478759  1
  O  O403  1  0.12392228  0.00562438  0.00572880  1
  O  O404  1  0.12547004  -0.00754064  0.51272895  1
  O  O405  1  0.12997110  0.51162519  -0.00033764  1
  O  O406  1  0.11934521  0.50701760  0.50396189  1
  O  O407  1  0.60985611  0.00165124  0.00234131  1
  O  O408  1  0.62621068  0.00176122  0.50428699  1
  O  O409  1  0.62354754  0.50354608  0.01092807  1
  O  O410  1  0.61743272  0.51120433  0.49618858  1
  O  O411  1  0.37169625  0.38014637  0.11648801  1
  O  O412  1  0.36410456  0.38327315  0.61576382  1
  O  O413  1  0.36220706  0.88040309  0.11822572  1
  O  O414  1  0.36632197  0.86672170  0.61712362  1
  O  O415  1  0.86967744  0.36589526  0.11994120  1
  O  O416  1  0.87555998  0.36612697  0.62555954  1
  O  O417  1  0.86493956  0.88402255  0.11842225  1
  O  O418  1  0.86700438  0.86779569  0.62293582  1
  O  O419  1  0.10855939  0.14039544  0.37368480  1
  O  O420  1  0.11682076  0.12037173  0.88616183  1
  O  O421  1  0.13305347  0.61992974  0.38747843  1
  O  O422  1  0.13522961  0.63111795  0.87751250  1
  O  O423  1  0.63788354  0.12420193  0.36721390  1
  O  O424  1  0.63360384  0.13878324  0.88082014  1
  O  O425  1  0.63275623  0.63420170  0.38641397  1
  O  O426  1  0.62769844  0.62864938  0.88417692  1
