# generated using pymatgen
data_V85Zn86O256
_symmetry_space_group_name_H-M   'P 1'
_cell_length_a   16.95336579
_cell_length_b   16.95110452
_cell_length_c   16.94510658
_cell_angle_alpha   89.97608933
_cell_angle_beta   89.96781168
_cell_angle_gamma   90.05380492
_symmetry_Int_Tables_number   1
_chemical_formula_structural   V85Zn86O256
_chemical_formula_sum   'V85 Zn86 O256'
_cell_volume   4869.65216632
_cell_formula_units_Z   1
loop_
 _symmetry_equiv_pos_site_id
 _symmetry_equiv_pos_as_xyz
  1  'x, y, z'
loop_
 _atom_site_type_symbol
 _atom_site_label
 _atom_site_symmetry_multiplicity
 _atom_site_fract_x
 _atom_site_fract_y
 _atom_site_fract_z
 _atom_site_occupancy
  V  V0  1  0.50111567  0.50499125  0.49988723  1
  V  V1  1  0.25001445  0.74782797  -0.00102243  1
  V  V2  1  0.00585332  0.25417213  0.74578168  1
  V  V3  1  0.75000169  0.12328502  0.87637877  1
  V  V4  1  0.74462153  0.62712116  0.38374198  1
  V  V5  1  0.87084059  0.37649327  0.00312755  1
  V  V6  1  0.36515857  0.37121884  0.50012038  1
  V  V7  1  0.87516068  0.75082761  0.12826242  1
  V  V8  1  0.25189120  0.12660641  0.87683887  1
  V  V9  1  0.24998182  0.25160771  0.00305234  1
  V  V10  1  0.50119027  0.75081492  0.75273768  1
  V  V11  1  0.36150065  0.62357855  0.75916979  1
  V  V12  1  0.50685556  0.24542765  0.25723684  1
  V  V13  1  -0.00410732  0.49956878  -0.00122241  1
  V  V14  1  0.12508428  0.36910491  0.25138932  1
  V  V15  1  0.74916827  0.50529549  0.74742289  1
  V  V16  1  0.00019016  0.62484250  0.12889316  1
  V  V17  1  0.13405717  0.49641623  0.64285945  1
  V  V18  1  -0.00490335  0.62485636  0.62411471  1
  V  V19  1  0.86874253  0.38146283  0.50307477  1
  V  V20  1  -0.00167842  0.37482963  0.37755781  1
  V  V21  1  0.87876186  0.00086712  0.87162914  1
  V  V22  1  -0.00383790  0.87438792  0.38672319  1
  V  V23  1  0.38132719  0.00129462  0.88226774  1
  V  V24  1  0.00186976  0.01945746  0.50531587  1
  V  V25  1  0.38884178  0.12867318  0.75288910  1
  V  V26  1  0.25277983  0.00087836  0.75068848  1
  V  V27  1  0.81871273  0.80695792  0.55984149  1
  V  V28  1  0.62045433  0.74420152  0.38336969  1
  V  V29  1  0.00154957  0.12054986  0.12797332  1
  V  V30  1  0.50230175  0.11863617  0.12031522  1
  V  V31  1  0.74800080  -0.01520206  0.74003889  1
  V  V32  1  0.12103761  0.87977218  0.24465164  1
  V  V33  1  0.62908306  0.36969517  0.24642856  1
  V  V34  1  0.75270649  0.74915947  -0.00052515  1
  V  V35  1  0.12198852  0.49904567  0.12633492  1
  V  V36  1  0.12668636  0.25919799  0.87338768  1
  V  V37  1  0.87279711  0.62489987  0.25352952  1
  V  V38  1  0.00271732  0.00156228  -0.00026043  1
  V  V39  1  0.49175823  0.62691394  0.12662679  1
  V  V40  1  -0.00212111  0.75158660  0.74579263  1
  V  V41  1  0.74809530  -0.00255738  0.25224213  1
  V  V42  1  0.87700505  0.25494004  0.62323301  1
  V  V43  1  0.74894895  0.49630629  0.24581735  1
  V  V44  1  0.73494541  0.25604203  0.48880794  1
  V  V45  1  -0.00178305  0.37928268  0.87191181  1
  V  V46  1  0.50673206  0.36871159  0.86022318  1
  V  V47  1  0.37613733  -0.00394466  0.38784668  1
  V  V48  1  0.00537462  0.87752956  0.87328661  1
  V  V49  1  0.37606982  0.87690617  0.00334281  1
  V  V50  1  0.37457005  0.12476422  0.25514417  1
  V  V51  1  0.37684731  0.24942248  0.62627786  1
  V  V52  1  0.49073553  0.87134948  0.38489346  1
  V  V53  1  0.25233506  0.76020552  0.49796470  1
  V  V54  1  0.12973378  0.87498648  0.74289672  1
  V  V55  1  0.62605044  0.50775801  0.62722538  1
  V  V56  1  0.61873358  0.10355229  0.49428595  1
  V  V57  1  0.12413532  0.62609269  -0.00525653  1
  V  V58  1  0.75757338  0.61976796  0.87558461  1
  V  V59  1  0.12776376  0.24804660  0.39284915  1
  V  V60  1  0.25559469  0.50122479  0.24572641  1
  V  V61  1  0.75016237  0.87494034  0.12672173  1
  V  V62  1  0.62809585  0.75128576  0.87053191  1
  V  V63  1  0.12457921  0.12140415  0.00126294  1
  V  V64  1  0.87153768  -0.00195082  0.38242539  1
  V  V65  1  0.24580465  0.12756708  0.39044767  1
  V  V66  1  0.12769687  0.62046269  0.50205577  1
  V  V67  1  0.37304507  0.75449592  0.62316926  1
  V  V68  1  0.87055123  0.24837662  0.12645403  1
  V  V69  1  0.62580743  0.62202699  0.00178312  1
  V  V70  1  0.24438066  0.00347376  0.24541114  1
  V  V71  1  0.69363179  0.32771596  0.68294024  1
  V  V72  1  0.50191650  0.49425643  -0.00309793  1
  V  V73  1  0.50382422  0.62715871  0.62394052  1
  V  V74  1  0.37861952  0.37194518  0.00031571  1
  V  V75  1  0.61267048  0.86611149  0.24739887  1
  V  V76  1  0.25195342  0.62480963  0.37292527  1
  V  V77  1  0.74477541  0.25177185  0.00131758  1
  V  V78  1  0.50425194  0.37306486  0.37639188  1
  V  V79  1  0.87773779  0.12660717  0.74415267  1
  V  V80  1  0.87645319  0.62178204  0.75328259  1
  V  V81  1  0.25152327  0.37139256  0.12641036  1
  V  V82  1  0.50718669  0.87720921  0.88040231  1
  V  V83  1  0.87786078  0.87616702  0.00099396  1
  V  V84  1  0.12434006  0.75047217  0.37284301  1
  Zn  Zn85  1  0.37693050  0.24869490  0.12895563  1
  Zn  Zn86  1  0.62576453  0.25075956  0.86007932  1
  Zn  Zn87  1  0.61407492  0.97832118  0.62445497  1
  Zn  Zn88  1  -0.00070962  0.75294327  0.25243393  1
  Zn  Zn89  1  0.37530622  0.49893237  0.37612002  1
  Zn  Zn90  1  0.24304898  0.88096148  0.12236913  1
  Zn  Zn91  1  0.62944754  0.49249768  0.12165756  1
  Zn  Zn92  1  0.00078345  0.49704785  0.50411904  1
  Zn  Zn93  1  0.62097783  -0.00495796  0.11845173  1
  Zn  Zn94  1  0.87144915  0.49851891  0.37691557  1
  Zn  Zn95  1  0.37694569  0.75498357  0.12802645  1
  Zn  Zn96  1  0.74600912  0.12652477  0.37288020  1
  Zn  Zn97  1  0.25446693  0.88103434  0.61905618  1
  Zn  Zn98  1  0.36509846  0.49406892  0.86449810  1
  Zn  Zn99  1  0.13197609  0.74640563  0.87159960  1
  Zn  Zn100  1  0.24930772  0.37229915  0.64225941  1
  Zn  Zn101  1  0.87376685  0.12383002  0.25224456  1
  Zn  Zn102  1  -0.00172906  0.24665911  0.25282951  1
  Zn  Zn103  1  0.13186915  0.02279616  0.61005668  1
  Zn  Zn104  1  0.38283798  0.63226441  0.25382007  1
  Zn  Zn105  1  0.61973662  0.11864843  -0.00646300  1
  Zn  Zn106  1  0.50234195  0.12036618  0.62317178  1
  Zn  Zn107  1  0.18568997  0.18574070  0.19005219  1
  Zn  Zn108  1  0.19533549  0.19062643  0.68429265  1
  Zn  Zn109  1  0.19137795  0.69177903  0.18398402  1
  Zn  Zn110  1  0.18630811  0.68878306  0.68460545  1
  Zn  Zn111  1  0.68659359  0.18607466  0.18840895  1
  Zn  Zn112  1  0.69291381  0.16189314  0.67957605  1
  Zn  Zn113  1  0.68634053  0.68609945  0.18912170  1
  Zn  Zn114  1  0.68988326  0.79795244  0.68554181  1
  Zn  Zn115  1  0.31432568  0.30938845  0.31728527  1
  Zn  Zn116  1  0.31963353  0.31057427  0.81210093  1
  Zn  Zn117  1  0.31169305  0.81214425  0.30532634  1
  Zn  Zn118  1  0.31496511  0.81145190  0.81566119  1
  Zn  Zn119  1  0.81262813  0.31225003  0.31241247  1
  Zn  Zn120  1  0.81904080  0.31131002  0.82010742  1
  Zn  Zn121  1  0.80926256  0.81258560  0.31936589  1
  Zn  Zn122  1  0.82003280  0.80910569  0.81299436  1
  Zn  Zn123  1  0.18720971  0.43942760  0.43658466  1
  Zn  Zn124  1  0.19694435  0.44313478  0.82904787  1
  Zn  Zn125  1  0.18153517  0.94250076  0.43230049  1
  Zn  Zn126  1  0.18956594  0.93768014  0.93483692  1
  Zn  Zn127  1  0.68408092  0.44172666  0.43699639  1
  Zn  Zn128  1  0.68788362  0.43507054  0.93230371  1
  Zn  Zn129  1  0.68918307  0.92480498  0.43750375  1
  Zn  Zn130  1  0.68867877  0.93988356  0.93817090  1
  Zn  Zn131  1  0.31536269  0.06366974  0.06522504  1
  Zn  Zn132  1  0.31796344  0.06279859  0.56711293  1
  Zn  Zn133  1  0.27695227  0.52859527  0.01151281  1
  Zn  Zn134  1  0.31666870  0.56571035  0.56420939  1
  Zn  Zn135  1  0.81119319  0.06188172  0.06332549  1
  Zn  Zn136  1  0.81137032  0.06753575  0.55882979  1
  Zn  Zn137  1  0.81349073  0.56080637  0.06614977  1
  Zn  Zn138  1  0.77823852  0.62485104  0.59293230  1
  Zn  Zn139  1  0.44122459  0.43834080  0.18418993  1
  Zn  Zn140  1  0.43207291  0.44057352  0.68503544  1
  Zn  Zn141  1  0.43366847  0.94084114  0.19319736  1
  Zn  Zn142  1  0.44106831  0.93513515  0.69038682  1
  Zn  Zn143  1  0.93489773  0.43484789  0.18878067  1
  Zn  Zn144  1  0.93552978  0.43997766  0.68596900  1
  Zn  Zn145  1  0.93739291  0.94055098  0.19195942  1
  Zn  Zn146  1  0.93589403  0.93718411  0.68051308  1
  Zn  Zn147  1  0.06172622  0.06267588  0.31737574  1
  Zn  Zn148  1  0.08131222  0.08368378  0.77901336  1
  Zn  Zn149  1  0.06363215  0.55858128  0.31351298  1
  Zn  Zn150  1  0.05802026  0.56327320  0.81575510  1
  Zn  Zn151  1  0.56334208  0.05490687  0.31473041  1
  Zn  Zn152  1  0.56795929  0.05678343  0.81210319  1
  Zn  Zn153  1  0.56401605  0.55799141  0.31063874  1
  Zn  Zn154  1  0.56196390  0.56299560  0.81201908  1
  Zn  Zn155  1  0.43816142  0.18833384  0.44039179  1
  Zn  Zn156  1  0.44121875  0.19260440  0.93583544  1
  Zn  Zn157  1  0.43679970  0.69027060  0.43641428  1
  Zn  Zn158  1  0.43620239  0.68699388  0.94055351  1
  Zn  Zn159  1  0.93028211  0.19092576  0.43613513  1
  Zn  Zn160  1  0.93725547  0.18978875  0.93648613  1
  Zn  Zn161  1  0.93940316  0.68344385  0.43591201  1
  Zn  Zn162  1  0.94013648  0.68966611  0.93572202  1
  Zn  Zn163  1  0.05967808  0.30944968  0.06288754  1
  Zn  Zn164  1  0.06121663  0.31722038  0.56609541  1
  Zn  Zn165  1  0.06254170  0.81082785  0.06453608  1
  Zn  Zn166  1  0.06321615  0.81196476  0.56329973  1
  Zn  Zn167  1  0.56204166  0.30640057  0.06740992  1
  Zn  Zn168  1  0.55047835  0.31088472  0.56260907  1
  Zn  Zn169  1  0.56378984  0.80980348  0.05947532  1
  Zn  Zn170  1  0.55902688  0.81118335  0.55964521  1
  O  O171  1  0.11489875  0.13213854  0.11355147  1
  O  O172  1  0.11709038  0.11483734  0.67103761  1
  O  O173  1  0.11457875  0.62237621  0.12195843  1
  O  O174  1  0.11838759  0.61621908  0.62060950  1
  O  O175  1  0.60971993  0.12294805  0.12845855  1
  O  O176  1  0.62270971  0.12006569  0.60543340  1
  O  O177  1  0.62247225  0.62415099  0.11127159  1
  O  O178  1  0.60738584  0.61989184  0.62450785  1
  O  O179  1  0.38430050  0.37692581  0.38109858  1
  O  O180  1  0.39082293  0.37347666  0.88441858  1
  O  O181  1  0.38414837  0.87962674  0.36804965  1
  O  O182  1  0.38184177  0.88184115  0.88635381  1
  O  O183  1  0.88317855  0.37361826  0.38226512  1
  O  O184  1  0.88598558  0.37080136  0.89172843  1
  O  O185  1  0.88494712  0.88367875  0.37058173  1
  O  O186  1  0.88811627  0.87829648  0.87875694  1
  O  O187  1  0.25369142  0.01063957  0.36802110  1
  O  O188  1  0.26095946  0.00642636  0.87206206  1
  O  O189  1  0.25066583  0.50754306  0.36392196  1
  O  O190  1  0.25766216  0.49912994  0.90274639  1
  O  O191  1  0.75644982  -0.00542231  0.36987997  1
  O  O192  1  0.75929998  0.00425038  0.86434383  1
  O  O193  1  0.74749515  0.50872210  0.36391056  1
  O  O194  1  0.74262115  0.50848495  0.86033580  1
  O  O195  1  0.24085670  0.49113191  0.12609717  1
  O  O196  1  0.23464845  0.50495726  0.62298484  1
  O  O197  1  0.25339615  1.00126580  0.14048689  1
  O  O198  1  0.24883334  0.99857378  0.63502380  1
  O  O199  1  0.74806258  0.50349776  0.14002565  1
  O  O200  1  0.73985216  0.51960524  0.63631531  1
  O  O201  1  0.75178538  0.99042978  0.13437970  1
  O  O202  1  0.75445827  1.00379921  0.63965417  1
  O  O203  1  0.00833044  0.37275858  0.25793933  1
  O  O204  1  -0.01086607  0.36849424  0.76273098  1
  O  O205  1  0.00628963  0.87743244  0.26096704  1
  O  O206  1  0.00645624  0.87039489  0.75408702  1
  O  O207  1  0.50370672  0.36669993  0.25639393  1
  O  O208  1  0.49587504  0.38117661  0.76272638  1
  O  O209  1  0.51038344  0.87544514  0.25207955  1
  O  O210  1  0.49137098  0.85807311  0.76631695  1
  O  O211  1  0.49436449  0.12855295  0.25029491  1
  O  O212  1  0.49069178  0.12187493  0.75706514  1
  O  O213  1  0.50045520  0.61354107  0.23081150  1
  O  O214  1  0.49537852  0.63607016  0.74575270  1
  O  O215  1  0.99975380  0.12595102  0.24167175  1
  O  O216  1  0.98237590  0.14008241  0.76194313  1
  O  O217  1  0.99114782  0.62396156  0.24797244  1
  O  O218  1  0.99624293  0.63155553  0.74657825  1
  O  O219  1  0.37173471  0.25780887  0.00290482  1
  O  O220  1  0.37849255  0.26011558  0.50788226  1
  O  O221  1  0.36805884  0.75798635  0.00377728  1
  O  O222  1  0.36352242  0.74420162  0.50941624  1
  O  O223  1  0.86604734  0.25536211  0.00581561  1
  O  O224  1  0.86222927  0.25687851  0.50757327  1
  O  O225  1  0.87176929  0.75568130  0.00588883  1
  O  O226  1  0.87912472  0.74913554  0.50332143  1
  O  O227  1  0.12383997  0.25586980  0.49207504  1
  O  O228  1  0.12845365  0.24245694  0.99285685  1
  O  O229  1  0.13140860  0.73793513  0.49619731  1
  O  O230  1  0.12916530  0.74289820  0.99963532  1
  O  O231  1  0.63521525  0.25730279  0.50201801  1
  O  O232  1  0.63878269  0.24487288  1.00436694  1
  O  O233  1  0.61749328  0.74575830  0.48201940  1
  O  O234  1  0.63334897  0.74164991  0.99066228  1
  O  O235  1  0.49809176  0.23854335  0.14045169  1
  O  O236  1  0.48542884  0.24229421  0.62445648  1
  O  O237  1  0.50045037  0.73067918  0.11474330  1
  O  O238  1  0.49236995  0.74416305  0.63269564  1
  O  O239  1  0.98886930  0.23844295  0.12400894  1
  O  O240  1  0.99129220  0.25699287  0.63553896  1
  O  O241  1  0.99205479  0.74291721  0.12946775  1
  O  O242  1  1.00986137  0.74078242  0.63810716  1
  O  O243  1  0.00686200  0.25886412  0.37500027  1
  O  O244  1  0.00684427  0.25917911  0.87119870  1
  O  O245  1  0.00645164  0.75675647  0.37374042  1
  O  O246  1  0.00279555  0.75869639  0.86405526  1
  O  O247  1  0.49581058  0.25726970  0.36493974  1
  O  O248  1  0.50735511  0.26285387  0.87409486  1
  O  O249  1  0.50603776  0.75817464  0.37106126  1
  O  O250  1  0.50931081  0.75198107  0.87181447  1
  O  O251  1  0.24941759  0.11974402  0.48892146  1
  O  O252  1  0.24415922  0.13105171  0.99769323  1
  O  O253  1  0.24469939  0.62990563  0.49192575  1
  O  O254  1  0.23378729  0.63500614  1.01209084  1
  O  O255  1  0.73642722  0.13877918  0.49919704  1
  O  O256  1  0.75404778  0.13188690  0.98908779  1
  O  O257  1  0.75203578  0.61728868  0.48225401  1
  O  O258  1  0.74650094  0.62647654  0.99451908  1
  O  O259  1  0.26216583  0.36494507  0.01039043  1
  O  O260  1  0.26395733  0.38267371  0.49939820  1
  O  O261  1  0.25773508  0.87236555  0.00262821  1
  O  O262  1  0.23981974  0.86347511  0.49789407  1
  O  O263  1  0.75867959  0.36685924  -0.00514055  1
  O  O264  1  0.75418192  0.36551185  0.49262910  1
  O  O265  1  0.75924210  0.86835783  0.00488967  1
  O  O266  1  0.75973417  0.86442610  0.50073820  1
  O  O267  1  0.13412708  0.48829976  0.24688265  1
  O  O268  1  0.12766581  0.50315071  0.74657681  1
  O  O269  1  0.13271562  0.99331363  0.25803217  1
  O  O270  1  0.14393382  0.98744219  0.76518675  1
  O  O271  1  0.63209709  0.48988080  0.24661498  1
  O  O272  1  0.63082046  0.50475950  0.73759723  1
  O  O273  1  0.63152957  0.98418178  0.24819714  1
  O  O274  1  0.64617508  1.00111460  0.74829913  1
  O  O275  1  0.36703176  0.01022710  0.26042502  1
  O  O276  1  0.36706553  0.00194474  0.76321120  1
  O  O277  1  0.36285573  0.50176444  0.24759150  1
  O  O278  1  0.37781504  0.51861530  0.74940955  1
  O  O279  1  0.86566724  0.00026973  0.26140188  1
  O  O280  1  0.87134410  0.00675735  0.75173848  1
  O  O281  1  0.86784183  0.50562972  0.25320669  1
  O  O282  1  0.86754719  0.51243312  0.74681632  1
  O  O283  1  0.12060094  0.36851415  0.37044266  1
  O  O284  1  0.11537663  0.36499522  0.87744721  1
  O  O285  1  0.11660009  0.87001431  0.36655282  1
  O  O286  1  0.11527182  0.87282925  0.86909715  1
  O  O287  1  0.61000048  0.38102607  0.36591783  1
  O  O288  1  0.61204179  0.37133276  0.87414846  1
  O  O289  1  0.61426411  0.86469969  0.36698355  1
  O  O290  1  0.61899687  0.86430676  0.88083854  1
  O  O291  1  0.38507982  0.12561373  0.13633379  1
  O  O292  1  0.37709147  0.13038461  0.63632905  1
  O  O293  1  0.39179289  0.62096015  0.11953766  1
  O  O294  1  0.38139473  0.63458854  0.63593310  1
  O  O295  1  0.88211306  0.13110009  0.12680409  1
  O  O296  1  0.86581221  0.14234429  0.63210880  1
  O  O297  1  0.87981885  0.62913726  0.13637195  1
  O  O298  1  0.88988456  0.62103840  0.63453483  1
  O  O299  1  0.25228753  0.25319841  0.12147164  1
  O  O300  1  0.26600122  0.25490186  0.62836823  1
  O  O301  1  0.25003930  0.76014943  0.11213753  1
  O  O302  1  0.25503419  0.75147460  0.61465253  1
  O  O303  1  0.76209046  0.24144609  0.11746547  1
  O  O304  1  0.75013218  0.26093619  0.62201098  1
  O  O305  1  0.75574772  0.75420407  0.11959151  1
  O  O306  1  0.76007921  0.73730337  0.61778749  1
  O  O307  1  0.24370574  0.23613279  0.37468220  1
  O  O308  1  0.24373621  0.24710639  0.88308756  1
  O  O309  1  0.24464403  0.74283612  0.38023056  1
  O  O310  1  0.24834144  0.75608680  0.89222611  1
  O  O311  1  0.75063090  0.24697821  0.38643179  1
  O  O312  1  0.74829653  0.24186919  0.88197419  1
  O  O313  1  0.73234265  0.74223192  0.36935732  1
  O  O314  1  0.74616737  0.74196437  0.87896169  1
  O  O315  1  0.00677597  0.12180625  0.00346738  1
  O  O316  1  -0.00264453  0.11822687  0.49778799  1
  O  O317  1  -0.00002370  0.61912881  0.00782223  1
  O  O318  1  0.00829478  0.62177345  0.50823854  1
  O  O319  1  0.49951163  0.13306962  0.01714707  1
  O  O320  1  0.51655373  0.12433673  0.49596541  1
  O  O321  1  0.50830185  0.61471160  0.00201355  1
  O  O322  1  0.48998278  0.61491403  0.50853876  1
  O  O323  1  0.49219459  0.38247298  0.49212874  1
  O  O324  1  0.49750862  0.37752304  0.99928533  1
  O  O325  1  0.49476258  0.87000639  0.48341213  1
  O  O326  1  0.49271576  0.86786063  0.98858917  1
  O  O327  1  0.99023323  0.37502530  0.49387226  1
  O  O328  1  0.99599538  0.38225683  0.99478711  1
  O  O329  1  1.00629312  0.87836198  0.48890890  1
  O  O330  1  0.99841638  0.87996078  0.99316770  1
  O  O331  1  0.49724189  0.49519623  0.38283374  1
  O  O332  1  0.50054483  0.49068363  0.88514200  1
  O  O333  1  0.48995109  0.98233110  0.36909841  1
  O  O334  1  0.49468915  0.98857055  0.87062098  1
  O  O335  1  0.99977532  0.48596008  0.37825197  1
  O  O336  1  1.00252819  0.49031713  0.88554794  1
  O  O337  1  0.99211302  0.99534535  0.38559089  1
  O  O338  1  0.99529888  0.99229342  0.87949882  1
  O  O339  1  -0.00668608  0.01265663  0.11677093  1
  O  O340  1  -0.00158892  -0.00092366  0.60703546  1
  O  O341  1  0.00303312  0.50504471  0.12291152  1
  O  O342  1  0.01316056  0.50733985  0.62657161  1
  O  O343  1  0.49929878  0.01555867  0.13300319  1
  O  O344  1  0.50370557  0.00592787  0.63641895  1
  O  O345  1  0.50622184  0.50625995  0.11140485  1
  O  O346  1  0.50388917  0.50715297  0.61994786  1
  O  O347  1  0.24522995  0.37974040  0.24726333  1
  O  O348  1  0.25507832  0.38074854  0.75591040  1
  O  O349  1  0.23912271  0.88663546  0.25081441  1
  O  O350  1  0.24521560  0.88023017  0.75075081  1
  O  O351  1  0.74057018  0.38226696  0.25773968  1
  O  O352  1  0.75447312  0.38209173  0.74771004  1
  O  O353  1  0.74168323  0.88074666  0.24639710  1
  O  O354  1  0.75422306  0.88046353  0.75129373  1
  O  O355  1  0.25694536  0.12092178  0.25689986  1
  O  O356  1  0.26298307  0.11676857  0.76111798  1
  O  O357  1  0.24530243  0.61540087  0.25587275  1
  O  O358  1  0.26269484  0.63338489  0.75109947  1
  O  O359  1  0.74663591  0.10862063  0.25121866  1
  O  O360  1  0.76226238  0.11746211  0.75842298  1
  O  O361  1  0.75678202  0.61898080  0.25583031  1
  O  O362  1  0.76080965  0.62021886  0.75995616  1
  O  O363  1  0.36591934  0.11951892  0.37313357  1
  O  O364  1  0.37413231  0.11906432  0.87362681  1
  O  O365  1  0.36277556  0.62201114  0.37302749  1
  O  O366  1  0.38029205  0.62420461  0.86188439  1
  O  O367  1  0.86840130  0.11599771  0.37200052  1
  O  O368  1  0.86707714  0.12180929  0.86915883  1
  O  O369  1  0.86860030  0.62289662  0.36533869  1
  O  O370  1  0.86513325  0.62592257  0.87249030  1
  O  O371  1  0.12748218  0.37599055  0.13401371  1
  O  O372  1  0.12785618  0.39393721  0.62267091  1
  O  O373  1  0.12045731  0.87544438  0.13998253  1
  O  O374  1  0.12709362  0.87965151  0.63708376  1
  O  O375  1  0.61984876  0.37389885  0.14113142  1
  O  O376  1  0.62547284  0.38121921  0.62820985  1
  O  O377  1  0.62867586  0.87226855  0.13334929  1
  O  O378  1  0.62456657  0.86607047  0.62753384  1
  O  O379  1  0.12466781  0.26076558  0.25741960  1
  O  O380  1  0.11255488  0.25176647  0.75867532  1
  O  O381  1  0.12469747  0.75862965  0.25689790  1
  O  O382  1  0.12073265  0.75794984  0.75268915  1
  O  O383  1  0.61859678  0.25474528  0.25219797  1
  O  O384  1  0.64417125  0.25763190  0.73790060  1
  O  O385  1  0.62720574  0.76281602  0.25365413  1
  O  O386  1  0.61902988  0.74562710  0.76402455  1
  O  O387  1  0.38089945  0.23646008  0.25345807  1
  O  O388  1  0.37627330  0.23705224  0.74534846  1
  O  O389  1  0.36609236  0.74288419  0.23954888  1
  O  O390  1  0.38126454  0.74106558  0.74741858  1
  O  O391  1  0.87602994  0.24737832  0.24081145  1
  O  O392  1  0.87920695  0.24634377  0.74294087  1
  O  O393  1  0.87410916  0.74131699  0.24712795  1
  O  O394  1  0.88613584  0.73524823  0.75495570  1
  O  O395  1  0.38493701  0.49263766  0.50190838  1
  O  O396  1  0.38630441  0.48277341  1.00218310  1
  O  O397  1  0.36852530  0.99869813  0.48722782  1
  O  O398  1  0.37198491  0.99542931  0.98945065  1
  O  O399  1  0.87534569  0.48447945  0.49893777  1
  O  O400  1  0.88622634  0.49230359  1.00868006  1
  O  O401  1  0.88311991  1.00604471  0.49060898  1
  O  O402  1  0.88045294  0.99403982  0.99252427  1
  O  O403  1  0.12165385  0.01476794  -0.00774680  1
  O  O404  1  0.10887818  0.00389723  0.49781845  1
  O  O405  1  0.10868264  0.51031587  0.01173553  1
  O  O406  1  0.12410679  0.51197686  0.50260178  1
  O  O407  1  0.63284055  0.00668887  0.00576107  1
  O  O408  1  0.63006170  0.00178321  0.50190242  1
  O  O409  1  0.62154474  0.50512427  0.00005605  1
  O  O410  1  0.61271595  0.49408703  0.51335815  1
  O  O411  1  0.37240103  0.37019721  0.12002919  1
  O  O412  1  0.37418470  0.36870701  0.61741150  1
  O  O413  1  0.37854325  0.88010841  0.11166605  1
  O  O414  1  0.37232419  0.85862247  0.63420692  1
  O  O415  1  0.88162672  0.36367445  0.11312783  1
  O  O416  1  0.87560079  0.36599398  0.61779856  1
  O  O417  1  0.87166217  0.87008506  0.12196479  1
  O  O418  1  0.87369477  0.86163269  0.62532698  1
  O  O419  1  0.13766298  0.13386041  0.37175580  1
  O  O420  1  0.13113839  0.13871298  0.87857059  1
  O  O421  1  0.13316865  0.62772602  0.38135690  1
  O  O422  1  0.11589527  0.62804798  0.89091087  1
  O  O423  1  0.62872896  0.11601082  0.38851670  1
  O  O424  1  0.63662494  0.12992785  0.87247333  1
  O  O425  1  0.62776032  0.63751307  0.36449091  1
  O  O426  1  0.63362017  0.62961421  0.88488308  1
