# generated using pymatgen
data_V85Zn86O256
_symmetry_space_group_name_H-M   'P 1'
_cell_length_a   16.95241272
_cell_length_b   16.94337424
_cell_length_c   16.95140513
_cell_angle_alpha   90.03495460
_cell_angle_beta   89.93819766
_cell_angle_gamma   90.08724333
_symmetry_Int_Tables_number   1
_chemical_formula_structural   V85Zn86O256
_chemical_formula_sum   'V85 Zn86 O256'
_cell_volume   4868.96090496
_cell_formula_units_Z   1
loop_
 _symmetry_equiv_pos_site_id
 _symmetry_equiv_pos_as_xyz
  1  'x, y, z'
loop_
 _atom_site_type_symbol
 _atom_site_label
 _atom_site_symmetry_multiplicity
 _atom_site_fract_x
 _atom_site_fract_y
 _atom_site_fract_z
 _atom_site_occupancy
  V  V0  1  -0.00580702  0.87242467  0.37905109  1
  V  V1  1  0.75401748  0.13170547  0.88753081  1
  V  V2  1  0.37822709  0.11969517  0.24312555  1
  V  V3  1  0.87636159  0.50044374  0.87466465  1
  V  V4  1  0.62428723  0.50225491  0.12447312  1
  V  V5  1  0.25086807  0.37479266  0.12353557  1
  V  V6  1  0.74820086  0.75282178  0.00270820  1
  V  V7  1  0.61587508  0.75484228  0.37756006  1
  V  V8  1  0.50290987  0.12559489  0.62113034  1
  V  V9  1  0.74204148  0.62488459  0.37998346  1
  V  V10  1  0.62460961  0.62953656  0.00065771  1
  V  V11  1  0.12645145  0.12394941  0.50199162  1
  V  V12  1  0.12404695  0.87783284  0.25459178  1
  V  V13  1  0.75658283  0.24688726  0.51383716  1
  V  V14  1  0.50077730  -0.00744170  0.49313264  1
  V  V15  1  0.87460553  0.37022262  0.51396664  1
  V  V16  1  0.76154385  0.00671150  0.26360200  1
  V  V17  1  0.87313487  0.49898408  0.37656384  1
  V  V18  1  0.37622354  0.37892211  -0.00309664  1
  V  V19  1  0.74794715  0.50068333  0.24972573  1
  V  V20  1  -0.01016486  0.24411369  0.74828213  1
  V  V21  1  0.25577288  0.12655546  0.86850896  1
  V  V22  1  0.75015904  0.87369740  0.63166213  1
  V  V23  1  0.37747658  -0.01391762  0.36977226  1
  V  V24  1  0.75420880  0.01876697  0.74926479  1
  V  V25  1  0.49553992  0.50485609  -0.00726353  1
  V  V26  1  0.24169974  0.62382219  0.38121337  1
  V  V27  1  0.49523829  0.37415356  0.38017823  1
  V  V28  1  0.37285146  0.87288238  0.00129845  1
  V  V29  1  0.24100277  0.75158104  0.50492888  1
  V  V30  1  0.00786398  0.75318067  0.75740626  1
  V  V31  1  -0.00116177  0.62490136  0.12512935  1
  V  V32  1  0.62411184  0.01000889  0.12870436  1
  V  V33  1  0.62632715  0.25505076  0.87720152  1
  V  V34  1  0.50072508  0.00980755  0.00406010  1
  V  V35  1  0.38131890  0.00058966  0.86635864  1
  V  V36  1  0.74514142  0.74601540  0.50600593  1
  V  V37  1  0.25135305  0.49989561  0.25069534  1
  V  V38  1  0.00466534  0.50279834  0.49982492  1
  V  V39  1  0.00008944  0.12795504  0.12540244  1
  V  V40  1  0.12034271  0.36927955  0.24719189  1
  V  V41  1  0.87816691  0.62719451  0.75054835  1
  V  V42  1  0.74741772  0.87844153  0.13175543  1
  V  V43  1  0.00400697  0.87721444  0.87944059  1
  V  V44  1  -0.01078339  0.12512915  0.62996470  1
  V  V45  1  0.75152667  0.62589397  0.87490353  1
  V  V46  1  0.00559188  0.62853119  0.62185320  1
  V  V47  1  0.36844397  0.87609836  0.51307814  1
  V  V48  1  0.36861445  0.73577355  0.63306673  1
  V  V49  1  0.62213888  0.37443819  0.24745896  1
  V  V50  1  0.62678176  0.75294899  0.86378474  1
  V  V51  1  0.50924824  0.61790011  0.62013266  1
  V  V52  1  0.49839313  0.63147580  0.12778337  1
  V  V53  1  0.50385469  0.37696636  0.86928444  1
  V  V54  1  0.50295078  0.24372226  0.24232249  1
  V  V55  1  0.12424399  0.50053067  0.12069459  1
  V  V56  1  0.12858675  0.24840630  0.87107787  1
  V  V57  1  0.00365228  0.37453017  0.87643565  1
  V  V58  1  0.37385117  0.62585990  0.25232013  1
  V  V59  1  0.74903986  0.37052928  0.11544241  1
  V  V60  1  0.37875936  0.25481683  0.61619109  1
  V  V61  1  0.12975000  0.64211796  -0.00887451  1
  V  V62  1  0.24942299  0.11971070  0.37043639  1
  V  V63  1  0.14051254  -0.00090198  0.63356629  1
  V  V64  1  0.25122651  0.24922720  -0.00220051  1
  V  V65  1  0.62628804  0.00158296  0.62400225  1
  V  V66  1  0.63950368  0.24737681  0.36837796  1
  V  V67  1  -0.00124783  0.00068813  0.50145087  1
  V  V68  1  0.11777987  -0.00011079  0.12614040  1
  V  V69  1  0.87796487  0.00361699  0.87434933  1
  V  V70  1  0.12641990  0.50003390  0.62355126  1
  V  V71  1  0.87575832  0.88101760  0.00172065  1
  V  V72  1  0.62977571  0.12505305  0.49243991  1
  V  V73  1  0.38022865  0.13454595  0.74719898  1
  V  V74  1  0.12453497  0.24948611  0.37196092  1
  V  V75  1  0.37836619  0.49605574  0.38784385  1
  V  V76  1  0.87928205  0.25079882  0.12277197  1
  V  V77  1  0.25115951  0.37436084  0.62302026  1
  V  V78  1  0.12362093  0.11195081  -0.00378364  1
  V  V79  1  0.25683533  0.25251543  0.49420601  1
  V  V80  1  0.37766974  0.24603695  0.12418349  1
  V  V81  1  -0.00206300  0.74755157  0.25337199  1
  V  V82  1  -0.00219926  0.37094851  0.37261767  1
  V  V83  1  0.87277518  0.87959882  0.50158840  1
  V  V84  1  0.26996866  0.62980744  0.87448427  1
  Zn  Zn85  1  0.49461980  0.75898406  0.25559612  1
  Zn  Zn86  1  0.25350092  0.51184659  0.75720370  1
  Zn  Zn87  1  0.87661470  0.75118056  0.62632884  1
  Zn  Zn88  1  0.74436451  0.47705189  0.74507995  1
  Zn  Zn89  1  0.87243618  0.62485948  0.25113729  1
  Zn  Zn90  1  0.11986171  0.74301772  0.38285264  1
  Zn  Zn91  1  0.62365246  0.47152944  0.62898099  1
  Zn  Zn92  1  0.61595451  0.88259737  0.25667451  1
  Zn  Zn93  1  0.13877144  0.87103032  0.74267554  1
  Zn  Zn94  1  0.24691625  -0.00331489  0.24647943  1
  Zn  Zn95  1  0.36462870  0.74981775  0.12241943  1
  Zn  Zn96  1  0.49423545  0.75103763  0.74906249  1
  Zn  Zn97  1  0.50477225  0.87734942  0.87441528  1
  Zn  Zn98  1  0.00142301  0.50221336  -0.00254742  1
  Zn  Zn99  1  -0.12369410  0.13547152  0.26377922  1
  Zn  Zn100  1  0.87290819  0.37304335  -0.00198516  1
  Zn  Zn101  1  0.23758901  0.86880113  0.11023368  1
  Zn  Zn102  1  0.87280978  0.75008700  0.12769326  1
  Zn  Zn103  1  0.12343413  0.37503769  0.74770628  1
  Zn  Zn104  1  0.62422917  0.88031764  0.75159688  1
  Zn  Zn105  1  0.62404312  0.13190938  0.00599578  1
  Zn  Zn106  1  0.53103563  0.28508600  0.71437234  1
  Zn  Zn107  1  0.18713608  0.18623951  0.18548425  1
  Zn  Zn108  1  0.18941618  0.18623757  0.68680454  1
  Zn  Zn109  1  0.18565724  0.69091660  0.18735888  1
  Zn  Zn110  1  0.18952820  0.68576943  0.69134094  1
  Zn  Zn111  1  0.69800729  0.18602293  0.18793856  1
  Zn  Zn112  1  0.69595870  0.29986849  0.69582063  1
  Zn  Zn113  1  0.68520446  0.68947345  0.19280639  1
  Zn  Zn114  1  0.68579398  0.61852776  0.68537752  1
  Zn  Zn115  1  0.31334788  0.31134450  0.30877268  1
  Zn  Zn116  1  0.33304507  0.34104307  0.79032090  1
  Zn  Zn117  1  0.30745356  0.80868914  0.31300854  1
  Zn  Zn118  1  0.30899058  0.80697535  0.81826637  1
  Zn  Zn119  1  0.81620020  0.31647218  0.30467821  1
  Zn  Zn120  1  0.81988194  0.30609001  0.82170662  1
  Zn  Zn121  1  0.81068719  0.81300472  0.31465119  1
  Zn  Zn122  1  0.81573531  0.81307515  0.81219286  1
  Zn  Zn123  1  0.18802290  0.43724755  0.43827362  1
  Zn  Zn124  1  0.18990123  0.44117721  0.93553622  1
  Zn  Zn125  1  0.18447048  0.93599118  0.43873926  1
  Zn  Zn126  1  0.20980669  0.92136327  0.90221811  1
  Zn  Zn127  1  0.68919406  0.43519102  0.44061469  1
  Zn  Zn128  1  0.68583268  0.44262153  0.93364981  1
  Zn  Zn129  1  0.68859702  0.93406263  0.43851824  1
  Zn  Zn130  1  0.68853316  0.94172047  0.93957643  1
  Zn  Zn131  1  0.30633114  0.05512196  0.05975000  1
  Zn  Zn132  1  0.31572820  0.06512073  0.55815517  1
  Zn  Zn133  1  0.31073520  0.56614137  0.05990614  1
  Zn  Zn134  1  0.31239252  0.56321154  0.56004090  1
  Zn  Zn135  1  0.81481984  0.06135249  0.06630248  1
  Zn  Zn136  1  0.81077588  0.06351856  0.55850383  1
  Zn  Zn137  1  0.81394147  0.56125885  0.06130430  1
  Zn  Zn138  1  0.81568537  0.55968504  0.56353249  1
  Zn  Zn139  1  0.43855095  0.43920208  0.18701332  1
  Zn  Zn140  1  0.43009995  0.45015736  0.68242644  1
  Zn  Zn141  1  0.44053506  0.93548018  0.18387650  1
  Zn  Zn142  1  0.44128535  0.93689496  0.68986382  1
  Zn  Zn143  1  0.93574471  0.43706863  0.18827022  1
  Zn  Zn144  1  0.93854736  0.43716782  0.69307101  1
  Zn  Zn145  1  0.93916279  0.93883325  0.18614859  1
  Zn  Zn146  1  0.93945161  0.93928802  0.69115205  1
  Zn  Zn147  1  0.03497982  0.07295477  0.32341031  1
  Zn  Zn148  1  0.06196847  0.06032398  0.81171333  1
  Zn  Zn149  1  0.06270820  0.55804108  0.31007303  1
  Zn  Zn150  1  0.06855867  0.56173519  0.81018166  1
  Zn  Zn151  1  0.56220010  0.06092887  0.31024324  1
  Zn  Zn152  1  0.56718914  0.07034876  0.81057703  1
  Zn  Zn153  1  0.56034866  0.56348506  0.31731183  1
  Zn  Zn154  1  0.55446039  0.56865144  0.80594316  1
  Zn  Zn155  1  0.44159013  0.18452421  0.42903129  1
  Zn  Zn156  1  0.44246060  0.19243689  0.93707944  1
  Zn  Zn157  1  0.42961945  0.68690575  0.44370912  1
  Zn  Zn158  1  0.43964637  0.69217580  0.93564813  1
  Zn  Zn159  1  0.93558901  0.18653826  0.43857460  1
  Zn  Zn160  1  0.93819864  0.18830096  0.94270211  1
  Zn  Zn161  1  0.92939352  0.68662735  0.44007024  1
  Zn  Zn162  1  0.93926456  0.69092287  0.94072246  1
  Zn  Zn163  1  0.06238532  0.30883887  0.05721247  1
  Zn  Zn164  1  0.06241435  0.30988734  0.56034052  1
  Zn  Zn165  1  0.05781904  0.81367857  0.06473189  1
  Zn  Zn166  1  0.06438149  0.81552052  0.56841511  1
  Zn  Zn167  1  0.56350667  0.31201736  0.05823072  1
  Zn  Zn168  1  0.57775681  0.33725663  0.54116639  1
  Zn  Zn169  1  0.56060135  0.82034431  0.06417646  1
  Zn  Zn170  1  0.56042497  0.80928029  0.56475853  1
  O  O171  1  0.12234944  0.12050650  0.11515308  1
  O  O172  1  0.12182682  0.11653565  0.61917417  1
  O  O173  1  0.11605190  0.61775357  0.12137016  1
  O  O174  1  0.11440229  0.61444960  0.62918000  1
  O  O175  1  0.63380071  0.11409211  0.12436623  1
  O  O176  1  0.61581088  0.11893435  0.60590384  1
  O  O177  1  0.61795457  0.62323138  0.12114965  1
  O  O178  1  0.60646053  0.64332393  0.60932617  1
  O  O179  1  0.38284940  0.38651957  0.35871996  1
  O  O180  1  0.38520359  0.36497303  0.89323294  1
  O  O181  1  0.36933964  0.88405254  0.38095979  1
  O  O182  1  0.38145928  0.88688187  0.88378378  1
  O  O183  1  0.88331609  0.37966681  0.37869221  1
  O  O184  1  0.88599752  0.38320562  0.87859090  1
  O  O185  1  0.88621543  0.87093899  0.38405957  1
  O  O186  1  0.87785031  0.88380832  0.88341678  1
  O  O187  1  0.25606084  0.00605149  0.37247245  1
  O  O188  1  0.26786057  0.02216912  0.88381742  1
  O  O189  1  0.25545594  0.50407981  0.36969994  1
  O  O190  1  0.23785482  0.52213946  0.87610391  1
  O  O191  1  0.75013933  -0.00602107  0.36182960  1
  O  O192  1  0.75700091  0.00812989  0.86942736  1
  O  O193  1  0.75058750  0.50500720  0.37261107  1
  O  O194  1  0.75999238  0.50895586  0.87256812  1
  O  O195  1  0.24238400  0.49514946  0.12944278  1
  O  O196  1  0.24225892  0.49007892  0.61928868  1
  O  O197  1  0.23261219  0.99426301  0.12790919  1
  O  O198  1  0.23906015  1.00729689  0.62045357  1
  O  O199  1  0.74392451  0.49688449  0.13053317  1
  O  O200  1  0.73854939  0.52190450  0.63360556  1
  O  O201  1  0.74477546  0.99369550  0.13328575  1
  O  O202  1  0.74670969  0.99734132  0.63163458  1
  O  O203  1  0.00914754  0.38200055  0.25960065  1
  O  O204  1  0.00380816  0.36475321  0.75918044  1
  O  O205  1  0.00300159  0.86908683  0.25986315  1
  O  O206  1  0.00494666  0.87006632  0.76095563  1
  O  O207  1  0.50631517  0.36619137  0.25023580  1
  O  O208  1  0.49074723  0.38294299  0.76762084  1
  O  O209  1  0.50274724  0.87146766  0.24897019  1
  O  O210  1  0.50717540  0.87007743  0.75322050  1
  O  O211  1  0.48982915  0.13056040  0.25009995  1
  O  O212  1  0.49316710  0.12482207  0.73595142  1
  O  O213  1  0.49155408  0.62672702  0.24373432  1
  O  O214  1  0.49747280  0.63603911  0.73147913  1
  O  O215  1  1.01073615  0.12970267  0.22643910  1
  O  O216  1  1.00339143  0.12794348  0.73700618  1
  O  O217  1  0.99901000  0.63060678  0.24457929  1
  O  O218  1  0.99519568  0.63193325  0.74628913  1
  O  O219  1  0.37171292  0.25489886  0.00813444  1
  O  O220  1  0.36277169  0.23612024  0.49934541  1
  O  O221  1  0.38546119  0.77000744  0.00181706  1
  O  O222  1  0.36390613  0.75897423  0.51072522  1
  O  O223  1  0.87522764  0.25507520  0.01452250  1
  O  O224  1  0.86495721  0.25305431  0.49657364  1
  O  O225  1  0.86084548  0.75544026  0.00343507  1
  O  O226  1  0.86404724  0.76218219  0.50180315  1
  O  O227  1  0.13533669  0.24260687  0.49311175  1
  O  O228  1  0.13119388  0.24298890  0.98711757  1
  O  O229  1  0.13632024  0.75403475  0.50265912  1
  O  O230  1  0.12346766  0.73975162  1.00650304  1
  O  O231  1  0.64003358  0.24487441  0.48860750  1
  O  O232  1  0.62244938  0.24655960  0.98748912  1
  O  O233  1  0.63705089  0.75797121  0.49096951  1
  O  O234  1  0.63510147  0.74962401  0.99819660  1
  O  O235  1  0.49537838  0.25356976  0.13445867  1
  O  O236  1  0.49250023  0.23561076  0.61221083  1
  O  O237  1  0.49936252  0.73879923  0.12537866  1
  O  O238  1  0.47949857  0.74939413  0.62173596  1
  O  O239  1  0.98910774  0.24655810  0.12046462  1
  O  O240  1  1.00836183  0.23457480  0.63213581  1
  O  O241  1  0.99668155  0.74156063  0.13541623  1
  O  O242  1  0.99859513  0.74246942  0.63045899  1
  O  O243  1  0.00972981  0.26564448  0.38328818  1
  O  O244  1  0.00793412  0.25379277  0.87035626  1
  O  O245  1  -0.00029241  0.75256617  0.37225412  1
  O  O246  1  -0.00750956  0.76236911  0.86769258  1
  O  O247  1  0.50688323  0.25163974  0.35679781  1
  O  O248  1  0.51000360  0.26393920  0.87846694  1
  O  O249  1  0.51406695  0.73965451  0.38216202  1
  O  O250  1  0.51321904  0.75326461  0.87356202  1
  O  O251  1  0.24659731  0.12884612  0.48525765  1
  O  O252  1  0.24428284  0.13309394  0.99373452  1
  O  O253  1  0.25471500  0.63520308  0.49096563  1
  O  O254  1  0.23524440  0.62196048  0.99468427  1
  O  O255  1  0.74460620  0.13493512  0.49551869  1
  O  O256  1  0.74762450  0.11815157  0.98942995  1
  O  O257  1  0.75816725  0.63676075  0.49300456  1
  O  O258  1  0.74613113  0.63370006  0.99645572  1
  O  O259  1  0.25718748  0.37112677  0.00338618  1
  O  O260  1  0.24413600  0.36199979  0.50676277  1
  O  O261  1  0.26844039  0.88473978  -0.00482528  1
  O  O262  1  0.25763510  0.86554390  0.49393995  1
  O  O263  1  0.75036032  0.38575304  0.01278086  1
  O  O264  1  0.76304053  0.35631491  0.49363218  1
  O  O265  1  0.75548298  0.86995357  0.00949332  1
  O  O266  1  0.75707267  0.87316533  0.51041326  1
  O  O267  1  0.13007471  0.49062106  0.23917757  1
  O  O268  1  0.13146416  0.49516638  0.73834986  1
  O  O269  1  0.11802116  0.99194701  0.24436533  1
  O  O270  1  0.12621967  1.00375070  0.73589575  1
  O  O271  1  0.62807696  0.49585225  0.24418809  1
  O  O272  1  0.63639856  0.52334496  0.74253187  1
  O  O273  1  0.63665317  1.00144730  0.24500444  1
  O  O274  1  0.63539469  1.00263015  0.74156501  1
  O  O275  1  0.37127840  0.00361968  0.25404131  1
  O  O276  1  0.38330445  0.01136270  0.76144499  1
  O  O277  1  0.36940879  0.51103405  0.25151617  1
  O  O278  1  0.34673696  0.45125166  0.75319499  1
  O  O279  1  0.86329701  -0.00031733  0.24675371  1
  O  O280  1  0.86501762  -0.00545583  0.76121042  1
  O  O281  1  0.86548818  0.49961129  0.25821305  1
  O  O282  1  0.87784838  0.50960121  0.76118404  1
  O  O283  1  0.11974165  0.37271103  0.36549972  1
  O  O284  1  0.12188661  0.36570247  0.87275775  1
  O  O285  1  0.11204601  0.86919214  0.37131321  1
  O  O286  1  0.10169274  0.88490062  0.89721600  1
  O  O287  1  0.61687137  0.36387650  0.36370228  1
  O  O288  1  0.61698532  0.36938156  0.87976153  1
  O  O289  1  0.62902338  0.85885643  0.37486952  1
  O  O290  1  0.62866998  0.86711847  0.87522083  1
  O  O291  1  0.36372850  0.12560166  0.13761394  1
  O  O292  1  0.38085699  0.13176042  0.62813271  1
  O  O293  1  0.38135472  0.62695666  0.13238857  1
  O  O294  1  0.36801766  0.63424678  0.63299921  1
  O  O295  1  0.88296464  0.13512636  0.12380112  1
  O  O296  1  0.89085839  0.12020353  0.62121815  1
  O  O297  1  0.88732400  0.62452021  0.12704850  1
  O  O298  1  0.88905854  0.62478186  0.63481543  1
  O  O299  1  0.25561439  0.25652843  0.11889535  1
  O  O300  1  0.25781108  0.24786045  0.60985701  1
  O  O301  1  0.25167762  0.75811991  0.13035028  1
  O  O302  1  0.25775254  0.74719425  0.61894803  1
  O  O303  1  0.75979212  0.26056558  0.12581629  1
  O  O304  1  0.75051503  0.24148684  0.61135489  1
  O  O305  1  0.74932021  0.75853638  0.12186608  1
  O  O306  1  0.75383365  0.75966545  0.61668725  1
  O  O307  1  0.24569013  0.24347568  0.37658130  1
  O  O308  1  0.24526737  0.24204666  0.87840055  1
  O  O309  1  0.24611003  0.73947333  0.38404529  1
  O  O310  1  0.25567442  0.73027499  0.88581798  1
  O  O311  1  0.74110988  0.25233024  0.36791528  1
  O  O312  1  0.74738979  0.23707037  0.87963422  1
  O  O313  1  0.74283627  0.74250286  0.38201579  1
  O  O314  1  0.74711802  0.74703532  0.88520536  1
  O  O315  1  0.01376783  0.13064486  0.00827985  1
  O  O316  1  0.00661510  0.11789273  0.51210820  1
  O  O317  1  0.00896555  0.62520009  0.00974568  1
  O  O318  1  -0.00771987  0.61541816  0.50939986  1
  O  O319  1  0.50074793  0.11430676  -0.00102745  1
  O  O320  1  0.50476471  0.11489855  0.50120226  1
  O  O321  1  0.50320927  0.62120352  0.00761414  1
  O  O322  1  0.47742976  0.62345146  0.52295215  1
  O  O323  1  0.48404055  0.34781923  0.47508298  1
  O  O324  1  0.49410638  0.38697455  0.99751569  1
  O  O325  1  0.49233470  0.88753325  0.50374427  1
  O  O326  1  0.49241919  0.88999684  0.99882494  1
  O  O327  1  0.99428304  0.38076786  0.49294141  1
  O  O328  1  1.00186689  0.37709298  0.98590690  1
  O  O329  1  0.99231555  0.87830080  0.49878419  1
  O  O330  1  0.98076560  0.86647047  0.99813615  1
  O  O331  1  0.49064274  0.48863450  0.37030601  1
  O  O332  1  0.50668391  0.49761478  0.88757442  1
  O  O333  1  0.48925554  1.00453902  0.38135020  1
  O  O334  1  0.49609908  1.00374212  0.88176498  1
  O  O335  1  0.99652021  0.49320957  0.38290320  1
  O  O336  1  0.99685787  0.49089586  0.87254178  1
  O  O337  1  1.01189811  0.98450540  0.39597392  1
  O  O338  1  0.98517432  0.99693221  0.87038658  1
  O  O339  1  0.00944207  0.00764437  0.12233416  1
  O  O340  1  0.00612972  0.00866233  0.61967035  1
  O  O341  1  0.00666349  0.50684170  0.12495608  1
  O  O342  1  0.00716992  0.50517643  0.61977524  1
  O  O343  1  0.51213770  0.00036410  0.11772811  1
  O  O344  1  0.50372858  0.00924747  0.61526354  1
  O  O345  1  0.50544252  0.51173544  0.11868933  1
  O  O346  1  0.50539855  0.51224402  0.63083483  1
  O  O347  1  0.24298645  0.38053418  0.24262480  1
  O  O348  1  0.23535908  0.34629522  0.72348765  1
  O  O349  1  0.23098395  0.87552648  0.25698471  1
  O  O350  1  0.23491366  0.88567418  0.79599436  1
  O  O351  1  0.74186930  0.38296401  0.23973847  1
  O  O352  1  0.76318805  0.36837844  0.75089491  1
  O  O353  1  0.74907985  0.88256553  0.24368018  1
  O  O354  1  0.75039503  0.87916850  0.73902889  1
  O  O355  1  0.25332256  0.12330011  0.25923328  1
  O  O356  1  0.26804703  0.13418185  0.75561242  1
  O  O357  1  0.25529690  0.61922902  0.25723391  1
  O  O358  1  0.25068660  0.62751672  0.76754542  1
  O  O359  1  0.75870334  0.11229389  0.25215709  1
  O  O360  1  0.75337512  0.11713584  0.76456336  1
  O  O361  1  0.75035107  0.61778898  0.25868253  1
  O  O362  1  0.77069673  0.63913374  0.76060683  1
  O  O363  1  0.36668292  0.11633023  0.36248401  1
  O  O364  1  0.37465809  0.12792195  0.86509080  1
  O  O365  1  0.36750912  0.61625518  0.36895631  1
  O  O366  1  0.36997726  0.61965768  0.88360270  1
  O  O367  1  0.92882448  0.11201706  0.35947717  1
  O  O368  1  0.86449262  0.11875721  0.88345969  1
  O  O369  1  0.86241820  0.61688300  0.37397594  1
  O  O370  1  0.87561037  0.61934669  0.87075819  1
  O  O371  1  0.12740497  0.37977306  0.12887174  1
  O  O372  1  0.12781993  0.38541924  0.62087220  1
  O  O373  1  0.11786878  0.88321444  0.13387140  1
  O  O374  1  0.12375190  0.89374387  0.62723486  1
  O  O375  1  0.63090372  0.38016366  0.12821549  1
  O  O376  1  0.60543410  0.35248516  0.64956010  1
  O  O377  1  0.63582459  0.88518981  0.12737008  1
  O  O378  1  0.63409089  0.88310183  0.62339373  1
  O  O379  1  0.13023811  0.26294472  0.25304862  1
  O  O380  1  0.11757298  0.24238624  0.76306990  1
  O  O381  1  0.11004306  0.75634972  0.25422932  1
  O  O382  1  0.11217140  0.75347757  0.74346423  1
  O  O383  1  0.62069649  0.25095880  0.25044450  1
  O  O384  1  0.62321250  0.24076293  0.77085310  1
  O  O385  1  0.62262938  0.75015442  0.26780501  1
  O  O386  1  0.63265635  0.74978116  0.76297462  1
  O  O387  1  0.38219162  0.24044162  0.24366445  1
  O  O388  1  0.38525457  0.24785387  0.73296253  1
  O  O389  1  0.37595682  0.73665136  0.25341159  1
  O  O390  1  0.37114845  0.76153656  0.73318622  1
  O  O391  1  0.87338103  0.24987763  0.23212576  1
  O  O392  1  0.89145211  0.24322201  0.75648895  1
  O  O393  1  0.88548459  0.74844007  0.25058553  1
  O  O394  1  0.88832542  0.74523168  0.74822885  1
  O  O395  1  0.36766205  0.49441041  0.48649324  1
  O  O396  1  0.38472424  0.49172374  1.00896613  1
  O  O397  1  0.38067464  0.99463297  0.49070683  1
  O  O398  1  0.38407164  0.99794071  0.99286919  1
  O  O399  1  0.88298154  0.49030935  0.49547652  1
  O  O400  1  0.88011748  0.50063481  0.98668388  1
  O  O401  1  0.88284401  0.98853150  0.50434847  1
  O  O402  1  0.86781524  0.99037897  0.99132306  1
  O  O403  1  0.13045132  0.01119643  0.00587903  1
  O  O404  1  0.11900412  0.00513070  0.50938880  1
  O  O405  1  0.12272564  0.50255185  0.01318074  1
  O  O406  1  0.11172528  0.49689241  0.50470807  1
  O  O407  1  0.61799412  0.00234999  0.00972261  1
  O  O408  1  0.61961566  0.00590944  0.49951461  1
  O  O409  1  0.61734586  0.50998611  0.00613540  1
  O  O410  1  0.61258186  0.44639035  0.51661619  1
  O  O411  1  0.37094947  0.36910996  0.11715427  1
  O  O412  1  0.36853620  0.36042945  0.61592163  1
  O  O413  1  0.37077837  0.87994502  0.10983224  1
  O  O414  1  0.37256073  0.87952842  0.61472878  1
  O  O415  1  0.86859970  0.36905507  0.12255264  1
  O  O416  1  0.88329664  0.37724126  0.61286298  1
  O  O417  1  0.86554574  0.87487325  0.11924153  1
  O  O418  1  0.86885690  0.87543577  0.61934548  1
  O  O419  1  0.13013767  0.12944044  0.37902939  1
  O  O420  1  0.13438837  0.12709942  0.87837533  1
  O  O421  1  0.13749331  0.62177336  0.37068733  1
  O  O422  1  0.11555797  0.62893416  0.89152896  1
  O  O423  1  0.61804806  0.13354991  0.38451818  1
  O  O424  1  0.63880072  0.12968650  0.88074795  1
  O  O425  1  0.63545700  0.63131861  0.37650436  1
  O  O426  1  0.63074824  0.63479939  0.88375484  1
