# generated using pymatgen
data_V85Zn86O256
_symmetry_space_group_name_H-M   'P 1'
_cell_length_a   16.92074114
_cell_length_b   16.92084280
_cell_length_c   16.92335342
_cell_angle_alpha   89.97552772
_cell_angle_beta   89.97535455
_cell_angle_gamma   90.00960784
_symmetry_Int_Tables_number   1
_chemical_formula_structural   V85Zn86O256
_chemical_formula_sum   'V85 Zn86 O256'
_cell_volume   4845.37852945
_cell_formula_units_Z   1
loop_
 _symmetry_equiv_pos_site_id
 _symmetry_equiv_pos_as_xyz
  1  'x, y, z'
loop_
 _atom_site_type_symbol
 _atom_site_label
 _atom_site_symmetry_multiplicity
 _atom_site_fract_x
 _atom_site_fract_y
 _atom_site_fract_z
 _atom_site_occupancy
  V  V0  1  0.62811198  0.62905360  0.00038862  1
  V  V1  1  0.49893922  0.00205523  -0.00492448  1
  V  V2  1  -0.00391751  0.37512409  0.88908908  1
  V  V3  1  0.74389913  0.49306501  0.75326195  1
  V  V4  1  0.49829258  0.12221222  0.62579531  1
  V  V5  1  0.24495386  0.00191672  0.24736157  1
  V  V6  1  0.12323331  0.12588167  0.50142315  1
  V  V7  1  0.12461762  0.50377621  0.62621787  1
  V  V8  1  0.62751587  0.12824187  -0.00126239  1
  V  V9  1  0.50356364  0.25695810  0.75089996  1
  V  V10  1  0.63266121  0.50088156  0.12960620  1
  V  V11  1  0.61844506  0.50622369  0.62719055  1
  V  V12  1  0.24972872  0.62064791  0.36688154  1
  V  V13  1  0.87090531  0.01269466  0.37594814  1
  V  V14  1  0.74612291  0.75522294  -0.00128480  1
  V  V15  1  0.37346026  0.12141335  0.76263343  1
  V  V16  1  -0.00694659  0.75124409  0.74948909  1
  V  V17  1  0.12011767  0.87766531  0.24732353  1
  V  V18  1  0.38379452  0.74996616  0.61914968  1
  V  V19  1  0.74789667  0.62994222  0.87610463  1
  V  V20  1  0.62810992  0.37741526  0.24914610  1
  V  V21  1  0.62504268  0.24848139  0.37283970  1
  V  V22  1  0.87622739  0.49453580  0.88605123  1
  V  V23  1  0.75081153  0.60811851  0.37968142  1
  V  V24  1  0.37648103  0.87772724  -0.00261780  1
  V  V25  1  0.62411094  0.12274449  0.49375557  1
  V  V26  1  0.62434493  -0.00354153  0.13452840  1
  V  V27  1  0.63154241  0.87847196  0.75578540  1
  V  V28  1  0.37011078  0.24804672  0.62220073  1
  V  V29  1  0.76305317  0.37748919  0.12544151  1
  V  V30  1  -0.00434257  0.87358802  0.37581401  1
  V  V31  1  -0.00298050  0.24451567  0.25186188  1
  V  V32  1  0.87101678  0.86140465  0.50137620  1
  V  V33  1  0.24171150  0.87658321  0.12465732  1
  V  V34  1  0.75361857  0.01630043  0.25413409  1
  V  V35  1  0.37219295  0.50781360  0.87636038  1
  V  V36  1  0.50341103  0.87249303  0.87570702  1
  V  V37  1  0.13016819  0.24957278  0.87506517  1
  V  V38  1  0.87218838  0.62570093  0.74742459  1
  V  V39  1  0.63608644  0.76076414  0.37370916  1
  V  V40  1  0.87141646  0.61221720  0.25283474  1
  V  V41  1  0.24605266  0.24882715  -0.00107026  1
  V  V42  1  -0.00323097  0.63196496  0.62281667  1
  V  V43  1  0.50095621  0.12657890  0.12535521  1
  V  V44  1  -0.00288081  0.25131710  0.75081546  1
  V  V45  1  0.87697392  0.23443528  0.12543419  1
  V  V46  1  0.49804459  0.51186903  0.49984696  1
  V  V47  1  0.87606727  0.87783736  0.00396745  1
  V  V48  1  0.73692523  0.37043864  0.62903523  1
  V  V49  1  0.74931606  0.24615692  0.49570419  1
  V  V50  1  0.50627733  0.74796209  0.75111706  1
  V  V51  1  0.49440551  -0.01190143  0.50016828  1
  V  V52  1  0.87316068  0.24950281  0.62541154  1
  V  V53  1  0.37625044  0.12404912  0.25463482  1
  V  V54  1  0.25583095  0.87515359  0.61999589  1
  V  V55  1  0.37468217  0.75225413  0.12624535  1
  V  V56  1  0.37449029  0.25059004  0.12439541  1
  V  V57  1  0.12328395  0.87393720  0.74553439  1
  V  V58  1  0.00452902  0.61383378  0.12095187  1
  V  V59  1  0.12806312  0.38611497  0.24870532  1
  V  V60  1  0.24761115  0.37422339  0.61999966  1
  V  V61  1  0.63749199  -0.00057105  0.62669123  1
  V  V62  1  0.74956206  0.12289344  0.86809042  1
  V  V63  1  0.50307533  0.62656631  0.12614303  1
  V  V64  1  0.75726493  0.25484767  -0.00095177  1
  V  V65  1  0.75350705  0.85647004  0.62408760  1
  V  V66  1  0.12337591  0.37537768  0.74979113  1
  V  V67  1  0.24824177  0.50908648  0.75355984  1
  V  V68  1  0.25097784  0.12730237  0.38210729  1
  V  V69  1  0.12697264  0.25299665  0.37834421  1
  V  V70  1  0.12394649  0.62703581  0.49636214  1
  V  V71  1  0.87221592  0.00091806  0.86909250  1
  V  V72  1  0.37497576  0.37607859  -0.00253355  1
  V  V73  1  0.37295343  0.61699393  0.24630920  1
  V  V74  1  -0.00174621  0.87389688  0.87683394  1
  V  V75  1  0.12636941  0.61117891  -0.00387882  1
  V  V76  1  0.25271503  0.00327327  0.74680539  1
  V  V77  1  0.25552285  0.75335981  0.49551938  1
  V  V78  1  0.24783782  0.38600507  0.12806059  1
  V  V79  1  0.37431078  0.37503174  0.49844414  1
  V  V80  1  0.50211079  0.50127354  -0.00070369  1
  V  V81  1  0.02232305  0.11847650  0.12274829  1
  V  V82  1  0.19195449  0.06870354  0.93032807  1
  V  V83  1  0.37719474  0.62753644  0.74671555  1
  V  V84  1  0.75051715  0.87529026  0.13855815  1
  Zn  Zn85  1  0.49925634  0.87289924  0.36260961  1
  Zn  Zn86  1  0.50618357  0.38146368  0.86959624  1
  Zn  Zn87  1  0.62841286  0.63125696  0.50115724  1
  Zn  Zn88  1  -0.01144915  0.38264948  0.37265498  1
  Zn  Zn89  1  0.87076684  0.38162284  0.49076243  1
  Zn  Zn90  1  0.37002934  -0.01203158  0.38213583  1
  Zn  Zn91  1  0.87705132  0.74838347  0.12872861  1
  Zn  Zn92  1  -0.00325694  0.74939198  0.24577238  1
  Zn  Zn93  1  0.24938001  0.74079461  -0.00558545  1
  Zn  Zn94  1  0.49959398  0.37761755  0.37364663  1
  Zn  Zn95  1  0.12556877  0.75233368  0.37101032  1
  Zn  Zn96  1  0.01297813  0.00274751  0.00147043  1
  Zn  Zn97  1  -0.01073454  0.50193745  0.49157556  1
  Zn  Zn98  1  0.37367330  0.49799318  0.37056495  1
  Zn  Zn99  1  0.87181606  0.12112807  0.74722631  1
  Zn  Zn100  1  0.51148391  0.75915987  0.24667663  1
  Zn  Zn101  1  -0.00212486  0.12358260  0.62440229  1
  Zn  Zn102  1  0.12181418  -0.00152703  0.62091306  1
  Zn  Zn103  1  -0.00344444  0.00016046  0.50288641  1
  Zn  Zn104  1  0.63046369  0.25927705  0.86874383  1
  Zn  Zn105  1  0.12845221  0.73810374  0.87312962  1
  Zn  Zn106  1  0.49911451  0.25161288  0.25103298  1
  Zn  Zn107  1  0.18924370  0.19389855  0.19193092  1
  Zn  Zn108  1  0.18850953  0.18750319  0.68808783  1
  Zn  Zn109  1  0.18425572  0.68882727  0.18327025  1
  Zn  Zn110  1  0.18742029  0.69131282  0.68657189  1
  Zn  Zn111  1  0.68762607  0.19018729  0.18646921  1
  Zn  Zn112  1  0.68440650  0.18356725  0.68526969  1
  Zn  Zn113  1  0.69501722  0.68781899  0.19328278  1
  Zn  Zn114  1  0.68309018  0.68499077  0.69077171  1
  Zn  Zn115  1  0.30978842  0.31130789  0.31340285  1
  Zn  Zn116  1  0.31457594  0.31718732  0.80960843  1
  Zn  Zn117  1  0.31749549  0.81201743  0.31130620  1
  Zn  Zn118  1  0.31826211  0.81532281  0.80949462  1
  Zn  Zn119  1  0.81076400  0.31108866  0.31002448  1
  Zn  Zn120  1  0.81306876  0.31372875  0.81222412  1
  Zn  Zn121  1  0.81433845  0.80718299  0.31372128  1
  Zn  Zn122  1  0.81150969  0.81286954  0.81211569  1
  Zn  Zn123  1  0.18173355  0.44229323  0.43589930  1
  Zn  Zn124  1  0.18698323  0.43683075  0.93736135  1
  Zn  Zn125  1  0.18572178  0.93907556  0.43506819  1
  Zn  Zn126  1  0.20489845  0.89472158  0.91655646  1
  Zn  Zn127  1  0.68487553  0.43454560  0.44148765  1
  Zn  Zn128  1  0.68693289  0.43681529  0.93938355  1
  Zn  Zn129  1  0.69164036  0.93686577  0.44000337  1
  Zn  Zn130  1  0.68723472  0.94015408  0.94037653  1
  Zn  Zn131  1  0.31587982  0.05884473  0.06826673  1
  Zn  Zn132  1  0.31227913  0.06402680  0.56425489  1
  Zn  Zn133  1  0.30993144  0.56465873  0.06152768  1
  Zn  Zn134  1  0.31226878  0.56561487  0.56184110  1
  Zn  Zn135  1  0.81200026  0.06045656  0.05926152  1
  Zn  Zn136  1  0.81368179  0.06313574  0.55694921  1
  Zn  Zn137  1  0.81587885  0.56386159  0.06606846  1
  Zn  Zn138  1  0.80720234  0.56596666  0.56462911  1
  Zn  Zn139  1  0.44124536  0.43712164  0.18483470  1
  Zn  Zn140  1  0.43540249  0.43958835  0.68407741  1
  Zn  Zn141  1  0.43585298  0.93756249  0.19046000  1
  Zn  Zn142  1  0.43888445  0.93724066  0.68607030  1
  Zn  Zn143  1  0.94180626  0.43443911  0.18889696  1
  Zn  Zn144  1  0.91636810  0.45471139  0.65526779  1
  Zn  Zn145  1  0.93694225  0.94573652  0.18906700  1
  Zn  Zn146  1  0.93371790  0.93853643  0.68425063  1
  Zn  Zn147  1  0.05962350  0.06193250  0.31303071  1
  Zn  Zn148  1  0.05600128  0.05742402  0.80490563  1
  Zn  Zn149  1  0.05898259  0.56433518  0.30971100  1
  Zn  Zn150  1  0.05731493  0.55989364  0.81457248  1
  Zn  Zn151  1  0.56120605  0.05913778  0.31419544  1
  Zn  Zn152  1  0.56309759  0.06272998  0.81194886  1
  Zn  Zn153  1  0.56257459  0.56597016  0.31361433  1
  Zn  Zn154  1  0.56361763  0.56490203  0.81374017  1
  Zn  Zn155  1  0.43948055  0.18784036  0.43932316  1
  Zn  Zn156  1  0.43656166  0.18864911  0.93591018  1
  Zn  Zn157  1  0.44079352  0.69387692  0.42967169  1
  Zn  Zn158  1  0.43766182  0.68928547  0.93633640  1
  Zn  Zn159  1  0.93951503  0.19412716  0.43910401  1
  Zn  Zn160  1  0.94042484  0.18496815  0.94166817  1
  Zn  Zn161  1  0.93419517  0.68691455  0.43153395  1
  Zn  Zn162  1  0.93733419  0.68639276  0.94055289  1
  Zn  Zn163  1  0.06491164  0.30933578  0.06648197  1
  Zn  Zn164  1  0.05858287  0.31383711  0.55928801  1
  Zn  Zn165  1  0.06244954  0.80233925  0.06000340  1
  Zn  Zn166  1  0.06275863  0.81198236  0.55974636  1
  Zn  Zn167  1  0.56447055  0.31495102  0.06027197  1
  Zn  Zn168  1  0.55794402  0.31405434  0.56229556  1
  Zn  Zn169  1  0.56505177  0.81434235  0.06677589  1
  Zn  Zn170  1  0.57017022  0.80858515  0.56131177  1
  O  O171  1  0.12106126  0.12691146  0.12469853  1
  O  O172  1  0.12791540  0.12878343  0.60996382  1
  O  O173  1  0.11291853  0.62610002  0.11616861  1
  O  O174  1  0.11886960  0.62520571  0.61752368  1
  O  O175  1  0.62001015  0.12004304  0.11824657  1
  O  O176  1  0.61852761  0.11648021  0.61695268  1
  O  O177  1  0.62555129  0.61906642  0.12216528  1
  O  O178  1  0.63134774  0.61164113  0.61997039  1
  O  O179  1  0.37325578  0.37578580  0.38436805  1
  O  O180  1  0.37902761  0.38768761  0.87936556  1
  O  O181  1  0.38306960  0.87604136  0.37277128  1
  O  O182  1  0.38550130  0.87478417  0.88961956  1
  O  O183  1  0.87389367  0.36935656  0.37785145  1
  O  O184  1  0.88333657  0.38181488  0.87260365  1
  O  O185  1  0.87876054  0.87904316  0.38308247  1
  O  O186  1  0.88111512  0.88069236  0.88055591  1
  O  O187  1  0.25193573  0.00744369  0.36498677  1
  O  O188  1  0.24313069  0.00109611  0.86864084  1
  O  O189  1  0.25387583  0.51686553  0.38127317  1
  O  O190  1  0.25907755  0.49397647  0.86407623  1
  O  O191  1  0.76080504  -0.00143107  0.36901584  1
  O  O192  1  0.75788463  0.01076429  0.88265635  1
  O  O193  1  0.74664887  0.50876962  0.37750501  1
  O  O194  1  0.75557807  0.50531089  0.86921737  1
  O  O195  1  0.25470552  0.48483645  0.12181225  1
  O  O196  1  0.24461551  0.49656131  0.63343038  1
  O  O197  1  0.25350760  0.99316637  0.13951196  1
  O  O198  1  0.24865872  0.99107258  0.62903204  1
  O  O199  1  0.74435800  0.48965454  0.11910935  1
  O  O200  1  0.73966599  0.49009907  0.63355355  1
  O  O201  1  0.74488678  0.99610297  0.13225509  1
  O  O202  1  0.73945858  0.99890193  0.62239962  1
  O  O203  1  0.01413895  0.36466208  0.24813990  1
  O  O204  1  0.00743921  0.36041418  0.75662765  1
  O  O205  1  0.00535102  0.87699577  0.25519214  1
  O  O206  1  -0.00107470  0.86730770  0.75361990  1
  O  O207  1  0.51280585  0.37224355  0.24860844  1
  O  O208  1  0.49140064  0.35974692  0.74788127  1
  O  O209  1  0.50639637  0.87467616  0.24555904  1
  O  O210  1  0.50628998  0.87131180  0.75855287  1
  O  O211  1  0.49186998  0.12523399  0.24581075  1
  O  O212  1  0.49169701  0.13005536  0.74480351  1
  O  O213  1  0.49207057  0.62796155  0.24050660  1
  O  O214  1  0.49290319  0.63749014  0.75591800  1
  O  O215  1  1.00695778  0.13153127  0.23656705  1
  O  O216  1  0.99838609  0.13800277  0.74745790  1
  O  O217  1  0.99392746  0.62736153  0.23990836  1
  O  O218  1  0.99196791  0.63240131  0.74647332  1
  O  O219  1  0.36458161  0.25414557  0.00087694  1
  O  O220  1  0.37954852  0.25751122  0.51362636  1
  O  O221  1  0.37277552  0.75657664  0.00875053  1
  O  O222  1  0.36899042  0.74208390  0.50928933  1
  O  O223  1  0.86687110  0.24609986  0.00911702  1
  O  O224  1  0.86392018  0.24876028  0.50841798  1
  O  O225  1  0.86624438  0.76274085  0.00068515  1
  O  O226  1  0.87811742  0.76186905  0.49908234  1
  O  O227  1  0.12157194  0.24490175  0.48614413  1
  O  O228  1  0.13829296  0.25032349  0.99320521  1
  O  O229  1  0.13352053  0.74037383  0.49827903  1
  O  O230  1  0.12850117  0.73804521  0.99354866  1
  O  O231  1  0.62696108  0.24330802  0.49491069  1
  O  O232  1  0.63207191  0.23819901  1.00217808  1
  O  O233  1  0.62101984  0.74498326  0.48353470  1
  O  O234  1  0.63844634  0.74657671  1.00432376  1
  O  O235  1  0.49352830  0.24340361  0.12377682  1
  O  O236  1  0.49241575  0.24464667  0.63413967  1
  O  O237  1  0.49377126  0.74360810  0.12336889  1
  O  O238  1  0.49068076  0.75899153  0.63363581  1
  O  O239  1  0.99627736  0.23857109  0.12999905  1
  O  O240  1  0.98951070  0.25011446  0.63281702  1
  O  O241  1  0.99512045  0.73865004  0.12639864  1
  O  O242  1  1.00394545  0.74003235  0.63319245  1
  O  O243  1  0.00806789  0.25090653  0.36581303  1
  O  O244  1  0.01041478  0.25176678  0.87143581  1
  O  O245  1  0.00154724  0.76259977  0.37134086  1
  O  O246  1  -0.00214667  0.75801517  0.86817128  1
  O  O247  1  0.51147803  0.25399935  0.37528591  1
  O  O248  1  0.49785690  0.25038216  0.85944182  1
  O  O249  1  0.51601972  0.75068558  0.36814156  1
  O  O250  1  0.49799622  0.76367385  0.86800331  1
  O  O251  1  0.24467978  0.11949541  0.48828853  1
  O  O252  1  0.25304676  0.12597946  0.99441429  1
  O  O253  1  0.24395550  0.63585806  0.49493142  1
  O  O254  1  0.23304894  0.62438517  1.00368542  1
  O  O255  1  0.73839909  0.13744942  0.50586080  1
  O  O256  1  0.74347817  0.13271304  0.99390231  1
  O  O257  1  0.75203124  0.62259490  0.48470869  1
  O  O258  1  0.75005405  0.63525044  0.99523555  1
  O  O259  1  0.25449389  0.36631161  0.00566342  1
  O  O260  1  0.25802930  0.38422532  0.51203146  1
  O  O261  1  0.26324147  0.88532945  0.01321989  1
  O  O262  1  0.24506288  0.86277057  0.50486750  1
  O  O263  1  0.74561841  0.36147777  0.01018601  1
  O  O264  1  0.74669101  0.36180521  0.51024577  1
  O  O265  1  0.75643135  0.87112233  0.00648176  1
  O  O266  1  0.75511982  0.87556213  0.51570546  1
  O  O267  1  0.12609295  0.48441265  0.25034715  1
  O  O268  1  0.13261170  0.49774750  0.74725532  1
  O  O269  1  0.13217896  0.98917883  0.25429400  1
  O  O270  1  0.13266516  0.99308177  0.74436255  1
  O  O271  1  0.62086603  0.49378905  0.23710820  1
  O  O272  1  0.63506145  0.50647898  0.74416641  1
  O  O273  1  0.63286280  1.00647572  0.24005698  1
  O  O274  1  0.61843422  0.98970213  0.73943083  1
  O  O275  1  0.36770087  0.01317369  0.25035902  1
  O  O276  1  0.36710556  0.00821569  0.74473505  1
  O  O277  1  0.37822213  0.51257390  0.24700644  1
  O  O278  1  0.37050728  0.50932099  0.75389007  1
  O  O279  1  0.86773343  -0.00150317  0.26599024  1
  O  O280  1  0.87705405  0.00165883  0.76425799  1
  O  O281  1  0.88051884  0.51304052  0.24771089  1
  O  O282  1  0.86033713  0.50712352  0.75125220  1
  O  O283  1  0.13277300  0.36707423  0.36360206  1
  O  O284  1  0.11926594  0.36736370  0.86896611  1
  O  O285  1  0.11440502  0.87565600  0.36713060  1
  O  O286  1  0.10526987  0.87889525  0.86363453  1
  O  O287  1  0.62452292  0.36846335  0.36585351  1
  O  O288  1  0.61856031  0.37132715  0.88140181  1
  O  O289  1  0.62779720  0.86443524  0.37802636  1
  O  O290  1  0.62138664  0.87996144  0.86472828  1
  O  O291  1  0.38074025  0.13078132  0.13302051  1
  O  O292  1  0.37849718  0.13322555  0.63094600  1
  O  O293  1  0.37974724  0.63242939  0.12685471  1
  O  O294  1  0.37205112  0.63446490  0.63817553  1
  O  O295  1  0.87681767  0.13241308  0.12378400  1
  O  O296  1  0.87139635  0.13625341  0.62723849  1
  O  O297  1  0.88197629  0.62579437  0.13459376  1
  O  O298  1  0.88049484  0.62542164  0.63941355  1
  O  O299  1  0.25638906  0.25330129  0.11561906  1
  O  O300  1  0.25812115  0.26191577  0.63114728  1
  O  O301  1  0.25745577  0.76035763  0.12105694  1
  O  O302  1  0.26045227  0.75584006  0.61850561  1
  O  O303  1  0.75906210  0.25396077  0.11910544  1
  O  O304  1  0.74995807  0.25392073  0.62085404  1
  O  O305  1  0.75311376  0.75997269  0.11891793  1
  O  O306  1  0.74710022  0.75796487  0.62633217  1
  O  O307  1  0.24104328  0.23752509  0.37019504  1
  O  O308  1  0.23863119  0.25636267  0.87834140  1
  O  O309  1  0.25015259  0.74241387  0.38191429  1
  O  O310  1  0.23934589  0.78279437  0.88334386  1
  O  O311  1  0.73548787  0.25053875  0.38288287  1
  O  O312  1  0.75096072  0.24366035  0.88330321  1
  O  O313  1  0.74038248  0.74108071  0.37338002  1
  O  O314  1  0.75523176  0.74145937  0.88412775  1
  O  O315  1  0.00249161  0.12319897  0.01684519  1
  O  O316  1  0.00944211  0.12469189  0.50176079  1
  O  O317  1  0.00657639  0.62648367  0.01160449  1
  O  O318  1  0.00523204  0.62756824  0.50677903  1
  O  O319  1  0.50640969  0.11958073  0.00167069  1
  O  O320  1  0.50705121  0.11834934  0.50758703  1
  O  O321  1  0.50755381  0.62233765  0.00459685  1
  O  O322  1  0.49816986  0.61427190  0.49674523  1
  O  O323  1  0.48602977  0.38246936  0.50055557  1
  O  O324  1  0.49071808  0.38382652  1.00216074  1
  O  O325  1  0.50560066  0.88800014  0.50364061  1
  O  O326  1  0.49861812  0.88121311  0.99503371  1
  O  O327  1  0.99437660  0.37983664  0.49713927  1
  O  O328  1  1.00505594  0.36695610  0.98823965  1
  O  O329  1  0.99255885  0.87685651  0.49323994  1
  O  O330  1  0.99424757  0.87766521  0.99362653  1
  O  O331  1  0.49612181  0.49750881  0.38386193  1
  O  O332  1  0.49172879  0.50249398  0.88094995  1
  O  O333  1  0.50126622  0.99899198  0.39133394  1
  O  O334  1  0.50784898  0.99070853  0.88714117  1
  O  O335  1  1.01404592  0.49468816  0.38162664  1
  O  O336  1  0.98782935  0.48622070  0.86747205  1
  O  O337  1  0.98767362  0.99072408  0.37511835  1
  O  O338  1  0.99107389  0.99412223  0.87994927  1
  O  O339  1  0.00236269  0.01393090  0.12289177  1
  O  O340  1  0.00252820  0.00467415  0.62303977  1
  O  O341  1  -0.00370033  0.51423480  0.12513591  1
  O  O342  1  0.01161479  0.51846941  0.63412120  1
  O  O343  1  0.50852709  0.00606163  0.11639855  1
  O  O344  1  0.50841336  0.00223973  0.61603595  1
  O  O345  1  0.50872200  0.50729336  0.11738212  1
  O  O346  1  0.50877091  0.49612753  0.61834966  1
  O  O347  1  0.23882116  0.36800787  0.24120626  1
  O  O348  1  0.24584546  0.38575856  0.73970883  1
  O  O349  1  0.24386804  0.88232217  0.24356894  1
  O  O350  1  0.24793968  0.88557038  0.74208470  1
  O  O351  1  0.73647369  0.36674911  0.23808501  1
  O  O352  1  0.74777756  0.38243734  0.74444593  1
  O  O353  1  0.75613077  0.88350778  0.24026364  1
  O  O354  1  0.74270657  0.87074535  0.73921612  1
  O  O355  1  0.25487889  0.11913907  0.25707766  1
  O  O356  1  0.25656667  0.11178864  0.74387501  1
  O  O357  1  0.25694682  0.63157200  0.25551563  1
  O  O358  1  0.25628277  0.61700807  0.74761469  1
  O  O359  1  0.75060752  0.11565003  0.24668575  1
  O  O360  1  0.74915016  0.12966011  0.76416975  1
  O  O361  1  0.76376368  0.62050117  0.25786494  1
  O  O362  1  0.75486251  0.62155095  0.75838744  1
  O  O363  1  0.36824477  0.12398326  0.37029614  1
  O  O364  1  0.37425582  0.12650913  0.86221026  1
  O  O365  1  0.36852661  0.62723163  0.36170574  1
  O  O366  1  0.37581245  0.61687447  0.86557039  1
  O  O367  1  0.87853678  0.11116845  0.38206976  1
  O  O368  1  0.86797391  0.11731599  0.87703869  1
  O  O369  1  0.86486359  0.62457191  0.36472704  1
  O  O370  1  0.86844518  0.61775487  0.86646484  1
  O  O371  1  0.13377901  0.36679071  0.13884551  1
  O  O372  1  0.13089068  0.38025779  0.62936799  1
  O  O373  1  0.13493026  0.87288312  0.12844586  1
  O  O374  1  0.13798054  0.87164389  0.62870056  1
  O  O375  1  0.63322315  0.38205554  0.12919444  1
  O  O376  1  0.63143377  0.38162746  0.62310895  1
  O  O377  1  0.63738959  0.88826096  0.11692643  1
  O  O378  1  0.63671780  0.87948856  0.63109506  1
  O  O379  1  0.11723350  0.25296994  0.26094314  1
  O  O380  1  0.12080456  0.25321172  0.75720723  1
  O  O381  1  0.12406735  0.76551247  0.25001781  1
  O  O382  1  0.11392363  0.75448063  0.75330988  1
  O  O383  1  0.62268411  0.25498777  0.25712746  1
  O  O384  1  0.60690427  0.24319779  0.74843569  1
  O  O385  1  0.62809376  0.74384330  0.26574557  1
  O  O386  1  0.61338966  0.75982115  0.74541057  1
  O  O387  1  0.37552881  0.23891706  0.24600225  1
  O  O388  1  0.38027435  0.24330971  0.74170004  1
  O  O389  1  0.37512125  0.74163231  0.23462117  1
  O  O390  1  0.38347022  0.74506192  0.74469743  1
  O  O391  1  0.88956749  0.25054566  0.24220842  1
  O  O392  1  0.88189570  0.24619932  0.74563557  1
  O  O393  1  0.87673041  0.73726036  0.24813338  1
  O  O394  1  0.88500473  0.74229870  0.75491555  1
  O  O395  1  0.38141203  0.49348963  0.50235161  1
  O  O396  1  0.37878246  0.49945170  0.99145945  1
  O  O397  1  0.39100895  1.00456127  0.50282689  1
  O  O398  1  0.38930866  0.99266631  1.00713771  1
  O  O399  1  0.88362879  0.48793408  0.54106371  1
  O  O400  1  0.86976003  0.50313630  0.98497193  1
  O  O401  1  0.87353374  0.99148325  0.48865374  1
  O  O402  1  0.87546455  0.98832010  0.99212216  1
  O  O403  1  0.13559075  0.00636081  -0.01594189  1
  O  O404  1  0.12166828  0.01030732  0.49977603  1
  O  O405  1  0.12514068  0.51074349  -0.00148357  1
  O  O406  1  0.12880075  0.51627325  0.50915915  1
  O  O407  1  0.62132841  0.01197824  0.00913865  1
  O  O408  1  0.61925081  0.00651304  0.50572982  1
  O  O409  1  0.62306595  0.50817317  0.01110315  1
  O  O410  1  0.61455443  0.50042986  0.50860307  1
  O  O411  1  0.36913871  0.36856104  0.11956093  1
  O  O412  1  0.36661947  0.36913400  0.61989668  1
  O  O413  1  0.36937322  0.86905226  0.11770587  1
  O  O414  1  0.36381985  0.86576143  0.62917341  1
  O  O415  1  0.86610756  0.36512264  0.13182461  1
  O  O416  1  0.85728554  0.35786974  0.63106187  1
  O  O417  1  0.86848934  0.87840749  0.11824115  1
  O  O418  1  0.85976454  0.87751897  0.61992609  1
  O  O419  1  0.13064238  0.12995547  0.38264067  1
  O  O420  1  0.12772318  0.12827591  0.87318321  1
  O  O421  1  0.13176788  0.63055666  0.38010488  1
  O  O422  1  0.11580446  0.62225345  0.88981379  1
  O  O423  1  0.61969268  0.13070897  0.38662300  1
  O  O424  1  0.63155201  0.12805348  0.88275064  1
  O  O425  1  0.64035152  0.62591020  0.37496973  1
  O  O426  1  0.64027815  0.62042768  0.88302378  1
