# generated using pymatgen
data_V85Zn86O256
_symmetry_space_group_name_H-M   'P 1'
_cell_length_a   16.94125861
_cell_length_b   16.94244004
_cell_length_c   16.95707669
_cell_angle_alpha   89.99352536
_cell_angle_beta   89.97585544
_cell_angle_gamma   90.00806112
_symmetry_Int_Tables_number   1
_chemical_formula_structural   V85Zn86O256
_chemical_formula_sum   'V85 Zn86 O256'
_cell_volume   4867.12576123
_cell_formula_units_Z   1
loop_
 _symmetry_equiv_pos_site_id
 _symmetry_equiv_pos_as_xyz
  1  'x, y, z'
loop_
 _atom_site_type_symbol
 _atom_site_label
 _atom_site_symmetry_multiplicity
 _atom_site_fract_x
 _atom_site_fract_y
 _atom_site_fract_z
 _atom_site_occupancy
  V  V0  1  0.75143100  0.25798998  0.00008557  1
  V  V1  1  0.87929320  0.88221448  0.49938676  1
  V  V2  1  0.88047662  0.00077283  0.37196579  1
  V  V3  1  0.39880907  0.62943048  0.74917864  1
  V  V4  1  0.50400484  0.51422389  0.50951649  1
  V  V5  1  0.37516270  0.62597874  0.24903329  1
  V  V6  1  0.11753759  0.11943529  0.50168460  1
  V  V7  1  0.74790048  0.74889867  -0.00501336  1
  V  V8  1  0.87486283  0.00197563  0.87612376  1
  V  V9  1  0.49840423  -0.00836273  0.00194771  1
  V  V10  1  0.38445644  0.37591393  0.49816902  1
  V  V11  1  0.50072051  0.74983071  0.24788519  1
  V  V12  1  0.50076642  0.00018955  0.50103680  1
  V  V13  1  0.50111995  0.87546106  0.37380718  1
  V  V14  1  0.00169026  0.24744003  0.74807546  1
  V  V15  1  0.12306395  0.62184711  -0.00719409  1
  V  V16  1  -0.00006951  0.25160290  0.26517350  1
  V  V17  1  0.49541334  0.25469567  0.25644855  1
  V  V18  1  0.25237993  0.87757481  0.63327708  1
  V  V19  1  0.00793340  0.75110887  0.25153524  1
  V  V20  1  0.62508407  0.88367905  0.24408424  1
  V  V21  1  0.11192609  0.50725951  0.61924413  1
  V  V22  1  0.24664860  0.12582549  0.38001997  1
  V  V23  1  0.36854764  -0.01229166  0.87517078  1
  V  V24  1  0.37398037  0.75632060  0.11924790  1
  V  V25  1  0.24878276  0.13034742  0.87858006  1
  V  V26  1  0.00739666  0.01704273  0.00716007  1
  V  V27  1  0.62480696  0.25571581  0.37561022  1
  V  V28  1  0.62654453  0.74824192  0.37248343  1
  V  V29  1  0.74694961  0.62293558  0.37676446  1
  V  V30  1  0.37443026  0.24994412  0.62654999  1
  V  V31  1  0.12503817  0.37582029  0.75059728  1
  V  V32  1  0.74256219  0.13029845  0.87473051  1
  V  V33  1  0.12771571  0.50023651  0.12330590  1
  V  V34  1  0.87726762  0.74256833  0.62442552  1
  V  V35  1  0.87737961  0.62688271  0.25063496  1
  V  V36  1  0.62387045  0.62525692  -0.01485313  1
  V  V37  1  0.74843777  0.75077493  0.49661954  1
  V  V38  1  0.25007825  0.37808444  0.62510333  1
  V  V39  1  0.37145904  0.25342435  0.11267416  1
  V  V40  1  0.37488438  0.12766514  0.25273202  1
  V  V41  1  0.37083434  0.11838277  0.74994410  1
  V  V42  1  0.62389012  0.50312703  0.12412590  1
  V  V43  1  0.00925841  0.87698061  0.37749464  1
  V  V44  1  0.64140588  0.37385097  0.73683162  1
  V  V45  1  0.57086156  0.30891110  0.91435617  1
  V  V46  1  0.38437077  0.49781214  0.37489842  1
  V  V47  1  0.51585442  0.86781136  0.87115581  1
  V  V48  1  0.62223981  0.37819411  0.25508064  1
  V  V49  1  0.11167722  0.62856660  0.49640967  1
  V  V50  1  0.62326582  0.12166479  0.00016228  1
  V  V51  1  0.63917462  0.50685449  0.62130680  1
  V  V52  1  0.88269998  0.37669673  0.50027692  1
  V  V53  1  0.24888890  0.25164099  0.50278193  1
  V  V54  1  -0.00791210  0.74994592  0.74876395  1
  V  V55  1  0.88588765  0.25106199  0.12001858  1
  V  V56  1  0.12926148  0.87663973  0.24646408  1
  V  V57  1  0.24940622  0.74664568  0.49939909  1
  V  V58  1  0.25219569  0.49725990  0.25254116  1
  V  V59  1  -0.01411515  0.49487081  0.00184601  1
  V  V60  1  0.12260266  0.74857135  0.87331593  1
  V  V61  1  0.74083023  -0.00139485  0.75088294  1
  V  V62  1  0.86389419  0.25269652  0.62501386  1
  V  V63  1  0.37410274  0.00060306  0.37604932  1
  V  V64  1  0.37450192  0.87309124  0.50284602  1
  V  V65  1  0.00041342  0.87761696  0.87715771  1
  V  V66  1  0.76813800  0.61050849  0.87106754  1
  V  V67  1  0.49986852  0.62342896  0.11990678  1
  V  V68  1  0.49998874  0.26028623  0.75030008  1
  V  V69  1  0.74554637  0.87642246  0.62559154  1
  V  V70  1  0.89313173  0.49255338  0.37518918  1
  V  V71  1  0.49990989  0.12320011  0.62738935  1
  V  V72  1  0.24824428  0.51158181  0.74907968  1
  V  V73  1  -0.01475580  0.37847397  0.87635566  1
  V  V74  1  0.87417307  0.12405254  0.74919309  1
  V  V75  1  0.38100773  0.49012559  0.87816073  1
  V  V76  1  0.62557079  0.12516802  0.50026370  1
  V  V77  1  0.25030718  0.75478813  -0.00170044  1
  V  V78  1  0.25401748  0.37439084  0.11123925  1
  V  V79  1  0.50240551  0.12010812  0.12697074  1
  V  V80  1  0.74949232  0.49989332  0.25298759  1
  V  V81  1  0.74687735  0.88266480  0.12156336  1
  V  V82  1  0.75189839  0.12518962  0.37169198  1
  V  V83  1  0.87780062  0.87568891  0.00019255  1
  V  V84  1  0.11899524  -0.00309177  0.63010383  1
  Zn  Zn85  1  -0.00473499  0.11786833  0.62238956  1
  Zn  Zn86  1  0.11708231  0.38152933  0.25869283  1
  Zn  Zn87  1  0.24971345  0.62887273  0.37700386  1
  Zn  Zn88  1  0.88295978  0.12244598  0.24221680  1
  Zn  Zn89  1  0.11698811  0.26677024  0.38745757  1
  Zn  Zn90  1  0.62282865  -0.00313973  0.62799178  1
  Zn  Zn91  1  0.74814997  0.25716650  0.50180174  1
  Zn  Zn92  1  0.87567310  0.60399889  0.73654056  1
  Zn  Zn93  1  0.25388788  0.62460558  0.87476278  1
  Zn  Zn94  1  0.55107015  0.76716605  0.73089390  1
  Zn  Zn95  1  0.12492414  0.25017687  0.87869420  1
  Zn  Zn96  1  0.24806471  0.00322914  0.24586096  1
  Zn  Zn97  1  0.38685870  0.74394979  0.62692012  1
  Zn  Zn98  1  0.49869510  0.48411215  -0.00453160  1
  Zn  Zn99  1  0.17091239  0.17841480  0.03675882  1
  Zn  Zn100  1  0.75263861  0.37622665  0.12271199  1
  Zn  Zn101  1  0.13054447  0.87746536  0.75400039  1
  Zn  Zn102  1  0.25056139  0.87913290  0.11877580  1
  Zn  Zn103  1  0.13020364  0.01249333  0.12415717  1
  Zn  Zn104  1  0.87587825  0.75206322  0.12708593  1
  Zn  Zn105  1  0.75059451  0.00287751  0.24356270  1
  Zn  Zn106  1  0.00077363  0.62600792  0.12548571  1
  Zn  Zn107  1  0.18568484  0.19325031  0.20227036  1
  Zn  Zn108  1  0.18807388  0.18357603  0.68962566  1
  Zn  Zn109  1  0.18772827  0.68620417  0.18556072  1
  Zn  Zn110  1  0.18154146  0.69272156  0.68277462  1
  Zn  Zn111  1  0.68856150  0.18852258  0.18681940  1
  Zn  Zn112  1  0.68287354  0.18748766  0.69055355  1
  Zn  Zn113  1  0.68958406  0.69180560  0.18407748  1
  Zn  Zn114  1  0.69518662  0.67390015  0.68408637  1
  Zn  Zn115  1  0.30671849  0.31610372  0.31558244  1
  Zn  Zn116  1  0.31178178  0.31300185  0.81019868  1
  Zn  Zn117  1  0.31120130  0.81100722  0.31455302  1
  Zn  Zn118  1  0.31433765  0.80771590  0.81373749  1
  Zn  Zn119  1  0.81378666  0.31271533  0.31017142  1
  Zn  Zn120  1  0.81119208  0.30991059  0.81262727  1
  Zn  Zn121  1  0.81496968  0.81534348  0.31001318  1
  Zn  Zn122  1  0.76113306  0.78889951  0.79099313  1
  Zn  Zn123  1  0.19179019  0.44402630  0.43962874  1
  Zn  Zn124  1  0.18568612  0.43737610  0.93310454  1
  Zn  Zn125  1  0.18767074  0.93904884  0.44311441  1
  Zn  Zn126  1  0.18645414  0.93979971  0.93738228  1
  Zn  Zn127  1  0.69204194  0.43599855  0.44334321  1
  Zn  Zn128  1  0.68985619  0.44378775  0.93651771  1
  Zn  Zn129  1  0.68966985  0.93859389  0.43485242  1
  Zn  Zn130  1  0.68758905  0.94229038  0.94052506  1
  Zn  Zn131  1  0.31726711  0.05974460  0.06245853  1
  Zn  Zn132  1  0.30828661  0.05861999  0.56492155  1
  Zn  Zn133  1  0.31205818  0.56438454  0.05884557  1
  Zn  Zn134  1  0.31406677  0.56487881  0.56709640  1
  Zn  Zn135  1  0.81519422  0.06695892  0.06151631  1
  Zn  Zn136  1  0.81170660  0.06357952  0.56053015  1
  Zn  Zn137  1  0.80912423  0.56522302  0.06643238  1
  Zn  Zn138  1  0.81680958  0.56103689  0.55310461  1
  Zn  Zn139  1  0.43784040  0.43554944  0.18515021  1
  Zn  Zn140  1  0.43677748  0.44188615  0.68715634  1
  Zn  Zn141  1  0.43441223  0.93876516  0.18863660  1
  Zn  Zn142  1  0.44044218  0.93220432  0.69132645  1
  Zn  Zn143  1  0.93620155  0.43238752  0.18569522  1
  Zn  Zn144  1  0.93399044  0.43151143  0.68353578  1
  Zn  Zn145  1  0.94012703  0.93953169  0.18593149  1
  Zn  Zn146  1  0.93313881  0.93448052  0.68905312  1
  Zn  Zn147  1  0.06258044  0.06597028  0.30839310  1
  Zn  Zn148  1  0.06455014  0.06022569  0.81144434  1
  Zn  Zn149  1  0.06788939  0.56716196  0.31312251  1
  Zn  Zn150  1  0.03009900  0.54675573  0.79749735  1
  Zn  Zn151  1  0.56356997  0.06427674  0.31369213  1
  Zn  Zn152  1  0.55739420  0.06208944  0.81538064  1
  Zn  Zn153  1  0.55995934  0.56360853  0.31578948  1
  Zn  Zn154  1  0.56720886  0.55195939  0.80950440  1
  Zn  Zn155  1  0.43790663  0.18884968  0.43902889  1
  Zn  Zn156  1  0.43239364  0.17912475  0.93760905  1
  Zn  Zn157  1  0.43560890  0.68850327  0.43755717  1
  Zn  Zn158  1  0.43625173  0.68483714  0.93452025  1
  Zn  Zn159  1  0.93454969  0.18651053  0.44092898  1
  Zn  Zn160  1  0.93423660  0.19299507  0.93463460  1
  Zn  Zn161  1  0.93523353  0.69298774  0.43178834  1
  Zn  Zn162  1  0.93898923  0.68945368  0.94145655  1
  Zn  Zn163  1  0.06207810  0.31988363  0.06382825  1
  Zn  Zn164  1  0.05953626  0.31273846  0.56480054  1
  Zn  Zn165  1  0.06370220  0.81323185  0.06536393  1
  Zn  Zn166  1  0.06273865  0.81210103  0.56203362  1
  Zn  Zn167  1  0.56500748  0.30875310  0.07986208  1
  Zn  Zn168  1  0.56198966  0.31375705  0.56362557  1
  Zn  Zn169  1  0.56444385  0.81004474  0.05989976  1
  Zn  Zn170  1  0.56426694  0.80871257  0.55794016  1
  O  O171  1  0.13908155  0.12601660  0.12690460  1
  O  O172  1  0.12470249  0.11209689  0.62169725  1
  O  O173  1  0.12454034  0.61465643  0.11557402  1
  O  O174  1  0.12346116  0.61421366  0.61680985  1
  O  O175  1  0.61040844  0.13368266  0.11732237  1
  O  O176  1  0.61853330  0.12355846  0.61751227  1
  O  O177  1  0.62202534  0.61506923  0.12221036  1
  O  O178  1  0.62770484  0.60650252  0.62342758  1
  O  O179  1  0.37037662  0.38531446  0.38578962  1
  O  O180  1  0.37121888  0.39126394  0.86782138  1
  O  O181  1  0.38044124  0.88134990  0.38072399  1
  O  O182  1  0.37900061  0.88577305  0.87137591  1
  O  O183  1  0.87513720  0.38899863  0.37440137  1
  O  O184  1  0.88619253  0.37201632  0.87117142  1
  O  O185  1  0.88252494  0.88300943  0.37894567  1
  O  O186  1  0.88075949  0.88395308  0.89057507  1
  O  O187  1  0.25684162  0.01106833  0.37866929  1
  O  O188  1  0.26326474  0.00540566  0.87785176  1
  O  O189  1  0.26575409  0.50612445  0.36783248  1
  O  O190  1  0.25765380  0.50256249  0.86474314  1
  O  O191  1  0.76100028  0.00661637  0.37174472  1
  O  O192  1  0.75476640  0.00722863  0.86967787  1
  O  O193  1  0.75162249  0.50903468  0.36981299  1
  O  O194  1  0.76110529  0.51162423  0.88232001  1
  O  O195  1  0.24698755  0.49727756  0.13125534  1
  O  O196  1  0.24500796  0.49500137  0.63313156  1
  O  O197  1  0.25336740  0.99464419  0.12756976  1
  O  O198  1  0.23856907  0.98798071  0.62198235  1
  O  O199  1  0.74102155  0.49876668  0.13374215  1
  O  O200  1  0.73890821  0.50048367  0.61300892  1
  O  O201  1  0.75278919  0.98747355  0.12151366  1
  O  O202  1  0.74960891  0.99510140  0.63280973  1
  O  O203  1  0.00095583  0.35762830  0.24339699  1
  O  O204  1  0.00837063  0.36522474  0.75485088  1
  O  O205  1  0.00981313  0.87087046  0.25443921  1
  O  O206  1  -0.00574070  0.87114513  0.76656470  1
  O  O207  1  0.51152217  0.36793255  0.24809811  1
  O  O208  1  0.50148380  0.36328748  0.74506431  1
  O  O209  1  0.50650579  0.87070651  0.25362694  1
  O  O210  1  0.50496328  0.87289563  0.76574847  1
  O  O211  1  0.49606289  0.13051086  0.24401025  1
  O  O212  1  0.49214653  0.13303729  0.74669905  1
  O  O213  1  0.49527582  0.63054205  0.24183489  1
  O  O214  1  0.49942381  0.63109238  0.75635784  1
  O  O215  1  0.99938642  0.14398694  0.25165126  1
  O  O216  1  0.99349399  0.13081331  0.75094184  1
  O  O217  1  0.99583295  0.63376404  0.25057991  1
  O  O218  1  0.99694148  0.64816611  0.75391892  1
  O  O219  1  0.38203025  0.24679023  0.01400552  1
  O  O220  1  0.37116034  0.25744395  0.50645866  1
  O  O221  1  0.36403933  0.74067970  0.00836310  1
  O  O222  1  0.37026227  0.75600113  0.50540348  1
  O  O223  1  0.86564408  0.24751053  0.01046197  1
  O  O224  1  0.87210769  0.25327717  0.51002437  1
  O  O225  1  0.87068160  0.75995208  0.00513159  1
  O  O226  1  0.86687429  0.76012181  0.50114110  1
  O  O227  1  0.13247926  0.24261505  0.50391502  1
  O  O228  1  0.12653116  0.26586606  0.99044178  1
  O  O229  1  0.13283413  0.73569111  0.50913416  1
  O  O230  1  0.12733304  0.74136244  0.99511734  1
  O  O231  1  0.62446191  0.24483337  0.49200310  1
  O  O232  1  0.62356951  0.24373687  0.99164140  1
  O  O233  1  0.64105681  0.75593077  0.48891789  1
  O  O234  1  0.63484705  0.73621981  1.00587406  1
  O  O235  1  0.49167896  0.24360405  0.13953510  1
  O  O236  1  0.49401129  0.24315807  0.63182264  1
  O  O237  1  0.49308454  0.74394667  0.12733622  1
  O  O238  1  0.49971056  0.76030263  0.63184757  1
  O  O239  1  0.98761183  0.25233347  0.12431067  1
  O  O240  1  0.99333189  0.24660957  0.63799848  1
  O  O241  1  0.99714161  0.74875756  0.13696389  1
  O  O242  1  0.98714195  0.76514348  0.63548998  1
  O  O243  1  -0.00328955  0.25180615  0.36829977  1
  O  O244  1  0.00081093  0.25702649  0.86381339  1
  O  O245  1  -0.00476618  0.76301016  0.36118358  1
  O  O246  1  0.00315832  0.76002394  0.87298443  1
  O  O247  1  0.50788682  0.24379680  0.36357011  1
  O  O248  1  0.49903083  0.24592768  0.86715135  1
  O  O249  1  0.50592490  0.75546912  0.36933417  1
  O  O250  1  0.49701783  0.76923358  0.88501178  1
  O  O251  1  0.24237808  0.13003578  0.49776114  1
  O  O252  1  0.25914700  0.12478357  0.98305686  1
  O  O253  1  0.24751727  0.63350286  0.50267648  1
  O  O254  1  0.24008017  0.63387512  0.99732292  1
  O  O255  1  0.74286024  0.12730480  0.48801005  1
  O  O256  1  0.73964827  0.13264341  0.99517796  1
  O  O257  1  0.75764006  0.63507477  0.48361887  1
  O  O258  1  0.74429450  0.62994125  0.99596739  1
  O  O259  1  0.25094569  0.38531228  0.01242880  1
  O  O260  1  0.26121115  0.37299786  0.50885921  1
  O  O261  1  0.24341729  0.85936794  -0.00126878  1
  O  O262  1  0.25560716  0.86848549  0.50776764  1
  O  O263  1  0.73870920  0.36097962  -0.00105484  1
  O  O264  1  0.77003943  0.36995630  0.49031603  1
  O  O265  1  0.75540714  0.86957324  0.00313701  1
  O  O266  1  0.75944644  0.87003490  0.50141779  1
  O  O267  1  0.13557141  0.50428587  0.24232729  1
  O  O268  1  0.12664304  0.49583676  0.73793012  1
  O  O269  1  0.12654935  0.99177352  0.24748652  1
  O  O270  1  0.12527640  0.99585855  0.73596486  1
  O  O271  1  0.62589166  0.49482588  0.24666103  1
  O  O272  1  0.62167942  0.48522350  0.73264672  1
  O  O273  1  0.62659756  0.98734428  0.25434594  1
  O  O274  1  0.63705533  1.00635407  0.74974809  1
  O  O275  1  0.37383185  0.00740463  0.26126342  1
  O  O276  1  0.38379691  0.00682521  0.76427708  1
  O  O277  1  0.37449394  0.50495606  0.25688929  1
  O  O278  1  0.36918837  0.51102825  0.75582106  1
  O  O279  1  0.87256456  0.00325342  0.25597431  1
  O  O280  1  0.86734838  0.00745040  0.75616842  1
  O  O281  1  0.87132554  0.50475149  0.25825641  1
  O  O282  1  0.92478141  0.50728150  0.76079917  1
  O  O283  1  0.14026984  0.37648699  0.37047952  1
  O  O284  1  0.12015869  0.37775579  0.85876407  1
  O  O285  1  0.11341019  0.88369826  0.37128853  1
  O  O286  1  0.11602256  0.87106393  0.87408196  1
  O  O287  1  0.62765006  0.36317017  0.37157056  1
  O  O288  1  0.62648431  0.38033823  0.85946241  1
  O  O289  1  0.62188774  0.86830082  0.36604616  1
  O  O290  1  0.61515399  0.87750800  0.88007392  1
  O  O291  1  0.38309923  0.13312834  0.13215487  1
  O  O292  1  0.37894020  0.12695650  0.63181145  1
  O  O293  1  0.37974621  0.63181149  0.13123931  1
  O  O294  1  0.37716259  0.62165056  0.64562670  1
  O  O295  1  0.86479528  0.14439540  0.12871818  1
  O  O296  1  0.87668776  0.13057542  0.63034859  1
  O  O297  1  0.87629156  0.62481573  0.14076740  1
  O  O298  1  0.87152847  0.63722397  0.62075099  1
  O  O299  1  0.25911512  0.26062636  0.13110473  1
  O  O300  1  0.25558452  0.25586464  0.62245489  1
  O  O301  1  0.25750574  0.75066229  0.11700765  1
  O  O302  1  0.25318627  0.75888813  0.61599972  1
  O  O303  1  0.74995349  0.25340791  0.11484371  1
  O  O304  1  0.76085942  0.24329040  0.62539784  1
  O  O305  1  0.75419339  0.76019299  0.11419308  1
  O  O306  1  0.75823778  0.75662113  0.61261045  1
  O  O307  1  0.25260930  0.23826822  0.38515744  1
  O  O308  1  0.25201164  0.23409934  0.86832612  1
  O  O309  1  0.25563043  0.74880538  0.39324028  1
  O  O310  1  0.24141445  0.74577613  0.88036454  1
  O  O311  1  0.74176214  0.24188632  0.37304105  1
  O  O312  1  0.75398845  0.23995136  0.88412152  1
  O  O313  1  0.74787986  0.74563092  0.37739672  1
  O  O314  1  0.75706245  0.73700828  0.89179609  1
  O  O315  1  -0.00203267  0.11499148  -0.00797331  1
  O  O316  1  0.01355911  0.12975851  0.50316006  1
  O  O317  1  0.00564388  0.61449268  0.00432494  1
  O  O318  1  0.01251784  0.63347285  0.49446663  1
  O  O319  1  0.50515736  0.11696914  0.00637591  1
  O  O320  1  0.50511677  0.12011737  0.50611329  1
  O  O321  1  0.50994037  0.62468691  0.00387272  1
  O  O322  1  0.49914965  0.61265840  0.49918409  1
  O  O323  1  0.48776186  0.37978486  0.50336821  1
  O  O324  1  0.52033871  0.36553131  0.98875369  1
  O  O325  1  0.49588743  0.88128070  0.49148279  1
  O  O326  1  0.50592408  0.88761365  0.99662281  1
  O  O327  1  0.98450611  0.36498971  0.49711638  1
  O  O328  1  0.99801939  0.38716082  0.99336557  1
  O  O329  1  0.99183064  0.86855333  0.48881258  1
  O  O330  1  0.99424438  0.87907022  0.99316633  1
  O  O331  1  0.49127933  0.50206315  0.38614844  1
  O  O332  1  0.48660090  0.49933379  0.87473491  1
  O  O333  1  0.49417395  0.99586679  0.37987080  1
  O  O334  1  0.49297584  0.99034799  0.88218082  1
  O  O335  1  0.99082439  0.50094718  0.36813145  1
  O  O336  1  1.00832915  0.49099480  0.89610944  1
  O  O337  1  0.98803276  0.99424631  0.36972587  1
  O  O338  1  0.99647548  0.99482681  0.88249699  1
  O  O339  1  -0.00001327  0.00222814  0.10962890  1
  O  O340  1  0.01304837  -0.00339415  0.62787233  1
  O  O341  1  0.00893287  0.49821086  0.11696905  1
  O  O342  1  0.01502932  0.49381372  0.61625747  1
  O  O343  1  0.49085968  0.00986102  0.11712483  1
  O  O344  1  0.50212856  0.00414664  0.62034130  1
  O  O345  1  0.50577915  0.50367411  0.11842104  1
  O  O346  1  0.50572092  0.49770372  0.61250300  1
  O  O347  1  0.25478057  0.39042339  0.24201908  1
  O  O348  1  0.24247892  0.38418728  0.74425836  1
  O  O349  1  0.23715097  0.87472919  0.25453062  1
  O  O350  1  0.25126175  0.86776946  0.73709790  1
  O  O351  1  0.73670697  0.38122236  0.25179386  1
  O  O352  1  0.73964242  0.37013431  0.74661599  1
  O  O353  1  0.74303333  0.87534033  0.23938534  1
  O  O354  1  0.76111036  0.88924234  0.73753465  1
  O  O355  1  0.25829991  0.12584603  0.26494129  1
  O  O356  1  0.26522447  0.12503522  0.75563524  1
  O  O357  1  0.25770357  0.61576292  0.24984218  1
  O  O358  1  0.24108225  0.61573992  0.74996537  1
  O  O359  1  0.74644010  0.12230803  0.26173306  1
  O  O360  1  0.75250037  0.12059058  0.75824557  1
  O  O361  1  0.75793839  0.62294361  0.25766543  1
  O  O362  1  0.76230567  0.61983786  0.76536287  1
  O  O363  1  0.36927685  0.11917062  0.37494973  1
  O  O364  1  0.36769393  0.11530400  0.86720157  1
  O  O365  1  0.37600640  0.61918350  0.36458329  1
  O  O366  1  0.37397218  0.61689564  0.86155186  1
  O  O367  1  0.86756139  0.11805938  0.37406756  1
  O  O368  1  0.86350474  0.12101508  0.87042333  1
  O  O369  1  0.87106250  0.61572166  0.36596395  1
  O  O370  1  0.86827165  0.62437630  0.88014180  1
  O  O371  1  0.13437298  0.38811554  0.13097691  1
  O  O372  1  0.12952269  0.38365263  0.63130181  1
  O  O373  1  0.12825083  0.87944980  0.13454400  1
  O  O374  1  0.13157714  0.88386459  0.62454594  1
  O  O375  1  0.62704525  0.38784196  0.13588778  1
  O  O376  1  0.62706054  0.37909417  0.63214128  1
  O  O377  1  0.63321146  0.87078770  0.13239554  1
  O  O378  1  0.64194239  0.87872310  0.61477765  1
  O  O379  1  0.11179516  0.25602849  0.26147842  1
  O  O380  1  0.11860328  0.25725994  0.74957172  1
  O  O381  1  0.11845141  0.75733207  0.24721519  1
  O  O382  1  0.11429340  0.75664754  0.75552366  1
  O  O383  1  0.61790728  0.25803178  0.25575296  1
  O  O384  1  0.61709795  0.26363529  0.74816219  1
  O  O385  1  0.61943572  0.75911364  0.25241941  1
  O  O386  1  0.65757512  0.75232902  0.75232228  1
  O  O387  1  0.38151678  0.24663281  0.25115324  1
  O  O388  1  0.38182580  0.24317367  0.74461976  1
  O  O389  1  0.38043557  0.74398245  0.24449098  1
  O  O390  1  0.37292927  0.73119522  0.75112612  1
  O  O391  1  0.88451510  0.24785783  0.24324824  1
  O  O392  1  0.88073859  0.24402301  0.74350253  1
  O  O393  1  0.88214654  0.74202971  0.24962913  1
  O  O394  1  0.87344419  0.75331438  0.73626825  1
  O  O395  1  0.38530807  0.49675672  0.49668214  1
  O  O396  1  0.37769834  0.50590032  0.98322284  1
  O  O397  1  0.38026018  0.99496111  0.49377054  1
  O  O398  1  0.38577716  1.00464901  0.98452304  1
  O  O399  1  0.87824636  0.49399805  0.48334794  1
  O  O400  1  0.88774114  0.50222329  1.01070638  1
  O  O401  1  0.87168888  0.98913076  0.49195224  1
  O  O402  1  0.88407756  0.99683210  0.99577530  1
  O  O403  1  0.11069644  -0.00032491  0.00033588  1
  O  O404  1  0.12767959  0.00864347  0.51329855  1
  O  O405  1  0.12260634  0.50584618  0.00747989  1
  O  O406  1  0.13338984  0.51405358  0.51220091  1
  O  O407  1  0.61671685  0.01435773  -0.00092226  1
  O  O408  1  0.61887960  0.00868685  0.49763604  1
  O  O409  1  0.62261467  0.50718183  0.00902379  1
  O  O410  1  0.61285363  0.49099655  0.50927435  1
  O  O411  1  0.36826980  0.36530221  0.12769267  1
  O  O412  1  0.36955505  0.37099217  0.62053566  1
  O  O413  1  0.37374442  0.85978447  0.13044803  1
  O  O414  1  0.36791505  0.87774126  0.61853804  1
  O  O415  1  0.86749240  0.35773857  0.12957716  1
  O  O416  1  0.87636427  0.36518341  0.61569477  1
  O  O417  1  0.86949427  0.87663740  0.11441781  1
  O  O418  1  0.86651864  0.87188803  0.61402995  1
  O  O419  1  0.13324673  0.12418335  0.38519404  1
  O  O420  1  0.14535650  0.12263657  0.86583777  1
  O  O421  1  0.13148627  0.61964682  0.39259043  1
  O  O422  1  0.12170213  0.62741265  0.88632451  1
  O  O423  1  0.63013634  0.13468044  0.37970160  1
  O  O424  1  0.63412516  0.12176180  0.88203653  1
  O  O425  1  0.63512419  0.63537183  0.36672882  1
  O  O426  1  0.63608054  0.61276637  0.88353892  1
