# generated using pymatgen
data_V85Zn86O256
_symmetry_space_group_name_H-M   'P 1'
_cell_length_a   16.95492200
_cell_length_b   16.95120704
_cell_length_c   16.93145819
_cell_angle_alpha   90.05079012
_cell_angle_beta   90.04204969
_cell_angle_gamma   90.04992622
_symmetry_Int_Tables_number   1
_chemical_formula_structural   V85Zn86O256
_chemical_formula_sum   'V85 Zn86 O256'
_cell_volume   4866.20425554
_cell_formula_units_Z   1
loop_
 _symmetry_equiv_pos_site_id
 _symmetry_equiv_pos_as_xyz
  1  'x, y, z'
loop_
 _atom_site_type_symbol
 _atom_site_label
 _atom_site_symmetry_multiplicity
 _atom_site_fract_x
 _atom_site_fract_y
 _atom_site_fract_z
 _atom_site_occupancy
  V  V0  1  0.63216579  0.50295748  0.12588327  1
  V  V1  1  0.12223417  0.36644565  0.75091018  1
  V  V2  1  0.25027747  0.49739864  0.75238476  1
  V  V3  1  -0.01079839  0.48946619  0.49538035  1
  V  V4  1  0.63149102  0.12346476  0.50184444  1
  V  V5  1  0.49008135  0.13426551  0.14004347  1
  V  V6  1  0.87420217  0.86892200  0.50008928  1
  V  V7  1  0.00323692  0.63711509  0.12851510  1
  V  V8  1  0.49908378  0.49894847  0.49128162  1
  V  V9  1  0.50216441  0.25083933  0.74766862  1
  V  V10  1  0.00561960  0.12828226  0.12580247  1
  V  V11  1  0.62704300  0.86895191  0.25560430  1
  V  V12  1  0.75167546  0.00000456  0.75037076  1
  V  V13  1  0.49888865  0.62550143  0.62229057  1
  V  V14  1  0.37760857  0.74243806  0.12201103  1
  V  V15  1  0.23704082  0.12096730  0.37240800  1
  V  V16  1  0.50314670  0.74887844  0.75542144  1
  V  V17  1  0.25089440  0.12449150  0.87255196  1
  V  V18  1  0.13296187  0.87414027  0.73903975  1
  V  V19  1  0.87737960  0.25461895  0.13074551  1
  V  V20  1  0.49613240  0.37507546  0.87744871  1
  V  V21  1  0.12004397  0.74595215  0.36351659  1
  V  V22  1  0.25005580  0.37361901  0.61932128  1
  V  V23  1  0.12117831  0.61999212  0.49644420  1
  V  V24  1  0.74411650  0.63775815  0.87948789  1
  V  V25  1  0.36843338  0.87477681  0.50462511  1
  V  V26  1  0.62582734  0.37833775  0.74452242  1
  V  V27  1  0.74879878  0.87345938  0.62099141  1
  V  V28  1  0.87123138  0.62919013  0.23907706  1
  V  V29  1  0.48488518  0.34380382  0.36153838  1
  V  V30  1  0.37749065  0.12324523  0.74736178  1
  V  V31  1  0.62768194  0.49826883  0.61981963  1
  V  V32  1  0.12736002  0.74884993  0.87576409  1
  V  V33  1  0.75300830  0.86134086  0.12233975  1
  V  V34  1  0.75240782  0.12865355  0.87441765  1
  V  V35  1  0.63273058  0.25029227  0.37313102  1
  V  V36  1  -0.00407396  0.75021851  0.74980369  1
  V  V37  1  0.75058907  0.63142747  0.36871729  1
  V  V38  1  0.37553836  0.00393722  0.36721199  1
  V  V39  1  0.87429742  0.51010015  0.87250026  1
  V  V40  1  0.88174425  0.13005985  0.74888670  1
  V  V41  1  0.12330744  0.50022671  0.62409935  1
  V  V42  1  0.75045217  0.25396444  0.00040262  1
  V  V43  1  0.13368602  0.48473951  0.13250135  1
  V  V44  1  0.62087865  0.63907674  0.00243770  1
  V  V45  1  0.50116809  0.50209975  0.00607927  1
  V  V46  1  0.62694881  0.00109538  0.12712298  1
  V  V47  1  0.87382855  0.86028283  0.00271180  1
  V  V48  1  0.62735008  0.25196278  0.87468704  1
  V  V49  1  0.50206710  0.12605839  0.62188657  1
  V  V50  1  0.88137243  0.12774706  0.25024509  1
  V  V51  1  -0.00610112  0.62520107  0.62604405  1
  V  V52  1  0.00796431  0.12920367  0.62475158  1
  V  V53  1  0.37595621  0.25037282  0.62049609  1
  V  V54  1  0.12653504  0.12538223  0.00164359  1
  V  V55  1  0.00202849  0.50064399  0.00465880  1
  V  V56  1  0.24307433  0.24161449  0.50000935  1
  V  V57  1  0.37755706  -0.00284732  0.87405406  1
  V  V58  1  0.25467992  0.25053747  0.00776631  1
  V  V59  1  0.75761953  0.26701217  0.51227653  1
  V  V60  1  0.49972170  0.00004838  0.49904492  1
  V  V61  1  0.75019297  0.50808475  0.75035389  1
  V  V62  1  0.50096390  0.86713939  0.37672446  1
  V  V63  1  0.11630673  0.25806864  0.36822094  1
  V  V64  1  0.00795640  -0.00160098  0.50149764  1
  V  V65  1  0.63277578  0.37906888  0.25261662  1
  V  V66  1  0.87676120  -0.00233786  0.37607723  1
  V  V67  1  0.24705440  0.74886255  0.50208808  1
  V  V68  1  0.37445958  0.37074912  0.01730061  1
  V  V69  1  0.86873925  0.74590110  0.62597639  1
  V  V70  1  0.25070356  0.87498147  0.12581617  1
  V  V71  1  0.63092960  0.64194602  0.49454016  1
  V  V72  1  -0.00284952  0.86778311  0.36463053  1
  V  V73  1  0.49996799  0.74227487  0.24920670  1
  V  V74  1  0.75182472  -0.00187310  0.24967916  1
  V  V75  1  0.87756427  0.00086465  0.88103206  1
  V  V76  1  0.24561169  0.61677193  0.36328788  1
  V  V77  1  0.50084940  0.00093869  0.00195407  1
  V  V78  1  0.62546977  0.12689316  0.00341357  1
  V  V79  1  0.87364405  0.37827727  -0.00278491  1
  V  V80  1  0.62759048  0.87043658  0.75839386  1
  V  V81  1  0.37221028  0.50229084  0.36481580  1
  V  V82  1  0.37364575  0.62428686  0.74931688  1
  V  V83  1  0.75471810  0.12420264  0.37794005  1
  V  V84  1  -0.00098661  0.37050662  0.87260707  1
  Zn  Zn85  1  0.12722511  0.00084232  0.12631053  1
  Zn  Zn86  1  0.13468182  -0.00118741  0.61628738  1
  Zn  Zn87  1  -0.01114605  0.37074500  0.36205125  1
  Zn  Zn88  1  0.25217763  0.74799585  -0.00172865  1
  Zn  Zn89  1  0.25032035  0.00757752  0.24346075  1
  Zn  Zn90  1  0.36888699  0.75364324  0.62708792  1
  Zn  Zn91  1  0.24905877  0.62416711  0.87536240  1
  Zn  Zn92  1  0.85846656  0.49167493  0.36878205  1
  Zn  Zn93  1  0.50581617  0.87074173  0.87938329  1
  Zn  Zn94  1  0.37282347  0.49860830  0.87924003  1
  Zn  Zn95  1  0.37475000  0.62208739  0.24370637  1
  Zn  Zn96  1  -0.11624947  0.26390928  0.62205253  1
  Zn  Zn97  1  0.12923341  0.62379837  0.00169894  1
  Zn  Zn98  1  0.37297597  0.37834346  0.49898141  1
  Zn  Zn99  1  0.00261713  0.87611564  0.87558575  1
  Zn  Zn100  1  0.75268342  0.38023971  0.13075610  1
  Zn  Zn101  1  0.00233324  0.00010765  0.00008634  1
  Zn  Zn102  1  0.12258920  0.24658805  0.87222216  1
  Zn  Zn103  1  0.62549879  -0.00108678  0.62727860  1
  Zn  Zn104  1  0.25587031  -0.00641361  0.74055218  1
  Zn  Zn105  1  0.37544925  0.87351515  0.00031563  1
  Zn  Zn106  1  0.12277673  0.87582098  0.24529664  1
  Zn  Zn107  1  0.21683459  0.22893820  0.21122426  1
  Zn  Zn108  1  0.18874734  0.18332271  0.68823044  1
  Zn  Zn109  1  0.18689310  0.68768067  0.18158217  1
  Zn  Zn110  1  0.18496553  0.68664882  0.68670298  1
  Zn  Zn111  1  0.68814354  0.18897219  0.18939925  1
  Zn  Zn112  1  0.69089242  0.18814901  0.68717907  1
  Zn  Zn113  1  0.68409264  0.68607349  0.18785962  1
  Zn  Zn114  1  0.68523394  0.68630925  0.68640241  1
  Zn  Zn115  1  0.32143720  0.30423244  0.31658461  1
  Zn  Zn116  1  0.31361465  0.31033936  0.81242572  1
  Zn  Zn117  1  0.31112279  0.81024829  0.31206833  1
  Zn  Zn118  1  0.31339469  0.81131766  0.81325621  1
  Zn  Zn119  1  0.81517279  0.31495111  0.31566295  1
  Zn  Zn120  1  0.83041877  0.33532115  0.77856945  1
  Zn  Zn121  1  0.80972199  0.80388060  0.31359217  1
  Zn  Zn122  1  0.81566599  0.81417522  0.81173441  1
  Zn  Zn123  1  0.19639102  0.42420187  0.29545455  1
  Zn  Zn124  1  0.18574979  0.43445809  0.94267857  1
  Zn  Zn125  1  0.18700746  0.93251652  0.43175306  1
  Zn  Zn126  1  0.19004086  0.93565801  0.93695918  1
  Zn  Zn127  1  0.68648765  0.44023089  0.43469347  1
  Zn  Zn128  1  0.68586404  0.44071619  0.93589313  1
  Zn  Zn129  1  0.68800142  0.93549217  0.43799792  1
  Zn  Zn130  1  0.69185896  0.93723095  0.93958056  1
  Zn  Zn131  1  0.31494887  0.06332043  0.06350473  1
  Zn  Zn132  1  0.31135871  0.06064243  0.55912056  1
  Zn  Zn133  1  0.31013559  0.56196610  0.06070721  1
  Zn  Zn134  1  0.31061489  0.56243950  0.55904439  1
  Zn  Zn135  1  0.81244997  0.06316361  0.06487899  1
  Zn  Zn136  1  0.81909754  0.06017288  0.56512198  1
  Zn  Zn137  1  0.81018940  0.56849630  0.05930435  1
  Zn  Zn138  1  0.80789104  0.56343173  0.56097262  1
  Zn  Zn139  1  0.44605201  0.43744901  0.18906244  1
  Zn  Zn140  1  0.43894518  0.43929319  0.68492962  1
  Zn  Zn141  1  0.43822355  0.93368292  0.18590840  1
  Zn  Zn142  1  0.44061926  0.93647061  0.68592296  1
  Zn  Zn143  1  0.93288316  0.44716480  0.18996856  1
  Zn  Zn144  1  0.93661275  0.44333338  0.68733055  1
  Zn  Zn145  1  0.93720932  0.94044954  0.18288628  1
  Zn  Zn146  1  0.94095332  0.93811445  0.68896249  1
  Zn  Zn147  1  0.06365736  0.05822936  0.31003541  1
  Zn  Zn148  1  0.06416845  0.05824212  0.81042931  1
  Zn  Zn149  1  0.05494293  0.55670937  0.30665818  1
  Zn  Zn150  1  0.06181154  0.56258383  0.80965646  1
  Zn  Zn151  1  0.56483732  0.05958888  0.31438204  1
  Zn  Zn152  1  0.56487827  0.06134667  0.81312689  1
  Zn  Zn153  1  0.56806654  0.56170152  0.31455298  1
  Zn  Zn154  1  0.56203059  0.56373300  0.81683003  1
  Zn  Zn155  1  0.43338184  0.18882700  0.42892406  1
  Zn  Zn156  1  0.43815733  0.18536443  0.94044283  1
  Zn  Zn157  1  0.43455671  0.68560849  0.43678781  1
  Zn  Zn158  1  0.43712226  0.68506581  0.93598110  1
  Zn  Zn159  1  0.93729892  0.18686228  0.44531409  1
  Zn  Zn160  1  0.93805052  0.18968661  0.94017602  1
  Zn  Zn161  1  0.93216664  0.68561649  0.43570904  1
  Zn  Zn162  1  0.94050442  0.68500019  0.93624869  1
  Zn  Zn163  1  0.06071700  0.31157477  0.18734432  1
  Zn  Zn164  1  0.06697317  0.31057775  0.55941102  1
  Zn  Zn165  1  0.06361575  0.81547200  0.05855326  1
  Zn  Zn166  1  0.05969570  0.80880274  0.55761059  1
  Zn  Zn167  1  0.56159194  0.31364401  0.06755868  1
  Zn  Zn168  1  0.56363398  0.31369186  0.55295815  1
  Zn  Zn169  1  0.56026965  0.81651910  0.06907415  1
  Zn  Zn170  1  0.55731120  0.81408017  0.56992261  1
  O  O171  1  0.11694218  0.12657272  0.11604053  1
  O  O172  1  0.11158028  0.12056065  0.63001375  1
  O  O173  1  0.11257561  0.61847895  0.12551677  1
  O  O174  1  0.11646506  0.62083148  0.61668066  1
  O  O175  1  0.62348186  0.11840454  0.12025249  1
  O  O176  1  0.62090456  0.12325331  0.61786004  1
  O  O177  1  0.62848532  0.61919866  0.11090394  1
  O  O178  1  0.61876188  0.61921387  0.61340968  1
  O  O179  1  0.37905554  0.38907405  0.37893557  1
  O  O180  1  0.38774100  0.37518976  0.87566478  1
  O  O181  1  0.38068019  0.88157528  0.38384031  1
  O  O182  1  0.37849798  0.88719889  0.87438775  1
  O  O183  1  0.87607843  0.38061468  0.37858243  1
  O  O184  1  0.88108044  0.38823471  0.87366537  1
  O  O185  1  0.87784446  0.87507419  0.38231456  1
  O  O186  1  0.87353718  0.88274074  0.88643073  1
  O  O187  1  0.25654937  0.00751839  0.37437906  1
  O  O188  1  0.26031348  0.00796771  0.87089773  1
  O  O189  1  0.25812834  0.50369714  0.36649513  1
  O  O190  1  0.25028535  0.49685380  0.86208526  1
  O  O191  1  0.75795227  0.00367545  0.37047625  1
  O  O192  1  0.75702648  0.00835545  0.87048267  1
  O  O193  1  0.74609158  0.52151047  0.38529319  1
  O  O194  1  0.75477790  0.50971595  0.87038385  1
  O  O195  1  0.23196275  0.50130120  0.12060566  1
  O  O196  1  0.24556389  0.49164303  0.63117842  1
  O  O197  1  0.25205069  0.99135051  0.12586501  1
  O  O198  1  0.24672257  1.00406966  0.62756965  1
  O  O199  1  0.73690547  0.49780395  0.11610421  1
  O  O200  1  0.73600372  0.50811456  0.63393677  1
  O  O201  1  0.74499446  0.99519139  0.13240841  1
  O  O202  1  0.75177203  0.99073391  0.63301937  1
  O  O203  1  -0.00348249  0.37794147  0.24884440  1
  O  O204  1  0.01363615  0.38913695  0.76097445  1
  O  O205  1  -0.00426199  0.87850873  0.26168047  1
  O  O206  1  0.00874969  0.86576200  0.75202227  1
  O  O207  1  0.51147670  0.37678794  0.26414858  1
  O  O208  1  0.50743450  0.37233114  0.75634179  1
  O  O209  1  0.50825135  0.86970772  0.25837148  1
  O  O210  1  0.51062499  0.86757796  0.74948512  1
  O  O211  1  0.50658050  0.11995186  0.23884277  1
  O  O212  1  0.49833468  0.13094652  0.74282699  1
  O  O213  1  0.50227189  0.63997099  0.25865991  1
  O  O214  1  0.49461322  0.62925980  0.74531735  1
  O  O215  1  0.98698627  0.11976447  0.24452736  1
  O  O216  1  0.99460463  0.11569252  0.73622567  1
  O  O217  1  0.98994700  0.62294964  0.23513153  1
  O  O218  1  1.00519930  0.63329022  0.73401007  1
  O  O219  1  0.36560271  0.25729173  -0.00777292  1
  O  O220  1  0.36295401  0.25306330  0.50388109  1
  O  O221  1  0.37898192  0.75302152  0.00719791  1
  O  O222  1  0.36526579  0.75596165  0.49901780  1
  O  O223  1  0.86812453  0.25581401  0.00841576  1
  O  O224  1  0.86178459  0.24848426  0.50529316  1
  O  O225  1  0.87604686  0.76222993  -0.00496098  1
  O  O226  1  0.87856772  0.76182363  0.50975325  1
  O  O227  1  0.13748066  0.25142218  0.49082125  1
  O  O228  1  0.14382472  0.23559695  0.99001531  1
  O  O229  1  0.12802692  0.73784663  0.49282028  1
  O  O230  1  0.12403960  0.74712404  0.98764060  1
  O  O231  1  0.64441585  0.23826817  0.50244328  1
  O  O232  1  0.63257626  0.24785460  0.99662955  1
  O  O233  1  0.61827714  0.73930252  0.50484798  1
  O  O234  1  0.61475988  0.73779003  1.00361220  1
  O  O235  1  0.50511572  0.23304923  0.12320154  1
  O  O236  1  0.49767974  0.24623249  0.62599936  1
  O  O237  1  0.49037997  0.75693026  0.13751199  1
  O  O238  1  0.49388741  0.74209935  0.63544053  1
  O  O239  1  0.98928310  0.23843237  0.12584919  1
  O  O240  1  1.00016375  0.23386461  0.61674325  1
  O  O241  1  1.00404823  0.73543854  0.11953864  1
  O  O242  1  0.99052097  0.74410388  0.62873789  1
  O  O243  1  0.01482072  0.25053184  0.38982046  1
  O  O244  1  -0.00034413  0.26708351  0.87987732  1
  O  O245  1  0.00740970  0.75675906  0.38260345  1
  O  O246  1  0.00520148  0.74976709  0.86453583  1
  O  O247  1  0.53237642  0.25368579  0.41287253  1
  O  O248  1  0.50664609  0.25493381  0.86922258  1
  O  O249  1  0.49255390  0.76250142  0.36966775  1
  O  O250  1  0.49451405  0.75261295  0.86013040  1
  O  O251  1  0.25499914  0.13166235  0.48633587  1
  O  O252  1  0.24951752  0.12859806  0.99068427  1
  O  O253  1  0.23890768  0.62564966  0.48892114  1
  O  O254  1  0.24696255  0.62779515  0.99286117  1
  O  O255  1  0.74568113  0.12099755  0.49570979  1
  O  O256  1  0.74670182  0.13642659  0.99667660  1
  O  O257  1  0.73482272  0.62843980  0.49825184  1
  O  O258  1  0.73615410  0.62658014  0.98918671  1
  O  O259  1  0.25943999  0.35929893  -0.00692389  1
  O  O260  1  0.25010262  0.36695227  0.51570089  1
  O  O261  1  0.25356558  0.87189483  0.01037732  1
  O  O262  1  0.25734974  0.86281520  0.49149675  1
  O  O263  1  0.75381943  0.36524523  -0.00355958  1
  O  O264  1  0.74322050  0.36469228  0.50378510  1
  O  O265  1  0.76295792  0.87812928  0.00798715  1
  O  O266  1  0.75642314  0.87918746  0.51299350  1
  O  O267  1  0.12645692  0.49747009  0.23962164  1
  O  O268  1  0.13420739  0.49421415  0.74309778  1
  O  O269  1  0.13127274  0.99502958  0.24629781  1
  O  O270  1  0.12644648  0.98091888  0.75000674  1
  O  O271  1  0.61985601  0.49346715  0.23911670  1
  O  O272  1  0.62357731  0.49656481  0.74061961  1
  O  O273  1  0.63209015  0.98915278  0.24775539  1
  O  O274  1  0.63438400  0.99320716  0.74880584  1
  O  O275  1  0.37288235  -0.00951472  0.26490381  1
  O  O276  1  0.37899825  0.00515242  0.75652318  1
  O  O277  1  0.38550963  0.50456849  0.25980345  1
  O  O278  1  0.36705734  0.50501191  0.74945125  1
  O  O279  1  0.86985281  0.00698801  0.25552375  1
  O  O280  1  0.87031415  0.00357154  0.76149245  1
  O  O281  1  0.87261138  0.52109564  0.25351725  1
  O  O282  1  0.86140921  0.50601786  0.75943504  1
  O  O283  1  0.12369168  0.35893244  0.36995404  1
  O  O284  1  0.11751759  0.37502193  0.86799779  1
  O  O285  1  0.11439829  0.86289490  0.37275396  1
  O  O286  1  0.12406893  0.86414369  0.86600457  1
  O  O287  1  0.62054920  0.36761954  0.36929373  1
  O  O288  1  0.61277472  0.37098201  0.87039026  1
  O  O289  1  0.61499439  0.88025367  0.36772938  1
  O  O290  1  0.62772195  0.87870462  0.86266644  1
  O  O291  1  0.39115660  0.12030020  0.12631166  1
  O  O292  1  0.38433946  0.13108825  0.62656423  1
  O  O293  1  0.37205900  0.63720382  0.12574171  1
  O  O294  1  0.38036887  0.62279703  0.63397998  1
  O  O295  1  0.87940706  0.13337470  0.13150066  1
  O  O296  1  0.88619736  0.12373275  0.63506180  1
  O  O297  1  0.88258429  0.62438320  0.13068810  1
  O  O298  1  0.87966822  0.63541272  0.62016426  1
  O  O299  1  0.25606455  0.23652292  0.10511823  1
  O  O300  1  0.25367752  0.25256689  0.61950788  1
  O  O301  1  0.25868314  0.75610566  0.12215003  1
  O  O302  1  0.24970330  0.74008632  0.60714127  1
  O  O303  1  0.75702168  0.25267943  0.11609346  1
  O  O304  1  0.75472528  0.24755425  0.61444817  1
  O  O305  1  0.74670551  0.76240944  0.12801413  1
  O  O306  1  0.76101540  0.75702033  0.63326660  1
  O  O307  1  0.23904840  0.23782449  0.38255890  1
  O  O308  1  0.25392570  0.23481453  0.87715037  1
  O  O309  1  0.23984006  0.74072425  0.38310001  1
  O  O310  1  0.24148606  0.74737267  0.87477286  1
  O  O311  1  0.74677096  0.24373235  0.38883767  1
  O  O312  1  0.74475054  0.24493004  0.88233847  1
  O  O313  1  0.74930627  0.73293880  0.38134942  1
  O  O314  1  0.75245587  0.73562651  0.86692688  1
  O  O315  1  0.01043342  0.12775892  0.00613011  1
  O  O316  1  -0.00738172  0.11142981  0.51480285  1
  O  O317  1  -0.00122787  0.61615201  0.01022485  1
  O  O318  1  0.00352076  0.62202413  0.50874895  1
  O  O319  1  0.50704494  0.11543245  0.00526194  1
  O  O320  1  0.50929340  0.12014629  0.50247233  1
  O  O321  1  0.51251443  0.61550725  -0.00832888  1
  O  O322  1  0.50811054  0.61928066  0.50111852  1
  O  O323  1  0.49654984  0.38355276  0.48513374  1
  O  O324  1  0.49405208  0.37880789  0.99423388  1
  O  O325  1  0.49586258  0.87994959  0.49345934  1
  O  O326  1  0.50222108  0.88913039  0.99882194  1
  O  O327  1  1.00282343  0.38953706  0.50525675  1
  O  O328  1  0.98953694  0.39140149  0.98760613  1
  O  O329  1  0.99112291  0.87932567  0.49285640  1
  O  O330  1  0.98618735  0.87926472  0.99860473  1
  O  O331  1  0.49319871  0.50452042  0.38359967  1
  O  O332  1  0.50010709  0.49062470  0.88578959  1
  O  O333  1  0.49086081  0.99244818  0.37881375  1
  O  O334  1  0.49501907  1.00000447  0.88329390  1
  O  O335  1  0.99986874  0.49919771  0.39045117  1
  O  O336  1  0.99057748  0.50284333  0.88046010  1
  O  O337  1  0.99344436  0.99171129  0.38190767  1
  O  O338  1  0.99126523  0.99728504  0.87751935  1
  O  O339  1  -0.00031489  0.01516184  0.12028851  1
  O  O340  1  0.00402523  0.00435697  0.61670629  1
  O  O341  1  0.00690717  0.50771069  0.11692626  1
  O  O342  1  0.00215720  0.50843495  0.61944843  1
  O  O343  1  0.50781977  0.00441963  0.11914881  1
  O  O344  1  0.50312267  0.00761096  0.61685123  1
  O  O345  1  0.51070762  0.49682313  0.11202484  1
  O  O346  1  0.50639403  0.50543258  0.61372970  1
  O  O347  1  0.24838245  0.33820198  0.24450545  1
  O  O348  1  0.24547135  0.37963562  0.74195298  1
  O  O349  1  0.24890243  0.87320165  0.23717587  1
  O  O350  1  0.23664828  0.87087033  0.74858413  1
  O  O351  1  0.73726267  0.37388133  0.25041975  1
  O  O352  1  0.72915865  0.39254676  0.76392733  1
  O  O353  1  0.74516253  0.87690357  0.24664003  1
  O  O354  1  0.74593820  0.87919386  0.74227880  1
  O  O355  1  0.25452963  0.12973017  0.26897743  1
  O  O356  1  0.26053877  0.12311058  0.75637577  1
  O  O357  1  0.25085529  0.63134775  0.26124410  1
  O  O358  1  0.25673799  0.61521543  0.74779669  1
  O  O359  1  0.75989748  0.11980690  0.25686694  1
  O  O360  1  0.75707927  0.11801901  0.75466841  1
  O  O361  1  0.75471508  0.62845947  0.25868970  1
  O  O362  1  0.73611060  0.61492757  0.76362054  1
  O  O363  1  0.36857948  0.10590284  0.38101711  1
  O  O364  1  0.37278251  0.11459984  0.86949310  1
  O  O365  1  0.36270926  0.61763697  0.37456661  1
  O  O366  1  0.37442853  0.61945251  0.86050781  1
  O  O367  1  0.87410256  0.12080552  0.36878861  1
  O  O368  1  0.87282710  0.11808653  0.87183879  1
  O  O369  1  0.86250762  0.62093550  0.37125865  1
  O  O370  1  0.86046225  0.61753210  0.88377341  1
  O  O371  1  0.12237125  0.38563876  0.12150745  1
  O  O372  1  0.13058737  0.37952802  0.63214186  1
  O  O373  1  0.13343380  0.87675213  0.12493133  1
  O  O374  1  0.11967637  0.87138468  0.63648157  1
  O  O375  1  0.62616761  0.38245484  0.13443919  1
  O  O376  1  0.61602475  0.38535818  0.63249600  1
  O  O377  1  0.63340300  0.88282597  0.13284558  1
  O  O378  1  0.63412961  0.87682432  0.63264293  1
  O  O379  1  0.11361720  0.23817986  0.26406038  1
  O  O380  1  0.13003403  0.26255633  0.75228216  1
  O  O381  1  0.12547256  0.74980343  0.26109919  1
  O  O382  1  0.11697316  0.75766322  0.75149447  1
  O  O383  1  0.63076300  0.25670410  0.26458859  1
  O  O384  1  0.62192157  0.25925538  0.75239996  1
  O  O385  1  0.61749574  0.76226536  0.24589986  1
  O  O386  1  0.61590367  0.75834695  0.74411500  1
  O  O387  1  0.42186362  0.25852627  0.32896355  1
  O  O388  1  0.38359582  0.24406051  0.74212952  1
  O  O389  1  0.38348858  0.74775254  0.24414008  1
  O  O390  1  0.37888170  0.74113539  0.74613278  1
  O  O391  1  0.86499275  0.24174801  0.23835414  1
  O  O392  1  0.87534182  0.22986588  0.75851515  1
  O  O393  1  0.87628591  0.72940969  0.25782559  1
  O  O394  1  0.88791420  0.75598110  0.74168105  1
  O  O395  1  0.38270677  0.50101527  0.49155000  1
  O  O396  1  0.38216210  0.49043706  0.99987922  1
  O  O397  1  0.38023313  0.99152111  0.49032042  1
  O  O398  1  0.38530255  0.99975517  0.99148912  1
  O  O399  1  0.88810789  0.50488925  0.50326888  1
  O  O400  1  0.87779717  0.49682146  0.99292569  1
  O  O401  1  0.88277498  0.98710591  0.49561375  1
  O  O402  1  0.87414754  1.00074823  0.98889309  1
  O  O403  1  0.12621109  0.01324842  -0.00128781  1
  O  O404  1  0.11151505  -0.00969966  0.49762962  1
  O  O405  1  0.11602983  0.50153915  0.00718835  1
  O  O406  1  0.11144664  0.51314451  0.50775671  1
  O  O407  1  0.62105615  0.00622782  0.00526710  1
  O  O408  1  0.62111557  0.01063080  0.50015705  1
  O  O409  1  0.61779494  0.50469984  0.00603106  1
  O  O410  1  0.61613285  0.50464351  0.50587112  1
  O  O411  1  0.38411213  0.37335068  0.11637910  1
  O  O412  1  0.36772749  0.36846243  0.62504804  1
  O  O413  1  0.36886841  0.86504009  0.12345256  1
  O  O414  1  0.38087664  0.87344485  0.60895092  1
  O  O415  1  0.87213982  0.36931822  0.11741783  1
  O  O416  1  0.86447189  0.36282726  0.67111099  1
  O  O417  1  0.86821855  0.88008966  0.11123481  1
  O  O418  1  0.86895529  0.86969578  0.61963020  1
  O  O419  1  0.13428091  0.12576360  0.37688548  1
  O  O420  1  0.13451423  0.12434964  0.87644313  1
  O  O421  1  0.12604781  0.62609590  0.37832620  1
  O  O422  1  0.12497766  0.63738318  0.87061759  1
  O  O423  1  0.63361792  0.12953201  0.38252160  1
  O  O424  1  0.63113915  0.13198972  0.88187006  1
  O  O425  1  0.63172742  0.62660992  0.38731925  1
  O  O426  1  0.63455240  0.62233814  0.88784347  1
