# generated using pymatgen
data_V85Zn86O256
_symmetry_space_group_name_H-M   'P 1'
_cell_length_a   16.97776216
_cell_length_b   16.99518464
_cell_length_c   16.97754366
_cell_angle_alpha   89.95324822
_cell_angle_beta   90.03627280
_cell_angle_gamma   89.97779930
_symmetry_Int_Tables_number   1
_chemical_formula_structural   V85Zn86O256
_chemical_formula_sum   'V85 Zn86 O256'
_cell_volume   4898.70090589
_cell_formula_units_Z   1
loop_
 _symmetry_equiv_pos_site_id
 _symmetry_equiv_pos_as_xyz
  1  'x, y, z'
loop_
 _atom_site_type_symbol
 _atom_site_label
 _atom_site_symmetry_multiplicity
 _atom_site_fract_x
 _atom_site_fract_y
 _atom_site_fract_z
 _atom_site_occupancy
  V  V0  1  0.87514221  0.62480253  0.25122882  1
  V  V1  1  0.24849441  0.62437313  0.87105257  1
  V  V2  1  0.30821048  0.55802054  0.70250451  1
  V  V3  1  0.24864158  0.24808864  0.00163536  1
  V  V4  1  0.62859973  0.13644140  0.47841167  1
  V  V5  1  0.49951028  0.49870755  0.48685970  1
  V  V6  1  0.37592241  0.50806136  0.87286724  1
  V  V7  1  0.00918029  0.25548104  0.24301971  1
  V  V8  1  0.49875025  0.24893940  0.75032649  1
  V  V9  1  0.62590028  -0.00184563  0.12499734  1
  V  V10  1  0.24670644  -0.00007400  0.74906776  1
  V  V11  1  0.48874145  0.74551202  0.74348729  1
  V  V12  1  0.63120090  0.63715728  -0.00381051  1
  V  V13  1  -0.01288246  0.25054367  0.75377080  1
  V  V14  1  0.76178796  0.12249661  0.87473413  1
  V  V15  1  0.61047720  0.37779786  0.26116710  1
  V  V16  1  0.62459449  0.49785209  0.62362820  1
  V  V17  1  0.12717307  0.86474152  0.24847638  1
  V  V18  1  0.37336183  0.25194891  0.62762682  1
  V  V19  1  0.37474499  0.12579653  0.74947927  1
  V  V20  1  0.24547299  0.75061905  -0.00289934  1
  V  V21  1  0.38116062  0.37567479  0.48766026  1
  V  V22  1  0.75065759  0.62552991  0.37577846  1
  V  V23  1  0.63272409  0.37244558  0.74798810  1
  V  V24  1  0.74954340  0.24845017  0.01059506  1
  V  V25  1  0.49947832  0.37644798  0.87299629  1
  V  V26  1  0.11840519  0.87798116  0.75015911  1
  V  V27  1  0.25284337  0.37584114  0.12783252  1
  V  V28  1  0.37891753  0.24772791  0.12611284  1
  V  V29  1  0.25165957  0.37708103  0.62802850  1
  V  V30  1  0.00708479  0.87715137  0.37859275  1
  V  V31  1  0.12831857  0.49871881  0.12394556  1
  V  V32  1  0.75191378  0.49415937  0.24950825  1
  V  V33  1  0.87503603  0.49841399  0.86623397  1
  V  V34  1  0.49909717  -0.00105878  -0.00158856  1
  V  V35  1  0.37652582  0.37694477  0.00065636  1
  V  V36  1  -0.01558148  0.88066641  0.87298857  1
  V  V37  1  0.49772414  0.00052529  0.50095957  1
  V  V38  1  0.62674598  0.49893907  0.12196595  1
  V  V39  1  -0.00155829  0.62431633  0.12211001  1
  V  V40  1  0.24007721  0.24786770  0.49647281  1
  V  V41  1  0.37293922  0.87349937  -0.00255523  1
  V  V42  1  0.24028507  0.63779935  0.37158074  1
  V  V43  1  0.62301102  0.00709302  0.62738341  1
  V  V44  1  0.75349525  0.63405804  0.87435833  1
  V  V45  1  -0.05124417  0.32487810  0.42408463  1
  V  V46  1  0.25394699  0.49952274  0.26178501  1
  V  V47  1  0.23834811  -0.00100570  0.25000135  1
  V  V48  1  0.12186577  0.01014993  0.61311103  1
  V  V49  1  0.00116555  0.49478296  -0.00660681  1
  V  V50  1  0.62468894  0.12513668  0.00032777  1
  V  V51  1  0.75761788  0.87061041  0.11149840  1
  V  V52  1  0.75780558  0.36163680  0.60381680  1
  V  V53  1  0.62541601  0.86963437  0.75106915  1
  V  V54  1  -0.00966669  0.62767266  0.63805135  1
  V  V55  1  0.24945785  0.12334805  0.87643799  1
  V  V56  1  0.23482395  0.12605443  0.37944660  1
  V  V57  1  0.75706839  0.00197843  0.25326565  1
  V  V58  1  0.37334168  0.11893504  0.25244773  1
  V  V59  1  0.88024436  0.88169335  0.49806831  1
  V  V60  1  0.76013851  0.00535045  0.75328385  1
  V  V61  1  0.50292790  0.50225609  -0.00359497  1
  V  V62  1  0.12175376  0.50143615  0.63071876  1
  V  V63  1  0.62516580  0.24895434  0.87697392  1
  V  V64  1  0.62857037  0.87168131  0.24860136  1
  V  V65  1  0.62499712  0.62793568  0.50928180  1
  V  V66  1  0.87850792  0.37364015  -0.00232521  1
  V  V67  1  0.49900334  0.75050037  0.24873844  1
  V  V68  1  -0.01663299  0.12781777  0.62284921  1
  V  V69  1  0.37263619  0.74885088  0.12322934  1
  V  V70  1  0.49929173  0.87375579  0.37504718  1
  V  V71  1  -0.00738120  0.49883196  0.49619928  1
  V  V72  1  0.75034397  0.87553616  0.62159339  1
  V  V73  1  0.11581359  0.75228306  0.86904586  1
  V  V74  1  0.62602773  0.74859678  0.37522961  1
  V  V75  1  0.12320962  0.12065773  0.00215596  1
  V  V76  1  0.37507501  0.62365409  0.25850874  1
  V  V77  1  0.49892084  0.62583709  0.12283353  1
  V  V78  1  -0.01671384  0.00106663  -0.00307850  1
  V  V79  1  0.11715945  0.63247427  0.49685419  1
  V  V80  1  0.00595271  0.74356785  0.26030925  1
  V  V81  1  0.12984785  0.37476788  0.26586465  1
  V  V82  1  0.50316501  0.12646576  0.12704886  1
  V  V83  1  0.50592376  0.86786139  0.87516645  1
  V  V84  1  0.37557993  0.86428216  0.50834995  1
  Zn  Zn85  1  0.12420956  0.62526127  -0.00360735  1
  Zn  Zn86  1  -0.00469675  0.11911745  0.13271483  1
  Zn  Zn87  1  0.53921125  0.21956251  0.30857059  1
  Zn  Zn88  1  0.75242544  0.37640121  0.12480326  1
  Zn  Zn89  1  0.25170520  0.87082597  0.62919442  1
  Zn  Zn90  1  0.87510386  -0.00174814  0.37317822  1
  Zn  Zn91  1  0.24542051  0.87385065  0.12315116  1
  Zn  Zn92  1  0.86513653  0.74594834  0.11379900  1
  Zn  Zn93  1  0.85284886  0.16124621  0.27901904  1
  Zn  Zn94  1  0.37682906  -0.00220162  0.87216993  1
  Zn  Zn95  1  0.48534640  0.62505512  0.62734472  1
  Zn  Zn96  1  0.11834431  0.25540486  0.87353758  1
  Zn  Zn97  1  0.50090464  0.12797945  0.62311545  1
  Zn  Zn98  1  0.88335525  0.25003123  0.12453421  1
  Zn  Zn99  1  0.75458597  0.75219693  0.49729544  1
  Zn  Zn100  1  0.87858027  0.49501445  0.37586752  1
  Zn  Zn101  1  0.12148211  -0.00741905  0.11993059  1
  Zn  Zn102  1  0.37006513  -0.00308677  0.37784240  1
  Zn  Zn103  1  0.75441829  0.50010656  0.74611518  1
  Zn  Zn104  1  0.88695145  0.75685283  0.63105938  1
  Zn  Zn105  1  0.24755670  0.75066944  0.50416845  1
  Zn  Zn106  1  0.12066818  0.37517363  0.75446310  1
  Zn  Zn107  1  0.18514083  0.18612283  0.18868052  1
  Zn  Zn108  1  0.18353548  0.19142934  0.69042545  1
  Zn  Zn109  1  0.18486725  0.68763054  0.18430522  1
  Zn  Zn110  1  0.17739385  0.69587669  0.68074387  1
  Zn  Zn111  1  0.71246040  0.21700690  0.22958506  1
  Zn  Zn112  1  0.69017284  0.18661808  0.68688693  1
  Zn  Zn113  1  0.68928739  0.68683604  0.18487897  1
  Zn  Zn114  1  0.72202399  0.70494749  0.70484246  1
  Zn  Zn115  1  0.35303007  0.28742030  0.33226864  1
  Zn  Zn116  1  0.28501247  0.32921726  0.82748366  1
  Zn  Zn117  1  0.31387051  0.81403173  0.31512002  1
  Zn  Zn118  1  0.31035210  0.81239829  0.81173212  1
  Zn  Zn119  1  0.78043933  0.28974813  0.41494485  1
  Zn  Zn120  1  0.81263483  0.31063363  0.81836264  1
  Zn  Zn121  1  0.81621608  0.81208041  0.30900642  1
  Zn  Zn122  1  0.81309469  0.81315718  0.80889744  1
  Zn  Zn123  1  0.18952007  0.44259050  0.44585698  1
  Zn  Zn124  1  0.18960537  0.44003563  0.93765971  1
  Zn  Zn125  1  0.18703947  0.93479915  0.43279713  1
  Zn  Zn126  1  0.18315680  0.93851660  0.93512662  1
  Zn  Zn127  1  0.68727469  0.44335766  0.43540093  1
  Zn  Zn128  1  0.69184617  0.43745550  0.93639244  1
  Zn  Zn129  1  0.68630006  0.94123782  0.43721694  1
  Zn  Zn130  1  0.68832056  0.93896642  0.93510223  1
  Zn  Zn131  1  0.31089213  0.05758391  0.06467756  1
  Zn  Zn132  1  0.30886591  0.06116833  0.56387868  1
  Zn  Zn133  1  0.31119961  0.56538429  0.06120333  1
  Zn  Zn134  1  0.31093061  0.56018157  0.53887392  1
  Zn  Zn135  1  0.81403426  0.07096843  0.07935232  1
  Zn  Zn136  1  0.80392222  0.05912718  0.55593623  1
  Zn  Zn137  1  0.81422979  0.56090529  0.05866274  1
  Zn  Zn138  1  0.81117318  0.55847307  0.56321329  1
  Zn  Zn139  1  0.43566131  0.44249059  0.18663447  1
  Zn  Zn140  1  0.44546305  0.43256512  0.68164578  1
  Zn  Zn141  1  0.43523247  0.93719570  0.18533814  1
  Zn  Zn142  1  0.43834592  0.93784685  0.68793558  1
  Zn  Zn143  1  0.93998139  0.43465616  0.18690345  1
  Zn  Zn144  1  0.93732325  0.43034149  0.68304586  1
  Zn  Zn145  1  0.94075597  0.93230239  0.18459727  1
  Zn  Zn146  1  0.93838440  0.94408826  0.68495688  1
  Zn  Zn147  1  0.03354804  0.08439741  0.33671032  1
  Zn  Zn148  1  0.05689588  0.06761549  0.81166061  1
  Zn  Zn149  1  0.06284299  0.55675816  0.31454609  1
  Zn  Zn150  1  0.06266220  0.56053449  0.81177007  1
  Zn  Zn151  1  0.56315907  0.05165341  0.31123522  1
  Zn  Zn152  1  0.56465906  0.06092920  0.81364705  1
  Zn  Zn153  1  0.56489896  0.56440174  0.31151457  1
  Zn  Zn154  1  0.57001865  0.56628228  0.80937012  1
  Zn  Zn155  1  0.42964623  0.18009482  0.44433242  1
  Zn  Zn156  1  0.43518096  0.18661285  0.93703265  1
  Zn  Zn157  1  0.44069549  0.68484171  0.43721504  1
  Zn  Zn158  1  0.43995063  0.68943681  0.93261069  1
  Zn  Zn159  1  0.92679365  0.15505861  0.45926904  1
  Zn  Zn160  1  0.93938205  0.18873241  0.93673703  1
  Zn  Zn161  1  0.93357888  0.69133183  0.44309255  1
  Zn  Zn162  1  0.93415055  0.68681111  0.93355330  1
  Zn  Zn163  1  0.06809457  0.31525654  0.05955175  1
  Zn  Zn164  1  0.06225292  0.30779047  0.57328319  1
  Zn  Zn165  1  0.03133066  0.79753983  0.04608592  1
  Zn  Zn166  1  0.06315563  0.81212462  0.56568517  1
  Zn  Zn167  1  0.56305208  0.31366673  0.06652380  1
  Zn  Zn168  1  0.56149480  0.31175385  0.55954545  1
  Zn  Zn169  1  0.56366738  0.81349101  0.06363944  1
  Zn  Zn170  1  0.56448875  0.81250592  0.56694954  1
  O  O171  1  0.12666007  0.12287421  0.10990099  1
  O  O172  1  0.13492781  0.10963913  0.62622370  1
  O  O173  1  0.12160906  0.61112921  0.12259817  1
  O  O174  1  0.11317225  0.61793337  0.61801248  1
  O  O175  1  0.61072688  0.11870223  0.11979033  1
  O  O176  1  0.62352303  0.11515995  0.62140102  1
  O  O177  1  0.62157879  0.61696029  0.11541787  1
  O  O178  1  0.63032343  0.61698238  0.61318077  1
  O  O179  1  0.36218138  0.38582915  0.39111557  1
  O  O180  1  0.37465984  0.38926628  0.88105594  1
  O  O181  1  0.38405513  0.87686126  0.38355609  1
  O  O182  1  0.38158035  0.87451980  0.88503891  1
  O  O183  1  0.87753175  0.37684540  0.37421742  1
  O  O184  1  0.86937207  0.38300469  0.89008833  1
  O  O185  1  0.88470512  0.87228699  0.38140424  1
  O  O186  1  0.88578490  0.87372975  0.87143565  1
  O  O187  1  0.25119047  0.00555239  0.36643479  1
  O  O188  1  0.25218602  0.00939400  0.86911008  1
  O  O189  1  0.24667470  0.51287831  0.36461860  1
  O  O190  1  0.25814002  0.51675320  0.87752463  1
  O  O191  1  0.74993416  -0.00446108  0.35753259  1
  O  O192  1  0.74279423  0.01025380  0.86469094  1
  O  O193  1  0.75331996  0.50937276  0.36618448  1
  O  O194  1  0.76066923  0.50575149  0.87556728  1
  O  O195  1  0.24457615  0.49874277  0.13150975  1
  O  O196  1  0.24620260  0.50105950  0.62690133  1
  O  O197  1  0.24581597  0.99379628  0.13401289  1
  O  O198  1  0.24086781  0.99285841  0.63312347  1
  O  O199  1  0.74184293  0.50284061  0.13012357  1
  O  O200  1  0.73871562  0.48760387  0.62300026  1
  O  O201  1  0.74430467  0.98753763  0.13057946  1
  O  O202  1  0.74050174  0.99457929  0.63074381  1
  O  O203  1  0.02302448  0.37343250  0.24279542  1
  O  O204  1  0.00348904  0.35732431  0.73949896  1
  O  O205  1  0.00697795  0.86085234  0.25369015  1
  O  O206  1  0.00456397  0.88731151  0.76363811  1
  O  O207  1  0.51159058  0.39057937  0.25145717  1
  O  O208  1  0.51065455  0.36832575  0.75484904  1
  O  O209  1  0.50635420  0.87018191  0.25306139  1
  O  O210  1  0.50470575  0.86874707  0.75609537  1
  O  O211  1  0.49218510  0.12232109  0.24312029  1
  O  O212  1  0.49276583  0.13141408  0.75035411  1
  O  O213  1  0.49195425  0.62884638  0.24424632  1
  O  O214  1  0.50715726  0.64177146  0.74914252  1
  O  O215  1  1.03115742  0.15173630  0.24352604  1
  O  O216  1  1.00347103  0.13660745  0.73832839  1
  O  O217  1  0.99260668  0.62380520  0.24741679  1
  O  O218  1  0.99871782  0.61983924  0.73631512  1
  O  O219  1  0.37029629  0.25393804  0.00958553  1
  O  O220  1  0.36937414  0.26105065  0.51227526  1
  O  O221  1  0.36955156  0.75567843  0.00185757  1
  O  O222  1  0.37937129  0.76244402  0.49836965  1
  O  O223  1  0.86891892  0.25652876  0.00244339  1
  O  O224  1  0.88555680  0.25873353  0.47452096  1
  O  O225  1  0.92477151  0.75382715  0.02007416  1
  O  O226  1  0.87116666  0.76334283  0.50934368  1
  O  O227  1  0.14203011  0.25982474  0.50454906  1
  O  O228  1  0.13256679  0.24326546  0.99442869  1
  O  O229  1  0.12169508  0.73550950  0.50094612  1
  O  O230  1  0.12595171  0.74983281  0.98619255  1
  O  O231  1  0.61918774  0.23351300  0.49990325  1
  O  O232  1  0.63196329  0.24645175  0.99861252  1
  O  O233  1  0.62067315  0.74158772  0.49185869  1
  O  O234  1  0.62172246  0.73490258  1.00372242  1
  O  O235  1  0.49043262  0.23981992  0.11843002  1
  O  O236  1  0.49141202  0.24943445  0.63074020  1
  O  O237  1  0.49443957  0.74431954  0.13007073  1
  O  O238  1  0.50152447  0.74752120  0.63880852  1
  O  O239  1  1.00833055  0.25197334  0.13273358  1
  O  O240  1  1.00007171  0.23609743  0.63591800  1
  O  O241  1  1.01572694  0.72747104  0.14234992  1
  O  O242  1  1.00146301  0.73273777  0.62623576  1
  O  O243  1  0.00576380  0.26724106  0.36249311  1
  O  O244  1  0.00237271  0.24486469  0.86086614  1
  O  O245  1  -0.00494630  0.75284622  0.36411782  1
  O  O246  1  0.00574337  0.76684496  0.87519859  1
  O  O247  1  0.45923776  0.25903901  0.37139148  1
  O  O248  1  0.50370378  0.25776604  0.87188714  1
  O  O249  1  0.50506143  0.75369365  0.36695594  1
  O  O250  1  0.50050420  0.76111190  0.86469283  1
  O  O251  1  0.25810382  0.13490660  0.49104918  1
  O  O252  1  0.24510911  0.12499556  0.99403868  1
  O  O253  1  0.23884524  0.62641403  0.48715552  1
  O  O254  1  0.24673662  0.63287082  0.99015397  1
  O  O255  1  0.72715769  0.11732771  0.49020717  1
  O  O256  1  0.74397585  0.13128073  0.99940051  1
  O  O257  1  0.74276705  0.62623813  0.49388604  1
  O  O258  1  0.73865197  0.62099477  0.99296771  1
  O  O259  1  0.26044877  0.37163320  0.00906907  1
  O  O260  1  0.26126153  0.37329015  0.50907493  1
  O  O261  1  0.25720966  0.86928804  -0.00289038  1
  O  O262  1  0.26797043  0.87538045  0.49505643  1
  O  O263  1  0.75561307  0.36468505  0.00310286  1
  O  O264  1  0.74453796  0.36375183  0.49641215  1
  O  O265  1  0.74474258  0.87796297  0.01303325  1
  O  O266  1  0.75604847  0.87948615  0.50585464  1
  O  O267  1  0.13367610  0.49334752  0.24276403  1
  O  O268  1  0.12003597  0.49564810  0.73584794  1
  O  O269  1  0.13489262  0.99052337  0.24724845  1
  O  O270  1  0.13495175  0.99673812  0.75023053  1
  O  O271  1  0.63066238  0.50015358  0.24091486  1
  O  O272  1  0.62391827  0.48864686  0.74011503  1
  O  O273  1  0.63179902  0.98993559  0.24290542  1
  O  O274  1  0.62621179  0.99414322  0.74096144  1
  O  O275  1  0.36544332  0.00773821  0.24622147  1
  O  O276  1  0.36250227  0.00350562  0.74862284  1
  O  O277  1  0.36434989  0.51217617  0.24266885  1
  O  O278  1  0.37813209  0.49782532  0.75570334  1
  O  O279  1  0.86042912  -0.01256053  0.24953477  1
  O  O280  1  0.85838330  -0.00041567  0.74590838  1
  O  O281  1  0.86907522  0.50783447  0.24931976  1
  O  O282  1  0.87471947  0.48960701  0.76290136  1
  O  O283  1  0.13464821  0.38359160  0.36353834  1
  O  O284  1  0.16846945  0.36243768  0.86179423  1
  O  O285  1  0.12027702  0.87199130  0.36241302  1
  O  O286  1  0.11806968  0.87089350  0.86552604  1
  O  O287  1  0.62685111  0.38050012  0.35973307  1
  O  O288  1  0.62102045  0.36943287  0.86777390  1
  O  O289  1  0.61878531  0.86871997  0.36929450  1
  O  O290  1  0.61609971  0.88065363  0.86529120  1
  O  O291  1  0.38421842  0.12742669  0.12746142  1
  O  O292  1  0.37444186  0.13423681  0.63110887  1
  O  O293  1  0.37952587  0.63150906  0.13148317  1
  O  O294  1  0.36671891  0.60880392  0.63128741  1
  O  O295  1  0.88033801  0.13436830  0.14553944  1
  O  O296  1  0.88335268  0.11916301  0.61420150  1
  O  O297  1  0.88309599  0.62288598  0.13134563  1
  O  O298  1  0.88864381  0.62123672  0.62091729  1
  O  O299  1  0.25722110  0.25359970  0.11844268  1
  O  O300  1  0.25710187  0.25767533  0.61966993  1
  O  O301  1  0.25457700  0.75066904  0.11512231  1
  O  O302  1  0.24151407  0.75962705  0.61753816  1
  O  O303  1  0.74974265  0.25229845  0.11869654  1
  O  O304  1  0.74558929  0.26504400  0.62599038  1
  O  O305  1  0.74895773  0.76407323  0.12603670  1
  O  O306  1  0.72662929  0.77367364  0.61177635  1
  O  O307  1  0.25821862  0.23880030  0.38445060  1
  O  O308  1  0.26125414  0.23173460  0.88480354  1
  O  O309  1  0.25280035  0.73991878  0.37914246  1
  O  O310  1  0.24373553  0.74096000  0.87722893  1
  O  O311  1  0.76859530  0.22676220  0.32751639  1
  O  O312  1  0.74259569  0.24352102  0.88793895  1
  O  O313  1  0.74453728  0.74296934  0.37468047  1
  O  O314  1  0.75514613  0.73310590  0.87742736  1
  O  O315  1  0.00634542  0.11494889  -0.00022018  1
  O  O316  1  0.01221082  0.12719753  0.52496792  1
  O  O317  1  0.00363592  0.61017584  0.00805038  1
  O  O318  1  0.00367998  0.61694064  0.50365739  1
  O  O319  1  0.50262582  0.11859983  0.00594728  1
  O  O320  1  0.50613670  0.11535430  0.50163042  1
  O  O321  1  0.51014990  0.62150692  0.00160082  1
  O  O322  1  0.50520915  0.61807372  0.50678927  1
  O  O323  1  0.48931649  0.38175317  0.50113152  1
  O  O324  1  0.49523240  0.38142682  0.99297458  1
  O  O325  1  0.49261044  0.87995719  0.49734814  1
  O  O326  1  0.49468021  0.87601252  0.99246363  1
  O  O327  1  1.00199363  0.37842989  0.49862024  1
  O  O328  1  0.99505653  0.38577820  1.00240789  1
  O  O329  1  0.99412309  0.86722072  0.49077554  1
  O  O330  1  1.00487577  0.89380468  0.98475842  1
  O  O331  1  0.50169826  0.50844762  0.38781093  1
  O  O332  1  0.49462987  0.49691074  0.87613285  1
  O  O333  1  0.49759310  0.99030103  0.38354316  1
  O  O334  1  0.49798949  0.98817064  0.88055605  1
  O  O335  1  0.99920257  0.49876906  0.38774534  1
  O  O336  1  0.99189722  0.50538591  0.88377329  1
  O  O337  1  1.00291958  0.97836486  0.36753731  1
  O  O338  1  0.99890508  0.99381811  0.88412200  1
  O  O339  1  0.00167863  -0.00057637  0.11239324  1
  O  O340  1  0.01407237  0.01502655  0.63526825  1
  O  O341  1  0.00887552  0.50697782  0.12068589  1
  O  O342  1  0.00499896  0.50503827  0.61773550  1
  O  O343  1  0.50392535  0.00534431  0.11874969  1
  O  O344  1  0.50594538  0.00316158  0.61852383  1
  O  O345  1  0.50604692  0.50895047  0.11732828  1
  O  O346  1  0.51357916  0.50250919  0.61824734  1
  O  O347  1  0.24386844  0.38632228  0.24412664  1
  O  O348  1  0.25665242  0.37822725  0.72952827  1
  O  O349  1  0.24464799  0.87972064  0.25026501  1
  O  O350  1  0.24106885  0.88478140  0.75323110  1
  O  O351  1  0.73694389  0.39198776  0.24357023  1
  O  O352  1  0.73832630  0.37432691  0.75095745  1
  O  O353  1  0.74218773  0.87947214  0.24317232  1
  O  O354  1  0.74027161  0.88738018  0.74374901  1
  O  O355  1  0.25307318  0.11600908  0.25465261  1
  O  O356  1  0.25449717  0.11944848  0.75778816  1
  O  O357  1  0.25491815  0.62109143  0.25462520  1
  O  O358  1  0.24535133  0.62583545  0.75357095  1
  O  O359  1  0.74669603  0.10227668  0.23631361  1
  O  O360  1  0.74152752  0.11665727  0.76149286  1
  O  O361  1  0.75631250  0.61753701  0.25324620  1
  O  O362  1  0.72999613  0.61335771  0.77225127  1
  O  O363  1  0.36664267  0.11618675  0.36359508  1
  O  O364  1  0.36970169  0.11930769  0.86818816  1
  O  O365  1  0.36795489  0.62969833  0.36268983  1
  O  O366  1  0.36937133  0.61556901  0.87577866  1
  O  O367  1  0.91601413  0.10773747  0.35977561  1
  O  O368  1  0.86008835  0.12810049  0.88041105  1
  O  O369  1  0.86801116  0.62471358  0.36710757  1
  O  O370  1  0.86146688  0.61562586  0.88168719  1
  O  O371  1  0.13525238  0.38758671  0.12482455  1
  O  O372  1  0.13615452  0.38638601  0.62189730  1
  O  O373  1  0.12359251  0.87106244  0.13971679  1
  O  O374  1  0.11699180  0.88568185  0.64004238  1
  O  O375  1  0.62343021  0.39041187  0.12909915  1
  O  O376  1  0.63111671  0.37947536  0.62879763  1
  O  O377  1  0.63059580  0.87915392  0.13051284  1
  O  O378  1  0.62684372  0.89043298  0.62981386  1
  O  O379  1  0.13001591  0.27089764  0.24576072  1
  O  O380  1  0.11741537  0.25469770  0.75343167  1
  O  O381  1  0.12009609  0.75218234  0.25381848  1
  O  O382  1  0.12588086  0.76228540  0.76137254  1
  O  O383  1  0.61338574  0.27192419  0.23985229  1
  O  O384  1  0.61864354  0.25513586  0.75517645  1
  O  O385  1  0.61888062  0.75217578  0.25427323  1
  O  O386  1  0.62257149  0.76781668  0.74496046  1
  O  O387  1  0.36534298  0.23179158  0.23251052  1
  O  O388  1  0.37864065  0.24854358  0.73929946  1
  O  O389  1  0.37919121  0.74411655  0.24369007  1
  O  O390  1  0.39021432  0.75424456  0.75189670  1
  O  O391  1  0.90672365  0.26363762  0.24388389  1
  O  O392  1  0.88707386  0.25288595  0.75493549  1
  O  O393  1  0.88282016  0.73640799  0.24301774  1
  O  O394  1  0.83082557  0.74298178  0.72632932  1
  O  O395  1  0.38675187  0.48497269  0.50574270  1
  O  O396  1  0.38298701  0.49855478  0.99312548  1
  O  O397  1  0.38647457  0.99406886  0.50157856  1
  O  O398  1  0.38067894  0.98902000  0.99934949  1
  O  O399  1  0.88820151  0.50134847  0.49860613  1
  O  O400  1  0.88360228  0.49312512  0.99353300  1
  O  O401  1  0.87165659  0.98768523  0.49354294  1
  O  O402  1  0.88562781  1.00879661  1.00513396  1
  O  O403  1  0.11892686  0.00762655  0.00038623  1
  O  O404  1  0.12963808  -0.00906181  0.51619050  1
  O  O405  1  0.11943205  0.49978220  0.00536800  1
  O  O406  1  0.11813017  0.50917179  0.51077896  1
  O  O407  1  0.61833033  0.00516452  0.00621500  1
  O  O408  1  0.61246434  0.00631399  0.50355327  1
  O  O409  1  0.62029667  0.50401506  0.00607436  1
  O  O410  1  0.61852182  0.50616746  0.50458606  1
  O  O411  1  0.37375411  0.36619823  0.12217133  1
  O  O412  1  0.37183867  0.36869248  0.61777175  1
  O  O413  1  0.37476256  0.86739102  0.11205758  1
  O  O414  1  0.37546986  0.87850023  0.61073154  1
  O  O415  1  0.87326914  0.37575875  0.11186629  1
  O  O416  1  0.85405378  0.37898122  0.62099599  1
  O  O417  1  0.85978880  0.87157268  0.12712056  1
  O  O418  1  0.86717461  0.87932107  0.61821148  1
  O  O419  1  0.13570325  0.11926327  0.37609807  1
  O  O420  1  0.13430131  0.12585339  0.88497174  1
  O  O421  1  0.13063530  0.62141418  0.38205785  1
  O  O422  1  0.13076057  0.63339299  0.87268677  1
  O  O423  1  0.60791440  0.13645597  0.37450928  1
  O  O424  1  0.62655960  0.13224335  0.88423770  1
  O  O425  1  0.63170038  0.62914572  0.38350903  1
  O  O426  1  0.63374301  0.61873050  0.89119420  1
