# generated using pymatgen
data_V85Zn86O256
_symmetry_space_group_name_H-M   'P 1'
_cell_length_a   16.97143072
_cell_length_b   16.95937814
_cell_length_c   16.97264423
_cell_angle_alpha   89.99850481
_cell_angle_beta   90.05791732
_cell_angle_gamma   89.94335416
_symmetry_Int_Tables_number   1
_chemical_formula_structural   V85Zn86O256
_chemical_formula_sum   'V85 Zn86 O256'
_cell_volume   4885.14493502
_cell_formula_units_Z   1
loop_
 _symmetry_equiv_pos_site_id
 _symmetry_equiv_pos_as_xyz
  1  'x, y, z'
loop_
 _atom_site_type_symbol
 _atom_site_label
 _atom_site_symmetry_multiplicity
 _atom_site_fract_x
 _atom_site_fract_y
 _atom_site_fract_z
 _atom_site_occupancy
  V  V0  1  0.12306735  0.24860354  0.37611495  1
  V  V1  1  0.37507472  0.12756584  0.25136758  1
  V  V2  1  0.38009391  0.62574042  0.75177619  1
  V  V3  1  -0.05685944  0.81598884  0.43377989  1
  V  V4  1  0.07770443  0.70967440  0.82520274  1
  V  V5  1  0.24951646  0.50124590  0.74696136  1
  V  V6  1  0.36910649  0.37702915  0.00445558  1
  V  V7  1  0.37629505  0.75151463  0.12496610  1
  V  V8  1  0.74995810  0.50386204  0.25809745  1
  V  V9  1  -0.00160762  -0.00538464  0.00069224  1
  V  V10  1  0.76690715  0.26341569  0.50237607  1
  V  V11  1  0.25161167  0.63290649  0.87537466  1
  V  V12  1  0.62878991  0.13667635  0.48977255  1
  V  V13  1  0.49385203  0.37616945  0.38997055  1
  V  V14  1  0.62854741  0.87477298  0.75536428  1
  V  V15  1  0.00021640  0.87394456  0.87441552  1
  V  V16  1  0.25120758  0.00173676  0.74439308  1
  V  V17  1  0.30029308  0.30823145  0.55568661  1
  V  V18  1  0.62504923  0.62984833  -0.00675385  1
  V  V19  1  0.74982113  0.37665259  0.12575739  1
  V  V20  1  0.38254397  0.75137750  0.62483606  1
  V  V21  1  0.00434689  0.11596341  0.62823173  1
  V  V22  1  0.12138127  0.87479337  0.25745528  1
  V  V23  1  -0.00159702  0.75186952  0.25148034  1
  V  V24  1  0.12220775  0.88014417  0.75092779  1
  V  V25  1  0.00481285  0.37984832  0.38072902  1
  V  V26  1  0.12607012  0.11630815  0.50211768  1
  V  V27  1  0.62071703  0.87346721  0.24841175  1
  V  V28  1  -0.05054538  0.30588705  0.69005825  1
  V  V29  1  0.13265388  0.74446420  0.37770420  1
  V  V30  1  0.00626290  0.35591181  0.88043351  1
  V  V31  1  0.25147232  0.13020020  0.37973580  1
  V  V32  1  0.51062958  0.74982231  0.75208521  1
  V  V33  1  0.00114082  0.49875349  -0.00041103  1
  V  V34  1  0.87893503  0.12671935  0.74406402  1
  V  V35  1  0.50124605  0.49901931  -0.00160568  1
  V  V36  1  0.87299478  0.62280919  0.25341023  1
  V  V37  1  0.74766611  0.75305548  -0.00925497  1
  V  V38  1  -0.00659828  -0.00323702  0.49619943  1
  V  V39  1  0.62410822  0.00245469  0.12353595  1
  V  V40  1  0.11072835  0.61918130  0.50374361  1
  V  V41  1  0.87589309  0.12608553  0.25297144  1
  V  V42  1  0.49783391  0.13159808  0.12367957  1
  V  V43  1  0.25596417  0.73663032  0.49893246  1
  V  V44  1  0.13390631  0.49463226  0.12621820  1
  V  V45  1  0.37570459  0.50221862  0.87514208  1
  V  V46  1  0.74811173  0.25073338  -0.00173812  1
  V  V47  1  0.24779181  0.75342657  -0.00198613  1
  V  V48  1  0.75152087  0.87506411  0.60491346  1
  V  V49  1  0.38433354  0.13672035  0.74489570  1
  V  V50  1  0.75426570  0.61979504  0.86797467  1
  V  V51  1  0.37473384  0.87713672  0.50083410  1
  V  V52  1  0.12451534  0.63125707  0.00460871  1
  V  V53  1  0.37466779  0.00204570  0.37716683  1
  V  V54  1  0.64824141  0.49675275  0.62660579  1
  V  V55  1  0.12710182  0.12772421  -0.00617531  1
  V  V56  1  0.50939392  0.60897120  0.62228940  1
  V  V57  1  0.62346152  0.12904879  -0.00306670  1
  V  V58  1  0.37413048  0.87794473  -0.00137328  1
  V  V59  1  0.87500871  0.75077696  0.12100166  1
  V  V60  1  0.50047247  0.62649344  0.12567565  1
  V  V61  1  0.87941833  0.49901372  0.38414079  1
  V  V62  1  0.00055008  0.12383797  0.12700378  1
  V  V63  1  0.62485791  0.00639421  0.62283712  1
  V  V64  1  0.49794407  0.37063615  0.86179338  1
  V  V65  1  0.87589584  0.37614060  0.00227502  1
  V  V66  1  0.49927044  0.00498604  0.50144848  1
  V  V67  1  0.75231676  0.00051101  0.74712060  1
  V  V68  1  0.75311645  0.87567293  0.11676003  1
  V  V69  1  0.62734334  0.49982373  0.12574635  1
  V  V70  1  0.24889244  0.87596739  0.12624539  1
  V  V71  1  0.87475229  -0.00231703  0.87693340  1
  V  V72  1  0.37446543  0.00174682  0.87134365  1
  V  V73  1  0.36884237  0.62344556  0.25827166  1
  V  V74  1  0.75024209  0.00257681  0.24990211  1
  V  V75  1  0.62809342  0.74444574  0.38206743  1
  V  V76  1  0.64987953  0.37565661  0.74755377  1
  V  V77  1  0.11922508  0.50066985  0.62497370  1
  V  V78  1  0.13229329  0.37152375  0.24802549  1
  V  V79  1  0.13650610  0.36047583  0.75090691  1
  V  V80  1  0.24976848  -0.00133653  0.25225682  1
  V  V81  1  0.24549092  0.87629909  0.62314226  1
  V  V82  1  0.62498913  0.36823165  0.26097730  1
  V  V83  1  0.36433039  0.25582875  0.12679567  1
  V  V84  1  0.49859500  0.00237153  -0.00232852  1
  Zn  Zn85  1  0.00036229  0.62206670  0.12877799  1
  Zn  Zn86  1  0.74908336  0.13309415  0.37211799  1
  Zn  Zn87  1  0.50055199  0.87540931  0.37704365  1
  Zn  Zn88  1  0.50112575  0.14240650  0.62398961  1
  Zn  Zn89  1  0.87320522  0.76544935  0.61260282  1
  Zn  Zn90  1  0.86555205  0.49442973  0.86421891  1
  Zn  Zn91  1  0.24474564  0.13248232  0.86873101  1
  Zn  Zn92  1  -0.00322382  0.25259421  0.25028686  1
  Zn  Zn93  1  0.89124934  0.37403898  0.51387521  1
  Zn  Zn94  1  0.37767759  0.50205585  0.39081383  1
  Zn  Zn95  1  0.74903123  0.12674404  0.87175852  1
  Zn  Zn96  1  0.62635107  0.61332019  0.49307553  1
  Zn  Zn97  1  0.50447961  0.87190311  0.87567984  1
  Zn  Zn98  1  0.61854162  0.24622713  0.86475168  1
  Zn  Zn99  1  0.23892937  0.26310065  -0.00073078  1
  Zn  Zn100  1  0.25361121  0.49428922  0.25119598  1
  Zn  Zn101  1  0.87581640  -0.00659130  0.37688652  1
  Zn  Zn102  1  -0.06468140  0.66706339  0.70180627  1
  Zn  Zn103  1  0.50312814  0.25066095  0.25688134  1
  Zn  Zn104  1  0.87361700  0.25045423  0.12710968  1
  Zn  Zn105  1  0.50100374  0.74983337  0.25144090  1
  Zn  Zn106  1  0.12466295  -0.00177894  0.12591806  1
  Zn  Zn107  1  0.18586268  0.18539716  0.18755454  1
  Zn  Zn108  1  0.18953058  0.18144197  0.68269532  1
  Zn  Zn109  1  0.18752479  0.68866013  0.18636099  1
  Zn  Zn110  1  0.19192580  0.68517053  0.67994968  1
  Zn  Zn111  1  0.68862834  0.18944904  0.18466411  1
  Zn  Zn112  1  0.68922740  0.19183091  0.68158835  1
  Zn  Zn113  1  0.68740202  0.68844634  0.18675914  1
  Zn  Zn114  1  0.70493283  0.69493527  0.68595325  1
  Zn  Zn115  1  0.31288950  0.31311929  0.31758105  1
  Zn  Zn116  1  0.30771668  0.31144611  0.82104012  1
  Zn  Zn117  1  0.31417291  0.81056257  0.31432202  1
  Zn  Zn118  1  0.31570759  0.81402186  0.80957173  1
  Zn  Zn119  1  0.81302732  0.31236158  0.31889078  1
  Zn  Zn120  1  0.81643326  0.31071645  0.82124830  1
  Zn  Zn121  1  0.80563751  0.81436798  0.30053182  1
  Zn  Zn122  1  0.82019766  0.80955129  0.80424922  1
  Zn  Zn123  1  0.23264334  0.45922521  0.45776736  1
  Zn  Zn124  1  0.18433271  0.44251817  0.93191918  1
  Zn  Zn125  1  0.18558843  0.93706480  0.43866882  1
  Zn  Zn126  1  0.18484801  0.94179953  0.93357014  1
  Zn  Zn127  1  0.69181931  0.43699179  0.44173045  1
  Zn  Zn128  1  0.68369688  0.43733697  0.93509187  1
  Zn  Zn129  1  0.68137809  0.94336700  0.43014809  1
  Zn  Zn130  1  0.68855474  0.94125799  0.93584054  1
  Zn  Zn131  1  0.31107983  0.06312654  0.06449066  1
  Zn  Zn132  1  0.31214555  0.06923078  0.56609753  1
  Zn  Zn133  1  0.31260256  0.56299406  0.06507923  1
  Zn  Zn134  1  0.32715970  0.55614919  0.57254764  1
  Zn  Zn135  1  0.81389995  0.06415138  0.06195390  1
  Zn  Zn136  1  0.81405592  0.06465191  0.56135302  1
  Zn  Zn137  1  0.81322756  0.56339258  0.06246198  1
  Zn  Zn138  1  0.80739051  0.57170533  0.55687682  1
  Zn  Zn139  1  0.44109337  0.43862665  0.18878173  1
  Zn  Zn140  1  0.43337282  0.31558685  0.67888502  1
  Zn  Zn141  1  0.43650097  0.94180412  0.18585050  1
  Zn  Zn142  1  0.43958117  0.93892536  0.68580055  1
  Zn  Zn143  1  0.94273532  0.43691867  0.18975857  1
  Zn  Zn144  1  0.90847652  0.49281513  0.65910673  1
  Zn  Zn145  1  0.93652755  0.93656912  0.18879355  1
  Zn  Zn146  1  0.93842141  0.93522186  0.68374274  1
  Zn  Zn147  1  0.06073826  0.05855872  0.31579182  1
  Zn  Zn148  1  0.06287654  0.06037171  0.81141256  1
  Zn  Zn149  1  0.06536222  0.56321340  0.31528965  1
  Zn  Zn150  1  0.02991648  0.52346916  0.78762280  1
  Zn  Zn151  1  0.56061180  0.06303291  0.31241652  1
  Zn  Zn152  1  0.56202988  0.06167570  0.81281693  1
  Zn  Zn153  1  0.55778950  0.55846294  0.31211966  1
  Zn  Zn154  1  0.56823320  0.55808590  0.80853298  1
  Zn  Zn155  1  0.44217336  0.19866836  0.44002041  1
  Zn  Zn156  1  0.42919411  0.19221693  0.93496839  1
  Zn  Zn157  1  0.44869371  0.68992043  0.43912207  1
  Zn  Zn158  1  0.43991213  0.69208110  0.93696696  1
  Zn  Zn159  1  0.94006228  0.18645789  0.43737674  1
  Zn  Zn160  1  0.93300521  0.18200576  0.94093209  1
  Zn  Zn161  1  0.80335309  0.68503157  0.42730770  1
  Zn  Zn162  1  0.93172790  0.68365272  0.94247350  1
  Zn  Zn163  1  0.06128904  0.30943051  0.06799671  1
  Zn  Zn164  1  0.10900102  0.32926338  0.54321278  1
  Zn  Zn165  1  0.06038280  0.81441374  0.06573121  1
  Zn  Zn166  1  0.06360297  0.79735985  0.57564300  1
  Zn  Zn167  1  0.56019811  0.31474925  0.06228991  1
  Zn  Zn168  1  0.57322214  0.31762678  0.56314881  1
  Zn  Zn169  1  0.56327810  0.81319812  0.06089812  1
  Zn  Zn170  1  0.56526051  0.81639830  0.56525421  1
  O  O171  1  0.11538842  0.11847863  0.11970766  1
  O  O172  1  0.11516864  0.12489842  0.61533487  1
  O  O173  1  0.12264939  0.61847355  0.12014102  1
  O  O174  1  0.12662391  0.62103726  0.61294399  1
  O  O175  1  0.61676559  0.12170254  0.11920061  1
  O  O176  1  0.62443343  0.11608174  0.61583170  1
  O  O177  1  0.61805420  0.62119568  0.11713599  1
  O  O178  1  0.62224125  0.61154085  0.63234419  1
  O  O179  1  0.39140734  0.37647377  0.36751010  1
  O  O180  1  0.38482910  0.38275154  0.88223654  1
  O  O181  1  0.37640382  0.88400784  0.38209609  1
  O  O182  1  0.37648653  0.88748687  0.87869902  1
  O  O183  1  0.88933077  0.38339553  0.37053927  1
  O  O184  1  0.88755427  0.37553638  0.88565196  1
  O  O185  1  0.88085800  0.86980221  0.37135275  1
  O  O186  1  0.88872903  0.88282886  0.86542119  1
  O  O187  1  0.25512483  0.00703509  0.36984909  1
  O  O188  1  0.25779409  0.00351217  0.86366599  1
  O  O189  1  0.26442862  0.50427407  0.36096604  1
  O  O190  1  0.25241934  0.51702591  0.87086616  1
  O  O191  1  0.75201083  -0.00004143  0.35808440  1
  O  O192  1  0.75906780  0.00266767  0.86693883  1
  O  O193  1  0.75979085  0.49139967  0.36258181  1
  O  O194  1  0.75151676  0.51418974  0.88380067  1
  O  O195  1  0.23770139  0.50452135  0.12965680  1
  O  O196  1  0.24305032  0.51354400  0.64519357  1
  O  O197  1  0.24950902  0.99238888  0.13380475  1
  O  O198  1  0.25626083  0.99144915  0.63627294  1
  O  O199  1  0.74658476  0.49406737  0.13235599  1
  O  O200  1  0.74596274  0.50074780  0.63261316  1
  O  O201  1  0.74655156  0.99469437  0.13025608  1
  O  O202  1  0.74271664  0.99803244  0.63038033  1
  O  O203  1  0.01224782  0.37189484  0.25616801  1
  O  O204  1  0.01237339  0.35599746  0.75856082  1
  O  O205  1  0.01122426  0.86725004  0.24455336  1
  O  O206  1  0.01237934  0.88222259  0.75693906  1
  O  O207  1  0.51741610  0.37466478  0.24681319  1
  O  O208  1  0.49360028  0.37508414  0.76263287  1
  O  O209  1  0.51226627  0.87875280  0.24585517  1
  O  O210  1  0.51116141  0.86975741  0.74763635  1
  O  O211  1  0.49438705  0.12734643  0.24167913  1
  O  O212  1  0.48728498  0.12204001  0.74903052  1
  O  O213  1  0.49536684  0.62582949  0.23524620  1
  O  O214  1  0.50204472  0.63214716  0.74315906  1
  O  O215  1  0.99288594  0.12106059  0.24241574  1
  O  O216  1  0.99534563  0.11762478  0.73937364  1
  O  O217  1  0.99239394  0.63367887  0.25003671  1
  O  O218  1  1.02467260  0.63997628  0.76968582  1
  O  O219  1  0.37732833  0.26198375  0.01131433  1
  O  O220  1  0.36300669  0.25765268  0.49358508  1
  O  O221  1  0.37054733  0.75933028  0.00515228  1
  O  O222  1  0.37342089  0.75647426  0.50359282  1
  O  O223  1  0.86499764  0.25465756  0.00364443  1
  O  O224  1  0.87225872  0.25526817  0.49995497  1
  O  O225  1  0.86531186  0.74571000  0.01463679  1
  O  O226  1  0.88103976  0.75446494  0.48660757  1
  O  O227  1  0.11751651  0.22954411  0.48304472  1
  O  O228  1  0.12411055  0.23183510  1.00901612  1
  O  O229  1  0.13475612  0.73996439  0.49672335  1
  O  O230  1  0.13040327  0.73919196  1.01015017  1
  O  O231  1  0.63398186  0.23783640  0.49973385  1
  O  O232  1  0.63045636  0.24449257  0.99909717  1
  O  O233  1  0.62038204  0.75574396  0.48268918  1
  O  O234  1  0.63441158  0.74187062  1.00442505  1
  O  O235  1  0.49406337  0.24018729  0.12641931  1
  O  O236  1  0.50731156  0.25391212  0.62551767  1
  O  O237  1  0.49482624  0.74308459  0.12461873  1
  O  O238  1  0.49905770  0.74875384  0.63497446  1
  O  O239  1  0.99549137  0.23441590  0.12751270  1
  O  O240  1  1.00113921  0.24393663  0.63134662  1
  O  O241  1  0.98978490  0.74870709  0.13072560  1
  O  O242  1  0.98395047  0.75310197  0.63482612  1
  O  O243  1  0.00786377  0.25326212  0.36973141  1
  O  O244  1  0.00091530  0.25685979  0.88728030  1
  O  O245  1  0.00756160  0.75989400  0.37403565  1
  O  O246  1  0.00016655  0.75773837  0.88333951  1
  O  O247  1  0.50375006  0.26718523  0.37140219  1
  O  O248  1  0.50131144  0.26718214  0.88174269  1
  O  O249  1  0.51151428  0.75803770  0.36947122  1
  O  O250  1  0.49724667  0.75308375  0.85788914  1
  O  O251  1  0.24010369  0.11257206  0.48919144  1
  O  O252  1  0.23125000  0.11661728  1.00190114  1
  O  O253  1  0.25630514  0.63716714  0.50904074  1
  O  O254  1  0.24397893  0.63100776  0.99506605  1
  O  O255  1  0.73700286  0.11901850  0.49391042  1
  O  O256  1  0.74322236  0.13350949  1.00013450  1
  O  O257  1  0.73828682  0.62518941  0.49240800  1
  O  O258  1  0.74173754  0.63396791  0.99724222  1
  O  O259  1  0.26487497  0.38255382  -0.00549817  1
  O  O260  1  0.21889453  0.35587606  0.50539331  1
  O  O261  1  0.25308753  0.87358203  0.00375738  1
  O  O262  1  0.25459120  0.87061402  0.50831599  1
  O  O263  1  0.75323733  0.36954719  0.00343150  1
  O  O264  1  0.76164416  0.36652663  0.50204728  1
  O  O265  1  0.74309703  0.86989024  0.00904139  1
  O  O266  1  0.74621583  0.88965189  0.50751102  1
  O  O267  1  0.12503654  0.49195468  0.24166646  1
  O  O268  1  0.13150405  0.49361340  0.74487922  1
  O  O269  1  0.12968973  0.98973868  0.25082708  1
  O  O270  1  0.13686707  0.98960954  0.75359391  1
  O  O271  1  0.63362650  0.49450195  0.24501018  1
  O  O272  1  0.62242717  0.48445187  0.73985333  1
  O  O273  1  0.63068727  0.99656536  0.24265986  1
  O  O274  1  0.63227197  0.99916609  0.74077599  1
  O  O275  1  0.37123892  0.00718387  0.25716328  1
  O  O276  1  0.37081636  0.00366182  0.75649720  1
  O  O277  1  0.37560516  0.51843644  0.23836857  1
  O  O278  1  0.36426381  0.51177528  0.76161076  1
  O  O279  1  0.86601162  0.00502393  0.25070808  1
  O  O280  1  0.86976309  0.00652471  0.75647250  1
  O  O281  1  0.86902032  0.50645985  0.25213505  1
  O  O282  1  0.92102608  0.50266984  0.76923559  1
  O  O283  1  0.11950377  0.36120977  0.36517150  1
  O  O284  1  0.11873891  0.37681995  0.86204849  1
  O  O285  1  0.13211777  0.86312136  0.36450436  1
  O  O286  1  0.11288449  0.87563607  0.86720591  1
  O  O287  1  0.62067959  0.38261810  0.36319808  1
  O  O288  1  0.61512166  0.37694287  0.86132331  1
  O  O289  1  0.62262866  0.87016916  0.36292534  1
  O  O290  1  0.62433463  0.88376705  0.85951503  1
  O  O291  1  0.38136955  0.13186188  0.12879002  1
  O  O292  1  0.38109187  0.12033885  0.64148802  1
  O  O293  1  0.38364766  0.63365999  0.12649732  1
  O  O294  1  0.39098505  0.62995720  0.63340807  1
  O  O295  1  0.88192998  0.12350658  0.13544801  1
  O  O296  1  0.88438204  0.11994706  0.63749173  1
  O  O297  1  0.87674405  0.63188321  0.13459140  1
  O  O298  1  0.88632731  0.59834837  0.62633370  1
  O  O299  1  0.26157710  0.24372837  0.11926404  1
  O  O300  1  0.25368634  0.23645432  0.60943026  1
  O  O301  1  0.25641376  0.75738019  0.11829217  1
  O  O302  1  0.26186561  0.75799863  0.61869530  1
  O  O303  1  0.74990996  0.25789639  0.11380279  1
  O  O304  1  0.75265767  0.23851995  0.59978383  1
  O  O305  1  0.75429282  0.75860763  0.11779926  1
  O  O306  1  0.74340178  0.77130086  0.60907946  1
  O  O307  1  0.24189741  0.23521359  0.36772850  1
  O  O308  1  0.26080750  0.24109589  0.89127025  1
  O  O309  1  0.24377868  0.75305278  0.38620507  1
  O  O310  1  0.26024473  0.74152816  0.88231352  1
  O  O311  1  0.75415535  0.24770982  0.39306024  1
  O  O312  1  0.74684076  0.24774256  0.88787942  1
  O  O313  1  0.73363438  0.75444582  0.36593346  1
  O  O314  1  0.75553421  0.74559936  0.88805974  1
  O  O315  1  0.00616417  0.11477318  0.00644845  1
  O  O316  1  0.00441919  0.11505769  0.50726972  1
  O  O317  1  0.00896047  0.61786247  0.00171970  1
  O  O318  1  0.01659983  0.62121155  0.49630725  1
  O  O319  1  0.50220808  0.12327953  0.00550351  1
  O  O320  1  0.51148612  0.12256799  0.50013283  1
  O  O321  1  0.50601252  0.62301597  0.00699493  1
  O  O322  1  0.50902746  0.62930990  0.51780138  1
  O  O323  1  0.50709523  0.37532737  0.48773212  1
  O  O324  1  0.49259535  0.38377470  0.99457853  1
  O  O325  1  0.49329985  0.88692632  0.50221327  1
  O  O326  1  0.49322780  0.88263831  0.99840414  1
  O  O327  1  1.01019049  0.36981965  0.48440825  1
  O  O328  1  0.99703864  0.37721620  0.99875961  1
  O  O329  1  0.99949893  0.87433161  0.49852083  1
  O  O330  1  1.00434069  0.88734203  0.99370092  1
  O  O331  1  0.49522220  0.48520568  0.37067308  1
  O  O332  1  0.49693013  0.49241386  0.87981760  1
  O  O333  1  0.49493426  0.99940432  0.38623028  1
  O  O334  1  0.49211528  0.99736099  0.88122851  1
  O  O335  1  0.99273683  0.49106757  0.36808130  1
  O  O336  1  1.01280110  0.48515930  0.89683741  1
  O  O337  1  0.99722166  0.99815309  0.38829067  1
  O  O338  1  0.99392858  0.99380697  0.88158950  1
  O  O339  1  -0.00237765  0.00609845  0.11677328  1
  O  O340  1  -0.00148475  0.00659708  0.61373471  1
  O  O341  1  0.01064165  0.50047015  0.11507490  1
  O  O342  1  0.02111998  0.49556040  0.62233612  1
  O  O343  1  0.50198898  0.01320923  0.11795967  1
  O  O344  1  0.50751636  0.00411422  0.61434987  1
  O  O345  1  0.50630441  0.50907665  0.11762083  1
  O  O346  1  0.50342288  0.51282633  0.62790010  1
  O  O347  1  0.23638240  0.37087378  0.25087063  1
  O  O348  1  0.24224548  0.38760737  0.76370325  1
  O  O349  1  0.24467653  0.87852138  0.24607038  1
  O  O350  1  0.24658706  0.88197617  0.74401895  1
  O  O351  1  0.74093062  0.38028512  0.24668077  1
  O  O352  1  0.74737932  0.38157740  0.76155666  1
  O  O353  1  0.73807554  0.88344970  0.23660306  1
  O  O354  1  0.74465601  0.88877675  0.74548232  1
  O  O355  1  0.25549694  0.11733634  0.25616936  1
  O  O356  1  0.26111504  0.11636906  0.74933206  1
  O  O357  1  0.26791114  0.63131334  0.24578732  1
  O  O358  1  0.25611025  0.62557130  0.75970811  1
  O  O359  1  0.75575779  0.11841770  0.24808359  1
  O  O360  1  0.75792342  0.11688092  0.74772094  1
  O  O361  1  0.75696170  0.61383544  0.24242642  1
  O  O362  1  0.73317890  0.62486050  0.77165660  1
  O  O363  1  0.36934081  0.12238002  0.37245702  1
  O  O364  1  0.37710367  0.11467959  0.86463417  1
  O  O365  1  0.38984174  0.62729122  0.35915203  1
  O  O366  1  0.37118636  0.62207204  0.87298916  1
  O  O367  1  0.87467727  0.12150742  0.36158365  1
  O  O368  1  0.87574207  0.11767434  0.86163607  1
  O  O369  1  0.87212489  0.61656082  0.36051253  1
  O  O370  1  0.85788952  0.62392245  0.87940407  1
  O  O371  1  0.12180775  0.38263548  0.13257044  1
  O  O372  1  0.12786691  0.38220081  0.64384872  1
  O  O373  1  0.13228062  0.87466932  0.13712715  1
  O  O374  1  0.13948829  0.86840508  0.63295156  1
  O  O375  1  0.63140146  0.38161091  0.13103704  1
  O  O376  1  0.63291995  0.38521599  0.63846328  1
  O  O377  1  0.63064172  0.88324608  0.12830598  1
  O  O378  1  0.63432429  0.88948320  0.62989995  1
  O  O379  1  0.12224434  0.25250430  0.25618758  1
  O  O380  1  0.14310730  0.26171640  0.75036572  1
  O  O381  1  0.12066916  0.75226939  0.25977614  1
  O  O382  1  0.13758352  0.76156728  0.75497581  1
  O  O383  1  0.62763427  0.26516244  0.24648981  1
  O  O384  1  0.63612861  0.26825283  0.74997166  1
  O  O385  1  0.62289684  0.75965531  0.25208920  1
  O  O386  1  0.62242484  0.76342879  0.74105291  1
  O  O387  1  0.37685479  0.24457936  0.24223498  1
  O  O388  1  0.37426421  0.23901031  0.75445404  1
  O  O389  1  0.37943493  0.74244844  0.24323169  1
  O  O390  1  0.38431734  0.74517289  0.74312463  1
  O  O391  1  0.87403932  0.24037193  0.24728874  1
  O  O392  1  0.88091901  0.24782398  0.74641113  1
  O  O393  1  0.87650139  0.74265286  0.24148816  1
  O  O394  1  0.84553003  0.73635220  0.72620688  1
  O  O395  1  0.34185374  0.48070832  0.49730802  1
  O  O396  1  0.38169813  0.49735345  0.99640002  1
  O  O397  1  0.38215575  0.99997457  0.49754050  1
  O  O398  1  0.37767363  0.99793343  0.99209127  1
  O  O399  1  0.87169589  0.49236468  0.48563828  1
  O  O400  1  0.88511765  0.49414364  1.00061371  1
  O  O401  1  0.88573938  1.00364523  0.49533880  1
  O  O402  1  0.88132405  1.00691862  0.98529770  1
  O  O403  1  0.11477481  0.00683568  0.00301253  1
  O  O404  1  0.11473286  0.00893262  0.49396046  1
  O  O405  1  0.12437065  0.51098158  0.00826611  1
  O  O406  1  0.13876872  0.51372821  0.50958759  1
  O  O407  1  0.61976142  0.00872293  0.00457336  1
  O  O408  1  0.61639598  0.00776209  0.50442083  1
  O  O409  1  0.61981298  0.50664791  0.00702098  1
  O  O410  1  0.63149562  0.49503617  0.52106307  1
  O  O411  1  0.38141542  0.36711253  0.11815820  1
  O  O412  1  0.35020976  0.36624684  0.62326588  1
  O  O413  1  0.36932891  0.87179358  0.11981800  1
  O  O414  1  0.36721008  0.87159930  0.62051788  1
  O  O415  1  0.86803867  0.37448511  0.12079373  1
  O  O416  1  0.89903814  0.37629893  0.63343639  1
  O  O417  1  0.86272436  0.86583847  0.13157516  1
  O  O418  1  0.85461437  0.88371643  0.62420282  1
  O  O419  1  0.13269236  0.12735680  0.37762289  1
  O  O420  1  0.12338318  0.11941328  0.89022868  1
  O  O421  1  0.12477350  0.63690924  0.38471933  1
  O  O422  1  0.13538878  0.63830998  0.88634062  1
  O  O423  1  0.62670210  0.12130423  0.38630718  1
  O  O424  1  0.62663212  0.12779973  0.88150879  1
  O  O425  1  0.61515184  0.64038302  0.37246296  1
  O  O426  1  0.62900528  0.61983388  0.88953760  1
