# generated using pymatgen
data_V85Zn86O256
_symmetry_space_group_name_H-M   'P 1'
_cell_length_a   16.92848459
_cell_length_b   16.94176540
_cell_length_c   16.94227170
_cell_angle_alpha   89.97868136
_cell_angle_beta   90.02899967
_cell_angle_gamma   90.06466484
_symmetry_Int_Tables_number   1
_chemical_formula_structural   V85Zn86O256
_chemical_formula_sum   'V85 Zn86 O256'
_cell_volume   4859.01260867
_cell_formula_units_Z   1
loop_
 _symmetry_equiv_pos_site_id
 _symmetry_equiv_pos_as_xyz
  1  'x, y, z'
loop_
 _atom_site_type_symbol
 _atom_site_label
 _atom_site_symmetry_multiplicity
 _atom_site_fract_x
 _atom_site_fract_y
 _atom_site_fract_z
 _atom_site_occupancy
  V  V0  1  -0.00489075  0.87619140  0.37364370  1
  V  V1  1  -0.00345392  0.24660518  0.75201492  1
  V  V2  1  0.64107533  0.74987183  0.88047397  1
  V  V3  1  0.24306141  0.12326130  0.37922394  1
  V  V4  1  0.00441902  0.74894829  0.75685509  1
  V  V5  1  0.37770178  0.12293722  0.24927600  1
  V  V6  1  0.61962563  0.25368740  0.86382240  1
  V  V7  1  0.50090014  0.75186568  0.75403542  1
  V  V8  1  0.37940833  0.13120907  0.74998151  1
  V  V9  1  0.64500806  0.62672369  -0.00195535  1
  V  V10  1  0.49669039  0.87150035  0.38254166  1
  V  V11  1  0.37971391  0.24939940  0.61955049  1
  V  V12  1  0.11860303  0.24885074  0.37132405  1
  V  V13  1  0.00291791  0.38171702  0.87738360  1
  V  V14  1  0.37137919  -0.00777618  0.38151132  1
  V  V15  1  0.87248673  0.74620969  0.61835378  1
  V  V16  1  -0.00592573  0.12974852  0.13962500  1
  V  V17  1  0.74710811  0.49943549  0.25244222  1
  V  V18  1  0.75804514  0.11998943  0.86984713  1
  V  V19  1  0.37691058  0.49943452  0.38080472  1
  V  V20  1  0.24904980  0.50084256  0.25041724  1
  V  V21  1  0.38065357  0.24509978  0.12542398  1
  V  V22  1  0.49966259  0.62594317  0.11894183  1
  V  V23  1  0.12704128  0.00357608  0.62372458  1
  V  V24  1  0.87380514  0.87853883  0.49882437  1
  V  V25  1  0.12037698  0.50330633  0.11731656  1
  V  V26  1  0.87284959  0.24363016  0.62987331  1
  V  V27  1  0.00321174  0.49698554  0.49951705  1
  V  V28  1  0.50457390  0.75637150  0.25042769  1
  V  V29  1  0.76585171  0.11487658  0.37015040  1
  V  V30  1  0.24567244  0.00016816  0.24967107  1
  V  V31  1  0.25039960  0.00201321  0.75120287  1
  V  V32  1  0.63446503  0.75265482  0.37677041  1
  V  V33  1  0.75681246  0.00248245  0.23687435  1
  V  V34  1  0.74775203  0.37355119  0.12440151  1
  V  V35  1  0.00258770  0.12464932  0.62745236  1
  V  V36  1  0.73518966  0.49166851  0.74670632  1
  V  V37  1  0.25202141  0.87504563  0.62381871  1
  V  V38  1  0.37344374  0.62127364  0.74953382  1
  V  V39  1  0.24532884  0.87649405  0.12228066  1
  V  V40  1  0.12459206  0.24490813  0.87537931  1
  V  V41  1  0.25363004  0.37841536  0.62606410  1
  V  V42  1  0.87946507  0.25358236  0.14053399  1
  V  V43  1  0.11919770  0.00256529  0.12285715  1
  V  V44  1  0.74833351  0.24505368  0.49863518  1
  V  V45  1  0.37493425  0.62540304  0.24876197  1
  V  V46  1  0.13070372  0.50033989  0.63099422  1
  V  V47  1  0.00128216  0.62379652  0.62643311  1
  V  V48  1  0.25616660  0.75506756  0.49735450  1
  V  V49  1  0.37413559  0.50285883  0.87408132  1
  V  V50  1  0.25094842  0.12988891  0.87563046  1
  V  V51  1  0.62174216  0.37083898  0.25049976  1
  V  V52  1  0.24273251  0.24707215  0.50122249  1
  V  V53  1  0.12014294  0.74891662  0.37677085  1
  V  V54  1  0.37879482  0.75524753  0.62240947  1
  V  V55  1  0.13342082  0.37614710  0.75143908  1
  V  V56  1  0.74920242  0.87110805  0.62015353  1
  V  V57  1  0.24713687  0.62815855  0.87173882  1
  V  V58  1  0.87216270  0.50302257  0.37687410  1
  V  V59  1  0.62098330  0.23755524  0.37239077  1
  V  V60  1  0.75242893  0.85296012  0.12506565  1
  V  V61  1  0.24920255  0.62604193  0.37490483  1
  V  V62  1  0.87814559  0.37847291  0.00080166  1
  V  V63  1  0.50115907  0.12350350  0.62512159  1
  V  V64  1  0.24886545  0.25024535  -0.00049037  1
  V  V65  1  0.87526764  0.37202458  0.50483754  1
  V  V66  1  0.37694156  0.37790959  -0.00378363  1
  V  V67  1  0.74685111  0.24946367  -0.00137281  1
  V  V68  1  0.25190416  0.37518250  0.12713328  1
  V  V69  1  0.11398590  0.37382914  0.24775361  1
  V  V70  1  0.50366747  0.88260027  0.88596248  1
  V  V71  1  0.12716694  0.87297145  0.75886386  1
  V  V72  1  0.24520728  0.75377698  -0.00761798  1
  V  V73  1  0.00261989  0.00477628  0.49766131  1
  V  V74  1  0.61375059  0.12008485  0.00768259  1
  V  V75  1  0.62868975  0.87865180  0.75290006  1
  V  V76  1  0.11544374  0.62627548  -0.00233130  1
  V  V77  1  -0.01556438  0.00514042  -0.00369998  1
  V  V78  1  0.87083513  0.85678695  -0.00186794  1
  V  V79  1  0.86886056  0.62293737  0.75278843  1
  V  V80  1  0.51961694  0.50348827  0.50594937  1
  V  V81  1  -0.00346684  0.74192702  0.23877311  1
  V  V82  1  0.87096226  0.50114518  0.87347192  1
  V  V83  1  0.37238837  0.75155196  0.12364669  1
  V  V84  1  0.62742466  0.00030868  0.62415139  1
  Zn  Zn85  1  0.51048295  0.37977839  0.86807888  1
  Zn  Zn86  1  -0.00552557  0.37031202  0.36693612  1
  Zn  Zn87  1  0.62228583  0.49846404  0.12360617  1
  Zn  Zn88  1  0.37729636  0.88360218  0.00135329  1
  Zn  Zn89  1  0.51224581  0.62405481  0.62464321  1
  Zn  Zn90  1  0.74697057  0.62529255  0.37859394  1
  Zn  Zn91  1  0.50163378  0.50247507  0.00018324  1
  Zn  Zn92  1  0.11977022  0.12675835  0.00227084  1
  Zn  Zn93  1  0.11962277  0.87366804  0.24842104  1
  Zn  Zn94  1  -0.00409034  0.88158494  0.87320076  1
  Zn  Zn95  1  0.76713446  0.00275987  0.74841130  1
  Zn  Zn96  1  0.49505754  -0.00475092  0.50176838  1
  Zn  Zn97  1  0.49897561  0.37329953  0.37540822  1
  Zn  Zn98  1  0.73270750  0.37351532  0.62718319  1
  Zn  Zn99  1  0.62277880  0.11836005  0.49434174  1
  Zn  Zn100  1  0.61876474  -0.00945809  0.12321158  1
  Zn  Zn101  1  0.86836213  0.63537791  0.23481935  1
  Zn  Zn102  1  0.38629413  0.00891655  0.88197560  1
  Zn  Zn103  1  0.37672409  0.37597503  0.49836324  1
  Zn  Zn104  1  0.67227104  0.66233160  0.53338996  1
  Zn  Zn105  1  0.12617688  0.62400356  0.50138021  1
  Zn  Zn106  1  0.49931815  0.24738010  0.24895778  1
  Zn  Zn107  1  0.18705205  0.18743928  0.18903098  1
  Zn  Zn108  1  0.18757737  0.18797805  0.68920177  1
  Zn  Zn109  1  0.18174911  0.68857099  0.18528147  1
  Zn  Zn110  1  0.18841863  0.68936896  0.68684886  1
  Zn  Zn111  1  0.69170859  0.18432550  0.18867389  1
  Zn  Zn112  1  0.68655361  0.18749050  0.68786588  1
  Zn  Zn113  1  0.68211913  0.68377825  0.19275169  1
  Zn  Zn114  1  0.69146049  0.68982730  0.70230799  1
  Zn  Zn115  1  0.30962182  0.31207605  0.31287566  1
  Zn  Zn116  1  0.36676671  0.35237351  0.76809146  1
  Zn  Zn117  1  0.31136167  0.81370582  0.30849068  1
  Zn  Zn118  1  0.31733476  0.81505341  0.81333387  1
  Zn  Zn119  1  0.80831071  0.31548014  0.31797635  1
  Zn  Zn120  1  0.81037681  0.31301711  0.81405316  1
  Zn  Zn121  1  0.81644999  0.81972481  0.30534569  1
  Zn  Zn122  1  0.81867027  0.81935203  0.80884089  1
  Zn  Zn123  1  0.18770265  0.43419680  0.43791692  1
  Zn  Zn124  1  0.19305098  0.44107559  0.93499800  1
  Zn  Zn125  1  0.18318547  0.93433794  0.43886536  1
  Zn  Zn126  1  0.18491916  0.94502475  0.93806195  1
  Zn  Zn127  1  0.68771576  0.42893166  0.43635978  1
  Zn  Zn128  1  0.68947771  0.44032605  0.93571263  1
  Zn  Zn129  1  0.68328230  0.93516202  0.43368533  1
  Zn  Zn130  1  0.69203165  0.94005751  0.94430322  1
  Zn  Zn131  1  0.31476010  0.06174465  0.05959227  1
  Zn  Zn132  1  0.31049900  0.06430296  0.56031525  1
  Zn  Zn133  1  0.30833201  0.56459174  0.05936558  1
  Zn  Zn134  1  0.31482684  0.56783062  0.56358439  1
  Zn  Zn135  1  0.81194224  0.07163157  0.06295927  1
  Zn  Zn136  1  0.81422878  0.06127398  0.56176319  1
  Zn  Zn137  1  0.81612917  0.56077741  0.06639491  1
  Zn  Zn138  1  0.81162106  0.55796725  0.56550170  1
  Zn  Zn139  1  0.43813738  0.43906362  0.18830832  1
  Zn  Zn140  1  0.54718630  0.42537636  0.68819600  1
  Zn  Zn141  1  0.43335050  0.93664790  0.18648806  1
  Zn  Zn142  1  0.43813285  0.93942883  0.69373797  1
  Zn  Zn143  1  0.92551110  0.46862269  0.17257347  1
  Zn  Zn144  1  0.93857202  0.43378094  0.68900876  1
  Zn  Zn145  1  0.93056151  0.93571300  0.18694992  1
  Zn  Zn146  1  0.94085656  0.93338803  0.68373727  1
  Zn  Zn147  1  0.06005965  0.06086061  0.31267797  1
  Zn  Zn148  1  -0.06271680  0.06558414  0.81600612  1
  Zn  Zn149  1  0.06194926  0.56060657  0.31214456  1
  Zn  Zn150  1  0.06296657  0.56302325  0.81349671  1
  Zn  Zn151  1  0.54960041  0.03574465  0.27846760  1
  Zn  Zn152  1  0.57022906  0.06755237  0.81105263  1
  Zn  Zn153  1  0.56233729  0.56712153  0.31521566  1
  Zn  Zn154  1  0.56068746  0.56866884  0.81833765  1
  Zn  Zn155  1  0.43529242  0.18195996  0.43702991  1
  Zn  Zn156  1  0.43937634  0.19183166  0.93726212  1
  Zn  Zn157  1  0.44061457  0.68426144  0.43900715  1
  Zn  Zn158  1  0.43633774  0.69605996  0.93761905  1
  Zn  Zn159  1  0.93975628  0.18598795  0.43998111  1
  Zn  Zn160  1  0.93706542  0.19409921  0.94687251  1
  Zn  Zn161  1  0.93290958  0.68426451  0.43696589  1
  Zn  Zn162  1  0.93680065  0.68605785  0.93409359  1
  Zn  Zn163  1  0.06078463  0.31514953  0.06387830  1
  Zn  Zn164  1  0.06395492  0.31239203  0.56295388  1
  Zn  Zn165  1  0.06071016  0.81451462  0.05639231  1
  Zn  Zn166  1  0.06316358  0.81330847  0.56418985  1
  Zn  Zn167  1  0.56135757  0.31071930  0.05892327  1
  Zn  Zn168  1  0.56018523  0.31102809  0.55376377  1
  Zn  Zn169  1  0.56913388  0.80868116  0.06353894  1
  Zn  Zn170  1  0.56101214  0.81394271  0.56099432  1
  O  O171  1  0.11712119  0.11918119  0.12410289  1
  O  O172  1  0.11790227  0.11507551  0.63141158  1
  O  O173  1  0.13165741  0.61691319  0.10959736  1
  O  O174  1  0.12185688  0.61645989  0.62374503  1
  O  O175  1  0.62962863  0.12912609  0.10943583  1
  O  O176  1  0.61815078  0.11796859  0.62343501  1
  O  O177  1  0.61801146  0.62500238  0.11347393  1
  O  O178  1  0.62496810  0.63835652  0.62872222  1
  O  O179  1  0.37497212  0.38469995  0.37529547  1
  O  O180  1  0.36634479  0.38851566  0.88363531  1
  O  O181  1  0.37839991  0.88232272  0.37150963  1
  O  O182  1  0.39370680  0.87721023  0.87457869  1
  O  O183  1  0.87641812  0.37854303  0.38995531  1
  O  O184  1  0.88353838  0.38013290  0.87941725  1
  O  O185  1  0.88557941  0.86822312  0.38563094  1
  O  O186  1  0.87699353  0.87363963  0.89152602  1
  O  O187  1  0.24971453  0.00435351  0.37200093  1
  O  O188  1  0.24538102  0.01749217  0.86984931  1
  O  O189  1  0.25478167  0.50555049  0.37061616  1
  O  O190  1  0.26294351  0.51460079  0.87784494  1
  O  O191  1  0.75155128  0.01376932  0.38086132  1
  O  O192  1  0.74571387  0.01706494  0.87372902  1
  O  O193  1  0.75561510  0.49804046  0.37175464  1
  O  O194  1  0.76064409  0.49481789  0.86034854  1
  O  O195  1  0.24701748  0.49206676  0.12985774  1
  O  O196  1  0.24189389  0.49237463  0.61668852  1
  O  O197  1  0.23924395  0.99461461  0.12683337  1
  O  O198  1  0.24681554  0.99511327  0.62822120  1
  O  O199  1  0.74286816  0.49016416  0.13588866  1
  O  O200  1  0.75421582  0.49487669  0.64258270  1
  O  O201  1  0.74788697  1.00526120  0.13135705  1
  O  O202  1  0.74348456  0.99454464  0.62649455  1
  O  O203  1  0.01316997  0.38449752  0.24722681  1
  O  O204  1  0.00901435  0.36516006  0.75669389  1
  O  O205  1  -0.00127078  0.86738395  0.25873081  1
  O  O206  1  0.01011032  0.86621355  0.74929480  1
  O  O207  1  0.51074434  0.37369017  0.25202826  1
  O  O208  1  0.47503354  0.38400923  0.76074343  1
  O  O209  1  0.48712399  0.85891595  0.26069814  1
  O  O210  1  0.50780846  0.86677431  0.75755253  1
  O  O211  1  0.47971265  0.13026652  0.26382647  1
  O  O212  1  0.49320791  0.12122174  0.73709709  1
  O  O213  1  0.49548162  0.63297300  0.23893392  1
  O  O214  1  0.49306619  0.63841642  0.75146245  1
  O  O215  1  0.99910161  0.12233110  0.23903310  1
  O  O216  1  0.99918133  0.14069004  0.74827945  1
  O  O217  1  1.00386663  0.64015523  0.25386541  1
  O  O218  1  0.99375935  0.63005430  0.74534433  1
  O  O219  1  0.36856295  0.25690620  0.00555614  1
  O  O220  1  0.36226540  0.24822464  0.50379208  1
  O  O221  1  0.36467101  0.75823157  0.00773703  1
  O  O222  1  0.36826784  0.74573695  0.50932203  1
  O  O223  1  0.86346879  0.26303336  0.00374223  1
  O  O224  1  0.87003719  0.25468545  0.50659609  1
  O  O225  1  0.88155537  0.75798059  0.00272590  1
  O  O226  1  0.88480417  0.75928625  0.51256124  1
  O  O227  1  0.13571658  0.25574958  0.49144856  1
  O  O228  1  0.13096282  0.25266745  0.99232463  1
  O  O229  1  0.13005645  0.74831411  0.49001269  1
  O  O230  1  0.13177081  0.73811472  1.00287223  1
  O  O231  1  0.63350682  0.24374469  0.49066663  1
  O  O232  1  0.63521617  0.24385682  0.99661382  1
  O  O233  1  0.62305800  0.75485848  0.48339049  1
  O  O234  1  0.62621783  0.73512559  0.99465075  1
  O  O235  1  0.48395391  0.25463453  0.12638998  1
  O  O236  1  0.48654257  0.23960152  0.61354551  1
  O  O237  1  0.49518964  0.74739159  0.13224928  1
  O  O238  1  0.49306855  0.75260663  0.63376153  1
  O  O239  1  0.99119885  0.24279430  0.12041657  1
  O  O240  1  0.99594037  0.24595731  0.63208048  1
  O  O241  1  1.01024850  0.75440041  0.14118163  1
  O  O242  1  0.99416328  0.74304138  0.63199667  1
  O  O243  1  0.01424886  0.25132883  0.38169751  1
  O  O244  1  0.00590849  0.25769339  0.87073378  1
  O  O245  1  0.00622702  0.75508050  0.37322252  1
  O  O246  1  -0.00308845  0.75321391  0.85969555  1
  O  O247  1  0.50731453  0.25066360  0.37556043  1
  O  O248  1  0.51580433  0.25221944  0.87681239  1
  O  O249  1  0.50294871  0.75360311  0.36874315  1
  O  O250  1  0.50816757  0.76031148  0.86942422  1
  O  O251  1  0.24819723  0.13261224  0.49090488  1
  O  O252  1  0.24559768  0.13270990  0.99265385  1
  O  O253  1  0.24833979  0.63774698  0.49377240  1
  O  O254  1  0.24651530  0.63614780  0.98973093  1
  O  O255  1  0.75043335  0.13227044  0.49185659  1
  O  O256  1  0.74568877  0.13446587  0.98943761  1
  O  O257  1  0.76767311  0.62864044  0.49151236  1
  O  O258  1  0.74352492  0.62283729  1.00393395  1
  O  O259  1  0.25875716  0.37125356  0.00689267  1
  O  O260  1  0.25108092  0.36645369  0.50923050  1
  O  O261  1  0.24517572  0.87003700  0.00536791  1
  O  O262  1  0.24644733  0.86204239  0.50518892  1
  O  O263  1  0.75402228  0.36859806  0.00484057  1
  O  O264  1  0.75703685  0.36127101  0.50310236  1
  O  O265  1  0.76384115  0.87379098  0.00690276  1
  O  O266  1  0.75855720  0.87998563  0.51082325  1
  O  O267  1  0.13227789  0.49587297  0.24172829  1
  O  O268  1  0.12252418  0.49370943  0.73857710  1
  O  O269  1  0.12648070  0.99748475  0.23777017  1
  O  O270  1  0.13515201  0.98845738  0.73561738  1
  O  O271  1  0.63249856  0.49173447  0.25425944  1
  O  O272  1  0.63258834  0.50121998  0.75594618  1
  O  O273  1  0.65473317  0.99338596  0.25862944  1
  O  O274  1  0.62827217  0.99526069  0.73798498  1
  O  O275  1  0.36252787  0.00584612  0.25952574  1
  O  O276  1  0.36860096  0.01327520  0.75519475  1
  O  O277  1  0.37044871  0.50562280  0.25945884  1
  O  O278  1  0.37352165  0.51979562  0.75862624  1
  O  O279  1  0.85801624  -0.00717163  0.25510047  1
  O  O280  1  0.88018396  -0.00273167  0.75012836  1
  O  O281  1  0.85685224  0.47842983  0.26667352  1
  O  O282  1  0.87451564  0.50544396  0.75586195  1
  O  O283  1  0.12435295  0.36809897  0.36447066  1
  O  O284  1  0.12242651  0.37014342  0.87139935  1
  O  O285  1  0.11324160  0.86592824  0.37407794  1
  O  O286  1  0.12253973  0.88176353  0.86188485  1
  O  O287  1  0.62564661  0.35867738  0.36639786  1
  O  O288  1  0.62639347  0.35947384  0.88238210  1
  O  O289  1  0.61211241  0.86452479  0.37438059  1
  O  O290  1  0.62099519  0.87065318  0.87572144  1
  O  O291  1  0.36413784  0.13437584  0.13552752  1
  O  O292  1  0.38062192  0.12779683  0.62970732  1
  O  O293  1  0.37964215  0.63110992  0.12828845  1
  O  O294  1  0.37552450  0.63797549  0.63451704  1
  O  O295  1  0.88179485  0.14129815  0.12276207  1
  O  O296  1  0.88284258  0.13740839  0.62009963  1
  O  O297  1  0.89257301  0.57712328  0.14281739  1
  O  O298  1  0.88135306  0.62953068  0.63324697  1
  O  O299  1  0.25635891  0.25843742  0.12057056  1
  O  O300  1  0.25366774  0.25299698  0.61633653  1
  O  O301  1  0.25028940  0.75905800  0.11736373  1
  O  O302  1  0.25701660  0.75458973  0.61660124  1
  O  O303  1  0.75759840  0.25482812  0.11822058  1
  O  O304  1  0.75720625  0.24776903  0.61779911  1
  O  O305  1  0.75267815  0.75414964  0.13297230  1
  O  O306  1  0.76027352  0.75812219  0.63031016  1
  O  O307  1  0.24198859  0.24294180  0.38165006  1
  O  O308  1  0.24249553  0.24035867  0.87849795  1
  O  O309  1  0.24306230  0.74815207  0.37987123  1
  O  O310  1  0.25424959  0.74831868  0.88620858  1
  O  O311  1  0.74557074  0.24001261  0.38154535  1
  O  O312  1  0.74385037  0.24435697  0.88167508  1
  O  O313  1  0.73637654  0.75691123  0.36412720  1
  O  O314  1  0.73976710  0.75432673  0.86504114  1
  O  O315  1  -0.00126390  0.11653256  0.00862365  1
  O  O316  1  -0.00199532  0.11093097  0.50584081  1
  O  O317  1  0.01663890  0.62641033  -0.00775431  1
  O  O318  1  -0.00057231  0.61151210  0.50580146  1
  O  O319  1  0.51490014  0.12951675  -0.00264380  1
  O  O320  1  0.50006609  0.11762347  0.51111367  1
  O  O321  1  0.49781205  0.62990690  0.01254432  1
  O  O322  1  0.49769465  0.60859740  0.50223788  1
  O  O323  1  0.49618395  0.39055362  0.49411907  1
  O  O324  1  0.48688172  0.37724083  0.99622130  1
  O  O325  1  0.49520490  0.87530518  0.48754130  1
  O  O326  1  0.50278304  0.87005497  0.98852392  1
  O  O327  1  0.99416053  0.38369431  0.50094489  1
  O  O328  1  0.99073810  0.36921506  0.98902515  1
  O  O329  1  0.99462806  0.88207194  0.49554191  1
  O  O330  1  0.98797801  0.88620854  1.00075542  1
  O  O331  1  0.49256630  0.50087393  0.38206082  1
  O  O332  1  0.48623941  0.50555761  0.88141010  1
  O  O333  1  0.48923172  0.98831563  0.37145044  1
  O  O334  1  0.50686274  0.98540016  0.86706444  1
  O  O335  1  0.99391976  0.49484282  0.38303943  1
  O  O336  1  0.99396266  0.48651922  0.86861411  1
  O  O337  1  1.00824067  0.98950924  0.38540573  1
  O  O338  1  1.00137898  1.00325663  0.89339805  1
  O  O339  1  0.00202506  0.00653822  0.11965296  1
  O  O340  1  0.00974419  0.00416913  0.61919456  1
  O  O341  1  0.02376582  0.48297069  0.11592741  1
  O  O342  1  0.00799461  0.50248926  0.61944609  1
  O  O343  1  0.51753862  0.00415482  0.16963743  1
  O  O344  1  0.50674904  0.00418168  0.62462246  1
  O  O345  1  0.50186546  0.51108003  0.12317009  1
  O  O346  1  0.50291118  0.50366798  0.60931820  1
  O  O347  1  0.24480504  0.38146093  0.24202219  1
  O  O348  1  0.25302908  0.37140526  0.73298428  1
  O  O349  1  0.24373404  0.88100133  0.24005993  1
  O  O350  1  0.24602245  0.87977777  0.74640487  1
  O  O351  1  0.73604568  0.37654773  0.24652481  1
  O  O352  1  0.75263460  0.38837168  0.74766571  1
  O  O353  1  0.75767480  0.88154142  0.22876536  1
  O  O354  1  0.74602081  0.87909430  0.73795001  1
  O  O355  1  0.25449345  0.11898215  0.25789121  1
  O  O356  1  0.25670082  0.12215396  0.75662096  1
  O  O357  1  0.25354352  0.62111435  0.25445503  1
  O  O358  1  0.25708729  0.63836098  0.76406684  1
  O  O359  1  0.75411789  0.11600910  0.26034199  1
  O  O360  1  0.74835332  0.12552476  0.76590870  1
  O  O361  1  0.75158672  0.61318935  0.25489967  1
  O  O362  1  0.76397273  0.61236036  0.75060530  1
  O  O363  1  0.36028529  0.11835823  0.36944766  1
  O  O364  1  0.36945115  0.13041203  0.86667891  1
  O  O365  1  0.36888551  0.61973857  0.36821294  1
  O  O366  1  0.36842530  0.62569258  0.87115501  1
  O  O367  1  0.86391056  0.12841313  0.37663004  1
  O  O368  1  0.86294720  0.13285875  0.87928082  1
  O  O369  1  0.87760346  0.60920310  0.36704925  1
  O  O370  1  0.88255512  0.61085116  0.86732035  1
  O  O371  1  0.13831738  0.37692245  0.12843577  1
  O  O372  1  0.13272659  0.38099022  0.63072969  1
  O  O373  1  0.13134086  0.88254201  0.12409956  1
  O  O374  1  0.13409608  0.87912448  0.63179503  1
  O  O375  1  0.62829430  0.37402187  0.13170114  1
  O  O376  1  0.62040982  0.36817775  0.62691883  1
  O  O377  1  0.64808083  0.87508030  0.11167211  1
  O  O378  1  0.63261025  0.87928098  0.62858312  1
  O  O379  1  0.13145946  0.26104314  0.25908668  1
  O  O380  1  0.11971760  0.25713384  0.75773558  1
  O  O381  1  0.11850186  0.75160808  0.26208461  1
  O  O382  1  0.11666616  0.75963097  0.74309236  1
  O  O383  1  0.62236540  0.25332244  0.25406252  1
  O  O384  1  0.62781577  0.24825116  0.76499192  1
  O  O385  1  0.61305117  0.74971533  0.25832847  1
  O  O386  1  0.61785600  0.75840995  0.76134941  1
  O  O387  1  0.37104887  0.24287354  0.24205077  1
  O  O388  1  0.36986730  0.23693770  0.73478500  1
  O  O389  1  0.37831901  0.74220885  0.24277207  1
  O  O390  1  0.38396500  0.74582969  0.74555698  1
  O  O391  1  0.87324405  0.26450752  0.23924022  1
  O  O392  1  0.88313518  0.25910108  0.74074448  1
  O  O393  1  0.89073384  0.74795601  0.25217979  1
  O  O394  1  0.88149635  0.74223644  0.74125629  1
  O  O395  1  0.37242203  0.50159160  0.48756073  1
  O  O396  1  0.37445400  0.49357650  0.99472533  1
  O  O397  1  0.37279009  1.00304614  0.48516982  1
  O  O398  1  0.37365909  0.99665979  0.99376733  1
  O  O399  1  0.88195130  0.49009261  0.49650423  1
  O  O400  1  0.86607030  0.48614008  0.98777691  1
  O  O401  1  0.88641665  0.98605432  0.50835341  1
  O  O402  1  0.88351748  0.99961371  1.00422940  1
  O  O403  1  0.11322199  0.00174819  0.01168334  1
  O  O404  1  0.11793012  -0.00717220  0.51401655  1
  O  O405  1  0.13731401  0.51474836  0.00503067  1
  O  O406  1  0.11783684  0.49852577  0.50852341  1
  O  O407  1  0.62736175  0.01566726  0.00301918  1
  O  O408  1  0.62182252  -0.00144127  0.51189348  1
  O  O409  1  0.62323939  0.51446708  -0.00125120  1
  O  O410  1  0.61882373  0.50135731  0.49307861  1
  O  O411  1  0.36690109  0.37153954  0.11953344  1
  O  O412  1  0.36720355  0.36107532  0.61931345  1
  O  O413  1  0.36065379  0.87122766  0.12536218  1
  O  O414  1  0.36836001  0.86379490  0.63390081  1
  O  O415  1  0.86997383  0.37469797  0.11602733  1
  O  O416  1  0.87602451  0.36489497  0.61525988  1
  O  O417  1  0.86368193  0.87695361  0.11019779  1
  O  O418  1  0.86957265  0.86518344  0.61838140  1
  O  O419  1  0.13490744  0.13235551  0.36761756  1
  O  O420  1  0.12966686  0.14028446  0.87723728  1
  O  O421  1  0.13099190  0.63111258  0.37805755  1
  O  O422  1  0.13438300  0.61956959  0.88482532  1
  O  O423  1  0.63409522  0.13330698  0.37268124  1
  O  O424  1  0.63377646  0.13600146  0.88333057  1
  O  O425  1  0.62639525  0.64443612  0.37217214  1
  O  O426  1  0.62393677  0.63414031  0.89020878  1
