# generated using pymatgen
data_V85Zn86O256
_symmetry_space_group_name_H-M   'P 1'
_cell_length_a   16.95197981
_cell_length_b   16.95257703
_cell_length_c   16.94654565
_cell_angle_alpha   89.95117962
_cell_angle_beta   90.02831927
_cell_angle_gamma   90.02982479
_symmetry_Int_Tables_number   1
_chemical_formula_structural   V85Zn86O256
_chemical_formula_sum   'V85 Zn86 O256'
_cell_volume   4870.09092308
_cell_formula_units_Z   1
loop_
 _symmetry_equiv_pos_site_id
 _symmetry_equiv_pos_as_xyz
  1  'x, y, z'
loop_
 _atom_site_type_symbol
 _atom_site_label
 _atom_site_symmetry_multiplicity
 _atom_site_fract_x
 _atom_site_fract_y
 _atom_site_fract_z
 _atom_site_occupancy
  V  V0  1  0.37357318  0.74968005  0.62552571  1
  V  V1  1  0.49867581  0.12324419  0.62621366  1
  V  V2  1  0.00005737  0.12570687  0.62675927  1
  V  V3  1  0.88424652  0.12658580  0.25434440  1
  V  V4  1  0.74899889  -0.01021212  0.75239743  1
  V  V5  1  0.62266571  -0.00875049  0.62908050  1
  V  V6  1  0.25328114  0.49747053  0.24201947  1
  V  V7  1  0.37370220  0.62822431  0.75319785  1
  V  V8  1  0.62012026  0.24820979  0.87450400  1
  V  V9  1  0.75008154  0.38231413  0.62688463  1
  V  V10  1  0.62190958  0.63341632  0.49401617  1
  V  V11  1  0.87492205  0.11913546  0.75412233  1
  V  V12  1  0.25217604  0.62983731  0.88740788  1
  V  V13  1  0.87429187  0.63417138  0.24626471  1
  V  V14  1  0.87025885  0.85773800  -0.00349058  1
  V  V15  1  0.49929781  0.37438265  0.37343857  1
  V  V16  1  0.62500195  0.25063407  0.37541617  1
  V  V17  1  0.12143375  0.49827249  0.12427238  1
  V  V18  1  0.88091810  0.24974709  0.12962577  1
  V  V19  1  -0.00419084  0.62959724  0.12038636  1
  V  V20  1  0.12804454  0.14237097  0.49919048  1
  V  V21  1  -0.00163832  0.87094529  0.38900232  1
  V  V22  1  0.75767992  0.87622863  0.61898428  1
  V  V23  1  0.49882647  0.50074864  0.49918491  1
  V  V24  1  0.25030070  0.00006423  0.75106600  1
  V  V25  1  0.12516223  0.50092164  0.62408235  1
  V  V26  1  0.12317952  0.36255249  0.24674354  1
  V  V27  1  0.37419613  0.37731030  0.00163869  1
  V  V28  1  0.13175082  -0.00863310  0.12839467  1
  V  V29  1  0.62555123  0.50255172  0.62495926  1
  V  V30  1  -0.01514646  0.00504705  -0.00165005  1
  V  V31  1  0.37414741  0.12759778  0.25042023  1
  V  V32  1  0.51217035  0.75530263  0.75039202  1
  V  V33  1  -0.00093434  0.62481772  0.62526707  1
  V  V34  1  0.49830083  0.62633014  0.62358930  1
  V  V35  1  0.12390324  0.25465429  0.87713445  1
  V  V36  1  0.62093960  0.38186960  0.74746151  1
  V  V37  1  0.62362567  0.86582210  0.25574835  1
  V  V38  1  0.00350157  0.35974838  0.37139717  1
  V  V39  1  0.62780602  0.12881037  0.00100448  1
  V  V40  1  0.24854138  0.87408978  0.62222458  1
  V  V41  1  0.74840279  0.25265391  0.50231989  1
  V  V42  1  0.37258653  0.12332658  0.75143024  1
  V  V43  1  0.25034175  0.25507963  0.01074103  1
  V  V44  1  0.75431451  0.86129174  0.12275502  1
  V  V45  1  0.37243440  -0.00424475  0.36631981  1
  V  V46  1  0.75680698  0.37320695  0.12582234  1
  V  V47  1  0.37707863  0.49688390  0.87760049  1
  V  V48  1  0.12445857  0.62747867  0.49317799  1
  V  V49  1  0.37881792  0.87774146  0.49914702  1
  V  V50  1  0.74975923  0.12524481  0.37587989  1
  V  V51  1  0.87919467  0.50173467  0.37151961  1
  V  V52  1  0.62293998  0.12505599  0.50251504  1
  V  V53  1  0.36917015  0.37232528  0.49803674  1
  V  V54  1  0.50177440  0.87584134  0.87477242  1
  V  V55  1  -0.00463090  0.74857674  0.75200250  1
  V  V56  1  0.00902624  0.75113792  0.25171211  1
  V  V57  1  0.63301126  0.75194790  0.89255465  1
  V  V58  1  0.49790047  -0.00286145  -0.00203995  1
  V  V59  1  0.74948966  0.11545471  0.87470785  1
  V  V60  1  0.62637689  0.37817177  0.24770760  1
  V  V61  1  0.74811196  0.61758841  0.88739588  1
  V  V62  1  0.37143184  0.25017574  0.62388944  1
  V  V63  1  0.24600460  0.13631806  0.37688572  1
  V  V64  1  0.50968298  0.61458476  0.11270635  1
  V  V65  1  0.25393973  0.12744225  0.87723874  1
  V  V66  1  0.77408480  0.27364413  -0.02280385  1
  V  V67  1  0.87486003  0.37637664  0.49884438  1
  V  V68  1  0.12232553  0.37842870  0.75759810  1
  V  V69  1  0.12116011  0.87463424  0.74881840  1
  V  V70  1  0.12466376  0.00141196  0.61462562  1
  V  V71  1  0.24843602  0.74865591  0.48880799  1
  V  V72  1  0.75580382  0.75372225  0.49557358  1
  V  V73  1  0.24722851  0.37072000  0.62229409  1
  V  V74  1  0.86426100  0.61155955  0.75116814  1
  V  V75  1  0.49729864  0.25322328  0.75426381  1
  V  V76  1  0.12395615  0.75112203  0.88380190  1
  V  V77  1  0.75215194  0.00238540  0.24924752  1
  V  V78  1  0.62841324  -0.00073049  0.12397310  1
  V  V79  1  -0.00276845  0.25542024  0.75487175  1
  V  V80  1  0.25465040  0.62249303  0.36849217  1
  V  V81  1  0.74803529  0.62934257  0.37257264  1
  V  V82  1  0.55756055  0.43183228  0.92839350  1
  V  V83  1  -0.00993065  0.48678841  -0.01070891  1
  V  V84  1  0.12197384  0.12533795  0.00341563  1
  Zn  Zn85  1  0.50065847  0.12644198  0.12825041  1
  Zn  Zn86  1  0.00293264  0.12536301  0.13381558  1
  Zn  Zn87  1  0.87395617  0.25146344  0.62616959  1
  Zn  Zn88  1  0.12409773  0.87413534  0.24867858  1
  Zn  Zn89  1  0.00082763  0.49997310  0.49726137  1
  Zn  Zn90  1  0.37766762  0.72198223  0.13138666  1
  Zn  Zn91  1  0.87056726  -0.00914968  0.38608865  1
  Zn  Zn92  1  0.49999000  0.25073603  0.24648827  1
  Zn  Zn93  1  0.63201891  0.49950992  0.10202252  1
  Zn  Zn94  1  0.87636404  0.75172970  0.62277734  1
  Zn  Zn95  1  0.12212843  0.62475287  0.00078365  1
  Zn  Zn96  1  0.50135252  0.86837901  0.37092014  1
  Zn  Zn97  1  0.37772128  0.25848809  0.12869007  1
  Zn  Zn98  1  0.29870359  0.82497280  0.04800722  1
  Zn  Zn99  1  -0.00872714  -0.00096296  0.50311415  1
  Zn  Zn100  1  -0.01103616  0.88186463  0.87084514  1
  Zn  Zn101  1  0.25066055  0.50119588  0.75078500  1
  Zn  Zn102  1  0.50014910  -0.00024809  0.49867982  1
  Zn  Zn103  1  0.75226164  0.50292900  0.24512835  1
  Zn  Zn104  1  0.37567974  0.50055363  0.36849926  1
  Zn  Zn105  1  0.33548770  -0.04685639  0.92287088  1
  Zn  Zn106  1  0.49008892  0.72910404  0.25699201  1
  Zn  Zn107  1  0.19098689  0.18066054  0.19030124  1
  Zn  Zn108  1  0.18500725  0.19027139  0.68745391  1
  Zn  Zn109  1  0.18802079  0.68482123  0.18254796  1
  Zn  Zn110  1  0.18690974  0.68856950  0.68884639  1
  Zn  Zn111  1  0.69230376  0.19170331  0.18562438  1
  Zn  Zn112  1  0.68645691  0.18738212  0.68805053  1
  Zn  Zn113  1  0.67963384  0.68315819  0.18272393  1
  Zn  Zn114  1  0.68925102  0.68891091  0.68357890  1
  Zn  Zn115  1  0.30883069  0.31373162  0.31072025  1
  Zn  Zn116  1  0.31029145  0.31567168  0.81481718  1
  Zn  Zn117  1  0.30348288  0.82853282  0.22455944  1
  Zn  Zn118  1  0.31164187  0.81115346  0.81716976  1
  Zn  Zn119  1  0.81446189  0.31137354  0.31198069  1
  Zn  Zn120  1  0.80473019  0.30723462  0.80284726  1
  Zn  Zn121  1  0.81518847  0.81266996  0.31116760  1
  Zn  Zn122  1  0.81135971  0.80934972  0.81272352  1
  Zn  Zn123  1  0.18581607  0.43693276  0.43408934  1
  Zn  Zn124  1  0.19106411  0.44213742  0.94016907  1
  Zn  Zn125  1  0.21274094  0.90819424  0.39396858  1
  Zn  Zn126  1  0.16598071  0.94095600  0.93560273  1
  Zn  Zn127  1  0.68777037  0.44338347  0.43571597  1
  Zn  Zn128  1  0.80515795  0.44378120  0.93394326  1
  Zn  Zn129  1  0.68777280  0.94005266  0.43822868  1
  Zn  Zn130  1  0.68455232  0.93218817  0.93901827  1
  Zn  Zn131  1  0.31115551  0.06338562  0.06777455  1
  Zn  Zn132  1  0.30936508  0.06213104  0.55781821  1
  Zn  Zn133  1  0.31778362  0.56295419  0.06335677  1
  Zn  Zn134  1  0.31135900  0.55926885  0.56106536  1
  Zn  Zn135  1  0.81079502  0.06787886  0.06573701  1
  Zn  Zn136  1  0.81149003  0.06435252  0.56669302  1
  Zn  Zn137  1  0.81420845  0.56336613  0.06554314  1
  Zn  Zn138  1  0.81305044  0.56384585  0.56041949  1
  Zn  Zn139  1  0.44329950  0.44826918  0.18161880  1
  Zn  Zn140  1  0.43640037  0.43958224  0.68854092  1
  Zn  Zn141  1  0.43993231  0.93547917  0.18016994  1
  Zn  Zn142  1  0.43585881  0.93550438  0.69125677  1
  Zn  Zn143  1  0.93935118  0.43946666  0.18770530  1
  Zn  Zn144  1  0.93842711  0.43884447  0.68826019  1
  Zn  Zn145  1  0.93780047  0.93728993  0.18508665  1
  Zn  Zn146  1  0.93498705  0.93915023  0.68660067  1
  Zn  Zn147  1  0.06425779  0.05415011  0.32044372  1
  Zn  Zn148  1  0.06378247  0.06313801  0.81533713  1
  Zn  Zn149  1  0.06301760  0.56076209  0.30927506  1
  Zn  Zn150  1  0.06152697  0.56517133  0.81354969  1
  Zn  Zn151  1  0.55930760  0.05907492  0.31287298  1
  Zn  Zn152  1  0.56271112  0.06001960  0.81174581  1
  Zn  Zn153  1  0.56401267  0.56084567  0.30992234  1
  Zn  Zn154  1  0.56773764  0.57237337  0.81139937  1
  Zn  Zn155  1  0.43517373  0.18900591  0.43669450  1
  Zn  Zn156  1  0.43679306  0.18663170  0.94073851  1
  Zn  Zn157  1  0.43393184  0.69394009  0.42776865  1
  Zn  Zn158  1  0.43968002  0.69189126  0.94614268  1
  Zn  Zn159  1  0.93462523  0.18231105  0.44238365  1
  Zn  Zn160  1  0.93759066  0.18832302  0.93373733  1
  Zn  Zn161  1  0.93749669  0.68968948  0.43520179  1
  Zn  Zn162  1  0.93592009  0.68022666  0.93414485  1
  Zn  Zn163  1  0.05962859  0.31302286  0.06471383  1
  Zn  Zn164  1  0.05833521  0.31476144  0.56507031  1
  Zn  Zn165  1  0.05472647  0.81450563  0.06385731  1
  Zn  Zn166  1  0.06353497  0.80956715  0.56203827  1
  Zn  Zn167  1  0.56677982  0.30736768  0.06672280  1
  Zn  Zn168  1  0.55885466  0.31193621  0.56367919  1
  Zn  Zn169  1  0.55378460  0.80924289  0.06746661  1
  Zn  Zn170  1  0.56449592  0.81148734  0.56171024  1
  O  O171  1  0.12238419  0.12358879  0.11419187  1
  O  O172  1  0.12184341  0.12017321  0.62024635  1
  O  O173  1  0.11440888  0.61502043  0.12240616  1
  O  O174  1  0.12103759  0.61664452  0.62051022  1
  O  O175  1  0.62938650  0.11918091  0.11650124  1
  O  O176  1  0.61911262  0.11844463  0.62068322  1
  O  O177  1  0.62301774  0.61383380  0.11905779  1
  O  O178  1  0.61851439  0.62084182  0.61698535  1
  O  O179  1  0.38132755  0.37502092  0.38248358  1
  O  O180  1  0.37457008  0.38563254  0.88061203  1
  O  O181  1  0.37731257  0.88914342  0.38350566  1
  O  O182  1  0.39494656  0.87274192  0.86628724  1
  O  O183  1  0.88457684  0.38163455  0.37581510  1
  O  O184  1  0.83550799  0.33885740  0.90554586  1
  O  O185  1  0.89073991  0.87606772  0.36692713  1
  O  O186  1  0.87085574  0.87236405  0.89101455  1
  O  O187  1  0.27073188  0.01226730  0.38616353  1
  O  O188  1  0.24521858  0.01170246  0.86638741  1
  O  O189  1  0.24952466  0.50494456  0.36420161  1
  O  O190  1  0.25915605  0.51046525  0.87021005  1
  O  O191  1  0.75081448  0.00684998  0.36599666  1
  O  O192  1  0.74039266  0.00755369  0.86716097  1
  O  O193  1  0.76321608  0.50984217  0.37503076  1
  O  O194  1  0.74537239  0.51801690  0.87141329  1
  O  O195  1  0.24058952  0.50437107  0.13583644  1
  O  O196  1  0.24238217  0.49078141  0.62863388  1
  O  O197  1  0.23009302  1.00349986  0.11851902  1
  O  O198  1  0.24239396  0.99424689  0.62994116  1
  O  O199  1  0.74913285  0.48914438  0.12611702  1
  O  O200  1  0.74296993  0.48927704  0.61818099  1
  O  O201  1  0.74141049  0.99700306  0.12995404  1
  O  O202  1  0.74200615  0.99413437  0.63167815  1
  O  O203  1  0.00928588  0.37687881  0.26211184  1
  O  O204  1  0.00847413  0.36708047  0.74567790  1
  O  O205  1  0.00121051  0.86351804  0.24664713  1
  O  O206  1  0.00155502  0.86736198  0.74964372  1
  O  O207  1  0.50743740  0.37550475  0.25778056  1
  O  O208  1  0.50813199  0.36447562  0.74114793  1
  O  O209  1  0.51994034  0.88129068  0.24643282  1
  O  O210  1  0.50052884  0.86544126  0.75596949  1
  O  O211  1  0.49055874  0.12921900  0.25226310  1
  O  O212  1  0.49228348  0.12919902  0.74499511  1
  O  O213  1  0.51156380  0.61821944  0.23395132  1
  O  O214  1  0.48975744  0.63333769  0.74577524  1
  O  O215  1  0.98706822  0.11874799  0.25615183  1
  O  O216  1  0.99311950  0.12960177  0.74850829  1
  O  O217  1  0.99303435  0.62966665  0.24460654  1
  O  O218  1  0.99110327  0.63039704  0.74578158  1
  O  O219  1  0.36658362  0.25775884  -0.00123441  1
  O  O220  1  0.38167541  0.26439897  0.50899329  1
  O  O221  1  0.37110946  0.74080518  0.01676040  1
  O  O222  1  0.36700148  0.75565938  0.50663699  1
  O  O223  1  0.86574228  0.23292107  0.01155949  1
  O  O224  1  0.86665631  0.25687794  0.50439575  1
  O  O225  1  0.87972108  0.76005705  0.00088883  1
  O  O226  1  0.85960692  0.74105811  0.50440859  1
  O  O227  1  0.12406598  0.24150980  0.50654729  1
  O  O228  1  0.12990844  0.24592782  0.99699998  1
  O  O229  1  0.13604553  0.73770277  0.50937953  1
  O  O230  1  0.11519563  0.75017810  0.98679525  1
  O  O231  1  0.62824954  0.24567339  0.49589288  1
  O  O232  1  0.63512087  0.24472491  0.99107893  1
  O  O233  1  0.63383979  0.73776892  0.50400996  1
  O  O234  1  0.62750985  0.75517895  0.99027746  1
  O  O235  1  0.49640077  0.24390438  0.12746677  1
  O  O236  1  0.49404485  0.24312595  0.63564089  1
  O  O237  1  0.50700139  0.73193865  0.13306330  1
  O  O238  1  0.49444329  0.74561025  0.63141697  1
  O  O239  1  0.98546254  0.24498965  0.12036896  1
  O  O240  1  1.00001783  0.24390972  0.63861146  1
  O  O241  1  1.00219778  0.73645304  0.13155549  1
  O  O242  1  0.99878086  0.74170417  0.63260381  1
  O  O243  1  -0.00621216  0.26200346  0.37703977  1
  O  O244  1  0.00744313  0.24685103  0.86321846  1
  O  O245  1  -0.00459090  0.76029033  0.36705065  1
  O  O246  1  0.00516956  0.74821174  0.86597489  1
  O  O247  1  0.50508071  0.26238443  0.37551186  1
  O  O248  1  0.50302939  0.24227690  0.86137460  1
  O  O249  1  0.50408431  0.75426231  0.36886870  1
  O  O250  1  0.51269960  0.75288274  0.86960889  1
  O  O251  1  0.24121054  0.12536218  0.49107512  1
  O  O252  1  0.24366930  0.13139608  0.99352240  1
  O  O253  1  0.24280819  0.62842739  0.49678162  1
  O  O254  1  0.24541586  0.61879316  0.98973381  1
  O  O255  1  0.73976737  0.13351058  0.49928633  1
  O  O256  1  0.74146740  0.12549261  0.98996397  1
  O  O257  1  0.74205493  0.63068609  0.49306656  1
  O  O258  1  0.75803225  0.62473414  0.98618971  1
  O  O259  1  0.25997832  0.36602615  -0.00536956  1
  O  O260  1  0.25734780  0.38021688  0.50769939  1
  O  O261  1  0.25596754  0.88612235  -0.03248823  1
  O  O262  1  0.25899838  0.86606521  0.49806245  1
  O  O263  1  0.74451796  0.37294496  0.01568842  1
  O  O264  1  0.75428731  0.37167644  0.50467733  1
  O  O265  1  0.76006849  0.87895085  0.01124151  1
  O  O266  1  0.74361854  0.86538155  0.50552325  1
  O  O267  1  0.12764750  0.49161472  0.23942099  1
  O  O268  1  0.12380668  0.49521813  0.74062554  1
  O  O269  1  0.11412440  1.00364729  0.22992281  1
  O  O270  1  0.13343084  0.99763281  0.74283542  1
  O  O271  1  0.63497028  0.48229755  0.25968028  1
  O  O272  1  0.61513299  0.49030308  0.74182078  1
  O  O273  1  0.63593738  0.99815648  0.24178402  1
  O  O274  1  0.63561731  1.00700424  0.73882732  1
  O  O275  1  0.38172984  0.00802337  0.26287254  1
  O  O276  1  0.35885482  0.00583532  0.74461546  1
  O  O277  1  0.35624437  0.48587673  0.24935683  1
  O  O278  1  0.37702218  0.50864919  0.76031692  1
  O  O279  1  0.86237349  0.00684344  0.24765230  1
  O  O280  1  0.86398923  0.00829564  0.74793280  1
  O  O281  1  0.87403934  0.50935832  0.25725032  1
  O  O282  1  0.87799556  0.51280491  0.75232209  1
  O  O283  1  0.11018209  0.37824428  0.36687345  1
  O  O284  1  0.13252184  0.37480332  0.86245333  1
  O  O285  1  0.10155134  0.87747199  0.37412864  1
  O  O286  1  0.11328778  0.86672653  0.86409373  1
  O  O287  1  0.61830392  0.37004665  0.37317810  1
  O  O288  1  0.61716096  0.36994546  0.86438638  1
  O  O289  1  0.62719927  0.88320114  0.35828607  1
  O  O290  1  0.61951588  0.86060568  0.87431730  1
  O  O291  1  0.37417603  0.12355506  0.14188043  1
  O  O292  1  0.37687893  0.13052389  0.63004824  1
  O  O293  1  0.39882128  0.60562956  0.12598387  1
  O  O294  1  0.37937001  0.62789174  0.63181364  1
  O  O295  1  0.87481938  0.13106464  0.13815521  1
  O  O296  1  0.87909972  0.12983586  0.63905143  1
  O  O297  1  0.88319157  0.61992346  0.13553068  1
  O  O298  1  0.88019530  0.62432327  0.63506767  1
  O  O299  1  0.25324223  0.24549827  0.11319661  1
  O  O300  1  0.25425165  0.26340354  0.63004903  1
  O  O301  1  0.25476882  0.75709786  0.13427593  1
  O  O302  1  0.25525023  0.75657652  0.61993116  1
  O  O303  1  0.76036164  0.25716013  0.11495582  1
  O  O304  1  0.74713211  0.26196014  0.61839723  1
  O  O305  1  0.74915577  0.76361205  0.12885980  1
  O  O306  1  0.74974412  0.76060854  0.61635545  1
  O  O307  1  0.25565569  0.23521175  0.37905882  1
  O  O308  1  0.24202370  0.24392206  0.88065398  1
  O  O309  1  0.24691982  0.73734942  0.38800816  1
  O  O310  1  0.23754546  0.73971813  0.86602818  1
  O  O311  1  0.74482262  0.24674943  0.38422602  1
  O  O312  1  0.73756079  0.23212432  0.87280977  1
  O  O313  1  0.75390580  0.73843871  0.38003004  1
  O  O314  1  0.73673241  0.74423168  0.87012844  1
  O  O315  1  0.00593539  0.11874159  -0.00090928  1
  O  O316  1  0.00959694  0.12673224  0.50946462  1
  O  O317  1  -0.00074774  0.61610331  0.00693998  1
  O  O318  1  0.00754187  0.62570014  0.50606915  1
  O  O319  1  0.51511312  0.12093210  -0.00153417  1
  O  O320  1  0.50637870  0.12657798  0.50844117  1
  O  O321  1  0.50780185  0.62574610  0.01102475  1
  O  O322  1  0.50516490  0.62182350  0.50185164  1
  O  O323  1  0.49434924  0.38084808  0.49377706  1
  O  O324  1  0.50004746  0.37119051  0.99003105  1
  O  O325  1  0.48754090  0.87351182  0.50212827  1
  O  O326  1  0.50716562  0.88601527  0.99246056  1
  O  O327  1  0.99440738  0.37639673  0.48894554  1
  O  O328  1  1.00080245  0.38796481  1.00065194  1
  O  O329  1  0.99682931  0.87175626  0.49351780  1
  O  O330  1  0.98182614  0.88547624  1.00173402  1
  O  O331  1  0.49797340  0.48891385  0.38014690  1
  O  O332  1  0.49799303  0.49942505  0.87369112  1
  O  O333  1  0.48840817  0.99667130  0.38042588  1
  O  O334  1  0.50912001  0.98903065  0.88300456  1
  O  O335  1  0.98933729  0.49655700  0.37583990  1
  O  O336  1  1.00594755  0.50253607  0.89129256  1
  O  O337  1  0.99398281  0.98652476  0.38048611  1
  O  O338  1  1.00626557  0.99849151  0.89228225  1
  O  O339  1  0.00285718  0.00546106  0.11155029  1
  O  O340  1  0.00873960  0.00818325  0.62883435  1
  O  O341  1  0.00440315  0.50717912  0.11760727  1
  O  O342  1  0.00838743  0.50604432  0.62164593  1
  O  O343  1  0.51421226  0.00390517  0.11771257  1
  O  O344  1  0.50666308  0.00509032  0.62679364  1
  O  O345  1  0.51746271  0.50453064  0.12011142  1
  O  O346  1  0.50315120  0.50764263  0.61851934  1
  O  O347  1  0.23218655  0.38564371  0.25850803  1
  O  O348  1  0.24070125  0.37798595  0.74176015  1
  O  O349  1  0.23054648  0.88256685  0.28489246  1
  O  O350  1  0.24355459  0.88269321  0.74591722  1
  O  O351  1  0.74507735  0.37298142  0.24166081  1
  O  O352  1  0.73436678  0.37072086  0.73854975  1
  O  O353  1  0.74634208  0.88228430  0.23990890  1
  O  O354  1  0.75348290  0.88543985  0.74296187  1
  O  O355  1  0.25675124  0.12490772  0.26617250  1
  O  O356  1  0.25068601  0.12036775  0.75697731  1
  O  O357  1  0.23833068  0.60789180  0.25854539  1
  O  O358  1  0.26319863  0.62493122  0.75350892  1
  O  O359  1  0.75399799  0.11863186  0.25600119  1
  O  O360  1  0.75587337  0.11722698  0.75463110  1
  O  O361  1  0.75593816  0.62580936  0.25656545  1
  O  O362  1  0.76223722  0.62660217  0.74661015  1
  O  O363  1  0.36975950  0.11976266  0.37055643  1
  O  O364  1  0.36138499  0.13029124  0.86936599  1
  O  O365  1  0.35840417  0.61758685  0.38371685  1
  O  O366  1  0.37087440  0.62175390  0.86962648  1
  O  O367  1  0.86477008  0.12665466  0.36895294  1
  O  O368  1  0.86445439  0.12884140  0.86296854  1
  O  O369  1  0.86971055  0.61832590  0.36900620  1
  O  O370  1  0.85991385  0.63308603  0.86055175  1
  O  O371  1  0.11651040  0.38036507  0.13985222  1
  O  O372  1  0.12958848  0.38188391  0.63128963  1
  O  O373  1  0.12091873  0.88730019  0.12310673  1
  O  O374  1  0.12947322  0.88259829  0.62901246  1
  O  O375  1  0.63443862  0.37437220  0.13426682  1
  O  O376  1  0.62928248  0.38115487  0.62893039  1
  O  O377  1  0.63636953  0.88227639  0.13011576  1
  O  O378  1  0.63265929  0.88668364  0.62066766  1
  O  O379  1  0.12957295  0.26359092  0.24465835  1
  O  O380  1  0.11801063  0.25891088  0.75591788  1
  O  O381  1  0.11068534  0.74436319  0.25022889  1
  O  O382  1  0.11307514  0.75368200  0.75369815  1
  O  O383  1  0.62665010  0.25992538  0.25828849  1
  O  O384  1  0.61596721  0.25656680  0.75348119  1
  O  O385  1  0.63147738  0.76623484  0.24881693  1
  O  O386  1  0.61339167  0.74511399  0.74877300  1
  O  O387  1  0.37512600  0.24381756  0.24846210  1
  O  O388  1  0.37986650  0.24646557  0.74541568  1
  O  O389  1  0.37692752  0.74521450  0.24528147  1
  O  O390  1  0.38175872  0.74366299  0.74464245  1
  O  O391  1  0.86868634  0.23819955  0.24249155  1
  O  O392  1  0.88270662  0.24385592  0.74766648  1
  O  O393  1  0.88281562  0.73751048  0.25281360  1
  O  O394  1  0.88485735  0.74460266  0.74671225  1
  O  O395  1  0.38197436  0.48809830  0.50008173  1
  O  O396  1  0.37151899  0.49319459  0.98549200  1
  O  O397  1  0.37854791  0.99128709  0.49813546  1
  O  O398  1  0.39308429  1.01567599  1.00026536  1
  O  O399  1  0.87706561  0.49387954  0.49124056  1
  O  O400  1  0.88448986  0.49839700  0.99810717  1
  O  O401  1  0.87762647  1.01008618  0.49853415  1
  O  O402  1  0.88342961  1.00474017  1.00074174  1
  O  O403  1  0.11204366  0.00977699  0.00880271  1
  O  O404  1  0.12060105  0.00776091  0.51343822  1
  O  O405  1  0.11938113  0.49723125  0.01292751  1
  O  O406  1  0.12456163  0.50538878  0.51104875  1
  O  O407  1  0.62124623  0.00735853  0.00671976  1
  O  O408  1  0.62288881  0.00792032  0.50951531  1
  O  O409  1  0.62121799  0.48203372  -0.01730050  1
  O  O410  1  0.61777240  0.50902663  0.50536137  1
  O  O411  1  0.38449424  0.37886594  0.10568806  1
  O  O412  1  0.36585429  0.37244168  0.62011813  1
  O  O413  1  0.35931218  0.87979539  0.13390927  1
  O  O414  1  0.36734501  0.87142104  0.61823051  1
  O  O415  1  0.86816018  0.36506790  0.13433276  1
  O  O416  1  0.86589415  0.37579055  0.62105781  1
  O  O417  1  0.86067674  0.88016245  0.11510213  1
  O  O418  1  0.86129475  0.87449072  0.62550511  1
  O  O419  1  0.13796251  0.11938702  0.38353651  1
  O  O420  1  0.13289725  0.13095324  0.88621155  1
  O  O421  1  0.13165145  0.61505290  0.38884504  1
  O  O422  1  0.13420954  0.63266429  0.87513478  1
  O  O423  1  0.62916355  0.12962957  0.38187134  1
  O  O424  1  0.63010090  0.12770605  0.88075531  1
  O  O425  1  0.63659022  0.61475022  0.38432908  1
  O  O426  1  0.63851354  0.63841431  0.87066742  1
