# generated using pymatgen
data_V85Zn86O256
_symmetry_space_group_name_H-M   'P 1'
_cell_length_a   16.91617583
_cell_length_b   16.91867181
_cell_length_c   16.91268974
_cell_angle_alpha   89.95620483
_cell_angle_beta   90.06468663
_cell_angle_gamma   90.00754447
_symmetry_Int_Tables_number   1
_chemical_formula_structural   V85Zn86O256
_chemical_formula_sum   'V85 Zn86 O256'
_cell_volume   4840.39419466
_cell_formula_units_Z   1
loop_
 _symmetry_equiv_pos_site_id
 _symmetry_equiv_pos_as_xyz
  1  'x, y, z'
loop_
 _atom_site_type_symbol
 _atom_site_label
 _atom_site_symmetry_multiplicity
 _atom_site_fract_x
 _atom_site_fract_y
 _atom_site_fract_z
 _atom_site_occupancy
  V  V0  1  0.25003999  0.74426761  0.00198333  1
  V  V1  1  0.74003669  0.87936907  0.11627439  1
  V  V2  1  0.26080232  0.62136042  0.87257993  1
  V  V3  1  0.87836687  0.12553964  0.75092592  1
  V  V4  1  0.87414304  0.37507070  0.50005281  1
  V  V5  1  0.24910435  0.37228857  0.12099120  1
  V  V6  1  0.37764820  0.12135836  0.25264381  1
  V  V7  1  0.37302601  0.12289701  0.75702338  1
  V  V8  1  0.00519903  -0.00887631  -0.00190657  1
  V  V9  1  0.12340276  0.75810763  0.87242415  1
  V  V10  1  0.49622020  0.00018268  -0.00069512  1
  V  V11  1  0.62466850  0.50667046  0.63436011  1
  V  V12  1  0.87810535  0.24990438  0.62964277  1
  V  V13  1  0.75387754  0.60699150  0.87304225  1
  V  V14  1  0.62296726  0.87401908  0.74794425  1
  V  V15  1  0.87358932  0.12282021  0.25048350  1
  V  V16  1  0.49798009  0.87835980  0.87416209  1
  V  V17  1  0.74988400  -0.00037945  0.74816380  1
  V  V18  1  0.87619189  0.24947828  0.11979356  1
  V  V19  1  0.62795914  0.11884282  0.00237883  1
  V  V20  1  0.00044822  0.38520111  0.86144417  1
  V  V21  1  0.26619457  0.50333260  0.75272654  1
  V  V22  1  0.12575388  0.74972017  0.37459314  1
  V  V23  1  0.62444260  0.00324908  0.61696077  1
  V  V24  1  0.12167480  0.49829821  0.11682814  1
  V  V25  1  0.74389429  0.12386316  0.37774433  1
  V  V26  1  0.00327068  0.76301737  0.75446980  1
  V  V27  1  0.86707082  0.75181039  0.11744266  1
  V  V28  1  0.48962184  0.86271293  0.37771017  1
  V  V29  1  0.00059677  0.00033111  0.50021091  1
  V  V30  1  0.49776650  0.38176609  0.37193883  1
  V  V31  1  0.12518305  0.37792608  0.25263501  1
  V  V32  1  0.62549108  0.25558201  0.37215448  1
  V  V33  1  0.62944048  0.62851847  0.00148886  1
  V  V34  1  0.37341496  0.87762672  -0.00108998  1
  V  V35  1  0.24653301  0.37384214  0.62982483  1
  V  V36  1  0.50250041  0.12477454  0.62155742  1
  V  V37  1  0.25161264  0.87405886  0.12713860  1
  V  V38  1  0.25413027  -0.00210902  0.25344671  1
  V  V39  1  0.63594027  0.75144883  0.87640227  1
  V  V40  1  0.86689518  0.62618309  0.25300685  1
  V  V41  1  0.74457055  0.49701761  0.25171353  1
  V  V42  1  0.88261543  -0.00922975  0.87338733  1
  V  V43  1  0.00078517  0.62566543  0.63075880  1
  V  V44  1  0.87525095  0.75191489  0.62678083  1
  V  V45  1  0.12586046  0.87604588  0.24951337  1
  V  V46  1  0.25293066  -0.01066726  0.75737389  1
  V  V47  1  0.11920026  0.25263254  0.85349356  1
  V  V48  1  0.36763443  0.87976425  0.51310339  1
  V  V49  1  0.49703299  0.62609181  0.12519578  1
  V  V50  1  0.63141836  0.62305444  0.48314615  1
  V  V51  1  0.50479295  0.25714375  0.24680125  1
  V  V52  1  0.48848336  0.74445853  0.74489548  1
  V  V53  1  0.24962071  0.75639754  0.51323117  1
  V  V54  1  0.00408339  0.12776252  0.63241187  1
  V  V55  1  0.62632663  0.87458727  0.26225923  1
  V  V56  1  0.74269702  0.24684591  0.50230254  1
  V  V57  1  0.49969186  0.37468145  0.87303698  1
  V  V58  1  0.74835014  0.87329824  0.62197357  1
  V  V59  1  0.37460081  0.38189999  0.49585758  1
  V  V60  1  0.74351428  0.37535463  0.12506394  1
  V  V61  1  0.36847630  0.37675207  -0.00882155  1
  V  V62  1  0.74601959  0.37549486  0.63519949  1
  V  V63  1  0.13321113  -0.01048604  0.63076355  1
  V  V64  1  0.37583799  0.24962629  0.62436929  1
  V  V65  1  0.12287467  0.62392004  0.49840437  1
  V  V66  1  0.25736746  0.61921045  0.37621759  1
  V  V67  1  0.12893527  0.13634329  0.00218742  1
  V  V68  1  0.87023991  0.50452321  0.37897211  1
  V  V69  1  0.12394805  0.49718413  0.63490699  1
  V  V70  1  0.12576641  0.12621024  0.49988059  1
  V  V71  1  0.37264457  0.24954886  0.11881296  1
  V  V72  1  -0.00198780  0.62042645  0.11900144  1
  V  V73  1  0.50470602  0.11882766  0.12611419  1
  V  V74  1  0.88410704  0.39252543  -0.00310440  1
  V  V75  1  0.87351155  0.87577929  0.49647610  1
  V  V76  1  0.75300197  0.24860583  -0.00174938  1
  V  V77  1  -0.00088437  0.87630597  0.37318826  1
  V  V78  1  0.75250416  0.12315433  0.87475698  1
  V  V79  1  0.74801820  0.74286069  0.48766942  1
  V  V80  1  -0.00201523  0.74940645  0.24793169  1
  V  V81  1  -0.00004346  0.25019091  0.25237700  1
  V  V82  1  0.49598935  0.50215344  -0.00532474  1
  V  V83  1  0.49697171  0.00338699  0.49027419  1
  V  V84  1  0.25522026  0.12512908  0.37608469  1
  Zn  Zn85  1  0.48878381  0.62221309  0.63078104  1
  Zn  Zn86  1  0.62922538  0.37620925  0.75650749  1
  Zn  Zn87  1  0.74058646  0.00382882  0.24527419  1
  Zn  Zn88  1  0.24977859  0.25122273  0.49885927  1
  Zn  Zn89  1  0.25844561  0.49625199  0.25538709  1
  Zn  Zn90  1  0.62272433  0.49736158  0.12685429  1
  Zn  Zn91  1  0.49996310  0.50342215  0.49779044  1
  Zn  Zn92  1  0.12476410  0.25111932  0.37643403  1
  Zn  Zn93  1  0.12179187  0.61862355  -0.00592282  1
  Zn  Zn94  1  0.50200450  0.74540265  0.25476806  1
  Zn  Zn95  1  0.50287099  0.24932023  0.75132561  1
  Zn  Zn96  1  0.25150230  0.13094455  0.87801099  1
  Zn  Zn97  1  0.87144214  0.00039136  0.37335143  1
  Zn  Zn98  1  -0.00006320  0.49853793  0.50011403  1
  Zn  Zn99  1  0.12528683  0.00181983  0.12355434  1
  Zn  Zn100  1  -0.00040877  0.37593738  0.37697451  1
  Zn  Zn101  1  0.87596021  0.61652559  0.76231729  1
  Zn  Zn102  1  0.00090147  0.12209296  0.12402234  1
  Zn  Zn103  1  0.38363444  0.61982326  0.26052118  1
  Zn  Zn104  1  0.87431233  0.87130240  -0.00387218  1
  Zn  Zn105  1  0.37571609  0.74843964  0.13229053  1
  Zn  Zn106  1  0.62629341  0.24906717  0.87256864  1
  Zn  Zn107  1  0.18777791  0.18914418  0.18654340  1
  Zn  Zn108  1  0.19076726  0.18423680  0.68808799  1
  Zn  Zn109  1  0.18716706  0.68503270  0.18882656  1
  Zn  Zn110  1  0.18784426  0.68577319  0.69285701  1
  Zn  Zn111  1  0.68713611  0.18889862  0.18723214  1
  Zn  Zn112  1  0.68506848  0.18835919  0.69005744  1
  Zn  Zn113  1  0.68432701  0.69198286  0.18963422  1
  Zn  Zn114  1  0.68675968  0.68730190  0.69029921  1
  Zn  Zn115  1  0.31358604  0.30906366  0.30953786  1
  Zn  Zn116  1  0.30758975  0.30966603  0.81060847  1
  Zn  Zn117  1  0.31759034  0.80492132  0.31811516  1
  Zn  Zn118  1  0.31245483  0.81152065  0.81698907  1
  Zn  Zn119  1  0.81268813  0.31363557  0.31192372  1
  Zn  Zn120  1  0.81935415  0.31314353  0.81530163  1
  Zn  Zn121  1  0.81069447  0.81316593  0.30849345  1
  Zn  Zn122  1  0.81352828  0.80997407  0.80881609  1
  Zn  Zn123  1  0.18553711  0.43750462  0.44221862  1
  Zn  Zn124  1  0.18477966  0.43284652  0.93159324  1
  Zn  Zn125  1  0.18887091  0.94103037  0.43639776  1
  Zn  Zn126  1  0.18847870  0.93949584  0.93682249  1
  Zn  Zn127  1  0.68791087  0.43749560  0.44102176  1
  Zn  Zn128  1  0.68522098  0.43747841  0.94270025  1
  Zn  Zn129  1  0.68545939  0.93763725  0.43651065  1
  Zn  Zn130  1  0.68586300  0.93999869  0.93711113  1
  Zn  Zn131  1  0.31132762  0.06229340  0.06263442  1
  Zn  Zn132  1  0.31410348  0.06064456  0.56491486  1
  Zn  Zn133  1  0.31181093  0.55809022  0.06474261  1
  Zn  Zn134  1  0.31091985  0.56271038  0.56585083  1
  Zn  Zn135  1  0.81605944  0.05750460  0.06221344  1
  Zn  Zn136  1  0.81282768  0.06398276  0.56106360  1
  Zn  Zn137  1  0.80829814  0.56591955  0.06327924  1
  Zn  Zn138  1  0.81699175  0.55786956  0.58547718  1
  Zn  Zn139  1  0.43332842  0.44291477  0.18511636  1
  Zn  Zn140  1  0.44006768  0.43674506  0.68383283  1
  Zn  Zn141  1  0.44005066  0.93665610  0.18907458  1
  Zn  Zn142  1  0.43689204  0.93987146  0.68877198  1
  Zn  Zn143  1  0.93450298  0.43779239  0.18779361  1
  Zn  Zn144  1  0.93102669  0.44398574  0.68977247  1
  Zn  Zn145  1  0.93551861  0.93799884  0.18293833  1
  Zn  Zn146  1  0.94064638  0.93975578  0.68560914  1
  Zn  Zn147  1  0.06396603  0.06229723  0.31252210  1
  Zn  Zn148  1  0.06730333  0.06074372  0.81480684  1
  Zn  Zn149  1  0.05775865  0.56050908  0.31048964  1
  Zn  Zn150  1  0.06864385  0.56704381  0.81334079  1
  Zn  Zn151  1  0.56632814  0.06176384  0.31138893  1
  Zn  Zn152  1  0.56272424  0.06196510  0.81121938  1
  Zn  Zn153  1  0.56618824  0.56178649  0.31181020  1
  Zn  Zn154  1  0.56113920  0.56450953  0.81484797  1
  Zn  Zn155  1  0.43822078  0.19122914  0.43822555  1
  Zn  Zn156  1  0.43848544  0.19023073  0.93803489  1
  Zn  Zn157  1  0.42363235  0.67710376  0.47498459  1
  Zn  Zn158  1  0.43996456  0.69287396  0.93688180  1
  Zn  Zn159  1  0.93499895  0.18766195  0.43924210  1
  Zn  Zn160  1  0.94631301  0.18538326  0.93491549  1
  Zn  Zn161  1  0.93563653  0.68752543  0.43778798  1
  Zn  Zn162  1  0.93736487  0.68595866  0.93786147  1
  Zn  Zn163  1  0.05907205  0.31394282  0.06190917  1
  Zn  Zn164  1  0.06209684  0.31192369  0.56596021  1
  Zn  Zn165  1  0.06381829  0.81024685  0.06252556  1
  Zn  Zn166  1  0.06264094  0.81191543  0.56247613  1
  Zn  Zn167  1  0.56144537  0.30856804  0.05564396  1
  Zn  Zn168  1  0.56241356  0.31366728  0.56145216  1
  Zn  Zn169  1  0.56462497  0.81006686  0.06439733  1
  Zn  Zn170  1  0.56269537  0.80907247  0.55899889  1
  O  O171  1  0.12464920  0.12456459  0.11468506  1
  O  O172  1  0.11960209  0.11928094  0.61879258  1
  O  O173  1  0.11656191  0.61476165  0.12731036  1
  O  O174  1  0.11651158  0.62142256  0.61965967  1
  O  O175  1  0.61634187  0.12913264  0.11684619  1
  O  O176  1  0.61512734  0.11577317  0.62904898  1
  O  O177  1  0.61727968  0.62561178  0.11719234  1
  O  O178  1  0.62371957  0.61266144  0.62639887  1
  O  O179  1  0.38450139  0.36168080  0.38404258  1
  O  O180  1  0.37864294  0.36547156  0.88598518  1
  O  O181  1  0.38702661  0.88015668  0.37908722  1
  O  O182  1  0.38320426  0.87156004  0.89004045  1
  O  O183  1  0.87558075  0.37973619  0.38493742  1
  O  O184  1  0.88693165  0.37242359  0.88773885  1
  O  O185  1  0.88065465  0.87784668  0.37817871  1
  O  O186  1  0.86902474  0.88685098  0.87545850  1
  O  O187  1  0.24747314  0.01133371  0.36270198  1
  O  O188  1  0.24341736  0.00707736  0.86039695  1
  O  O189  1  0.24158789  0.51599935  0.37771237  1
  O  O190  1  0.24636365  0.50309757  0.85975682  1
  O  O191  1  0.74976214  0.01019080  0.37272400  1
  O  O192  1  0.75720999  0.00523936  0.86882159  1
  O  O193  1  0.76179366  0.49066037  0.36724541  1
  O  O194  1  0.74746736  0.50793513  0.87371888  1
  O  O195  1  0.24109691  0.48864082  0.13010560  1
  O  O196  1  0.24564792  0.49551363  0.63271062  1
  O  O197  1  0.25018422  0.99411833  0.13744039  1
  O  O198  1  0.23861772  1.00413200  0.63399957  1
  O  O199  1  0.74978702  0.49165919  0.13148407  1
  O  O200  1  0.73057651  0.48690364  0.61645241  1
  O  O201  1  0.75529608  0.98386026  0.12838156  1
  O  O202  1  0.74263243  0.99613570  0.62661110  1
  O  O203  1  0.00498635  0.36708069  0.25100782  1
  O  O204  1  -0.01331596  0.37618327  0.76195613  1
  O  O205  1  0.00375903  0.87077335  0.25366904  1
  O  O206  1  -0.00384952  0.86268985  0.74866659  1
  O  O207  1  0.49285834  0.36283370  0.25346598  1
  O  O208  1  0.49580170  0.37677471  0.76508387  1
  O  O209  1  0.50483502  0.87478549  0.26385707  1
  O  O210  1  0.50348198  0.87227647  0.75788439  1
  O  O211  1  0.49566645  0.13059437  0.24365938  1
  O  O212  1  0.49168901  0.12163624  0.73900853  1
  O  O213  1  0.50512373  0.62513611  0.24030812  1
  O  O214  1  0.50065530  0.63927462  0.75093733  1
  O  O215  1  0.99341639  0.13254520  0.24884638  1
  O  O216  1  0.99637788  0.11760387  0.73845151  1
  O  O217  1  0.98863828  0.62967181  0.24188746  1
  O  O218  1  0.99832832  0.63260105  0.74250407  1
  O  O219  1  0.37937318  0.25659839  0.01265966  1
  O  O220  1  0.37247037  0.25452464  0.51201217  1
  O  O221  1  0.36343017  0.75808474  0.00221315  1
  O  O222  1  0.36140698  0.77234234  0.49103032  1
  O  O223  1  0.87347402  0.24727596  0.00963127  1
  O  O224  1  0.86568945  0.25460850  0.50871452  1
  O  O225  1  0.87942135  0.75269981  0.01340044  1
  O  O226  1  0.87048192  0.76034480  0.50424420  1
  O  O227  1  0.12637155  0.23746912  0.50023084  1
  O  O228  1  0.12145034  0.23786146  1.00103297  1
  O  O229  1  0.12885313  0.74572443  0.49363942  1
  O  O230  1  0.13527879  0.74757360  0.99313345  1
  O  O231  1  0.63635670  0.25182819  0.49356970  1
  O  O232  1  0.63354886  0.23669673  0.99704811  1
  O  O233  1  0.63557902  0.73538649  0.50516457  1
  O  O234  1  0.61734035  0.73744179  0.99060721  1
  O  O235  1  0.49532826  0.24273488  0.13009415  1
  O  O236  1  0.49374987  0.24228399  0.62543916  1
  O  O237  1  0.49732733  0.73994563  0.12534612  1
  O  O238  1  0.50676912  0.75212530  0.64286699  1
  O  O239  1  0.99131508  0.24897305  0.13534321  1
  O  O240  1  0.99005542  0.23982150  0.62007156  1
  O  O241  1  0.99323941  0.74397883  0.13186517  1
  O  O242  1  0.99835773  0.74643375  0.63406410  1
  O  O243  1  -0.00081463  0.25048568  0.36363147  1
  O  O244  1  0.01175643  0.25994987  0.87682546  1
  O  O245  1  0.00522000  0.75539940  0.36855661  1
  O  O246  1  0.01380187  0.74325262  0.87053471  1
  O  O247  1  0.50800784  0.25387422  0.36658099  1
  O  O248  1  0.50358565  0.25957060  0.87452310  1
  O  O249  1  0.49485155  0.76309680  0.38192316  1
  O  O250  1  0.50881963  0.76085016  0.86791587  1
  O  O251  1  0.24493654  0.12373987  0.49268054  1
  O  O252  1  0.23455862  0.11860418  0.99660405  1
  O  O253  1  0.23707273  0.63240541  0.49296354  1
  O  O254  1  0.24778802  0.63073592  0.99690481  1
  O  O255  1  0.75504456  0.13477151  0.49068213  1
  O  O256  1  0.74432411  0.12517463  0.99719447  1
  O  O257  1  0.74136265  0.63156163  0.51058634  1
  O  O258  1  0.74052533  0.62226090  0.98905696  1
  O  O259  1  0.25694179  0.37907707  0.00721799  1
  O  O260  1  0.25610626  0.37259541  0.50948579  1
  O  O261  1  0.25725970  0.87072291  0.00490362  1
  O  O262  1  0.25887192  0.87417279  0.49806644  1
  O  O263  1  0.76353364  0.36939140  0.00330358  1
  O  O264  1  0.75798162  0.36626945  0.50804816  1
  O  O265  1  0.74937541  0.87848796  0.01249805  1
  O  O266  1  0.75353159  0.86776251  0.50431003  1
  O  O267  1  0.12448033  0.48748453  0.24384453  1
  O  O268  1  0.13466582  0.50516687  0.73736006  1
  O  O269  1  0.13428417  0.99420536  0.24815005  1
  O  O270  1  0.13621831  1.00388049  0.73907853  1
  O  O271  1  0.64058083  0.50022650  0.24727759  1
  O  O272  1  0.62081018  0.49699979  0.73819437  1
  O  O273  1  0.62202417  0.98258124  0.24930087  1
  O  O274  1  0.62905250  0.99371969  0.73948044  1
  O  O275  1  0.37055174  0.01309662  0.24577214  1
  O  O276  1  0.36177906  0.00814180  0.74348669  1
  O  O277  1  0.37132178  0.50695831  0.25037354  1
  O  O278  1  0.36493959  0.50253992  0.74285740  1
  O  O279  1  0.87550288  0.01454340  0.25057218  1
  O  O280  1  0.87121349  0.00456736  0.75442334  1
  O  O281  1  0.86781380  0.50709550  0.25725604  1
  O  O282  1  0.86213849  0.52901051  0.69372433  1
  O  O283  1  0.12214828  0.37263733  0.36855311  1
  O  O284  1  0.11158664  0.36379786  0.87519874  1
  O  O285  1  0.11969312  0.87104921  0.36989196  1
  O  O286  1  0.13078727  0.85724820  0.87917292  1
  O  O287  1  0.61773055  0.36281569  0.37950152  1
  O  O288  1  0.61554217  0.37305972  0.87739158  1
  O  O289  1  0.61388789  0.87589250  0.36873102  1
  O  O290  1  0.61892542  0.87001188  0.87062911  1
  O  O291  1  0.38126242  0.13222555  0.12909749  1
  O  O292  1  0.38032220  0.13164087  0.63221046  1
  O  O293  1  0.38902490  0.62430911  0.12095652  1
  O  O294  1  0.38881528  0.63779011  0.58105925  1
  O  O295  1  0.87472237  0.13332015  0.13197041  1
  O  O296  1  0.88357008  0.13008804  0.62853340  1
  O  O297  1  0.87879270  0.63164405  0.13066365  1
  O  O298  1  0.89224649  0.64712904  0.60376030  1
  O  O299  1  0.25846796  0.26208696  0.12994999  1
  O  O300  1  0.25624719  0.25786677  0.62520090  1
  O  O301  1  0.25071648  0.75386968  0.11803405  1
  O  O302  1  0.24017420  0.74780221  0.61244963  1
  O  O303  1  0.75875380  0.25607158  0.12046164  1
  O  O304  1  0.75406297  0.25353507  0.61800995  1
  O  O305  1  0.75664943  0.76361894  0.13023818  1
  O  O306  1  0.75952865  0.75428213  0.62180528  1
  O  O307  1  0.24670434  0.23720561  0.37503978  1
  O  O308  1  0.22766993  0.25078749  0.86867728  1
  O  O309  1  0.24063726  0.74171179  0.38367982  1
  O  O310  1  0.24257334  0.74332207  0.88109601  1
  O  O311  1  0.74368371  0.24735771  0.38054872  1
  O  O312  1  0.75386844  0.24110809  0.88176843  1
  O  O313  1  0.75658793  0.75061792  0.38850300  1
  O  O314  1  0.73795450  0.75420932  0.87624364  1
  O  O315  1  0.01293351  0.11603127  0.00190867  1
  O  O316  1  0.00646323  0.12012281  0.50709959  1
  O  O317  1  0.00231039  0.62785477  0.01465342  1
  O  O318  1  0.01160061  0.62758154  0.50566282  1
  O  O319  1  0.50542564  0.11887122  0.00507270  1
  O  O320  1  0.49212224  0.11770469  0.51164294  1
  O  O321  1  0.50488201  0.61874785  0.00269374  1
  O  O322  1  0.52323857  0.62253569  0.49552918  1
  O  O323  1  0.49222791  0.37378356  0.49013649  1
  O  O324  1  0.49327344  0.38085010  0.99155925  1
  O  O325  1  0.49208663  0.88020112  0.49270483  1
  O  O326  1  0.49593912  0.88155717  0.99670422  1
  O  O327  1  0.98616035  0.37405308  0.50111004  1
  O  O328  1  0.98734236  0.37483024  0.99595899  1
  O  O329  1  0.99391598  0.87957295  0.49404189  1
  O  O330  1  0.99884671  0.88676575  1.00410366  1
  O  O331  1  0.50664475  0.48461258  0.37424396  1
  O  O332  1  0.50256219  0.49439299  0.88682582  1
  O  O333  1  0.50582458  0.99745471  0.38792059  1
  O  O334  1  0.50446900  0.98699056  0.88166277  1
  O  O335  1  0.98590499  0.49757200  0.37835129  1
  O  O336  1  1.00897384  0.48566176  0.87049928  1
  O  O337  1  0.99823653  0.99552550  0.38246883  1
  O  O338  1  0.99337346  1.00269260  0.88158657  1
  O  O339  1  0.00255762  0.00275864  0.11509680  1
  O  O340  1  0.01087378  0.00729102  0.62014423  1
  O  O341  1  0.00740109  0.50844584  0.13248274  1
  O  O342  1  0.00919127  0.50907987  0.62177353  1
  O  O343  1  0.49668619  0.01200191  0.11845738  1
  O  O344  1  0.50595598  0.00548297  0.61676142  1
  O  O345  1  0.50427615  0.50405127  0.11272570  1
  O  O346  1  0.51260651  0.50021667  0.61975187  1
  O  O347  1  0.24128270  0.37420015  0.24428439  1
  O  O348  1  0.25552461  0.38670172  0.73789444  1
  O  O349  1  0.24958417  0.88144039  0.25013848  1
  O  O350  1  0.25613723  0.88992488  0.75458795  1
  O  O351  1  0.76021827  0.38318436  0.23648202  1
  O  O352  1  0.75301140  0.37098987  0.73854917  1
  O  O353  1  0.73808507  0.87866817  0.24706014  1
  O  O354  1  0.74487445  0.88039209  0.74131449  1
  O  O355  1  0.25732346  0.11976834  0.25475007  1
  O  O356  1  0.25875391  0.11734952  0.75160691  1
  O  O357  1  0.24665046  0.62564032  0.26864961  1
  O  O358  1  0.25122688  0.61261525  0.75547815  1
  O  O359  1  0.75641359  0.12468587  0.25586095  1
  O  O360  1  0.75665769  0.11738395  0.75325797  1
  O  O361  1  0.76065047  0.61736037  0.24207384  1
  O  O362  1  0.74846011  0.63221459  0.77111712  1
  O  O363  1  0.36857073  0.13128953  0.36513729  1
  O  O364  1  0.37458869  0.13268562  0.86137445  1
  O  O365  1  0.35907618  0.62821823  0.38541471  1
  O  O366  1  0.36045958  0.63127675  0.88170720  1
  O  O367  1  0.86316849  0.12782930  0.36724386  1
  O  O368  1  0.87220619  0.11656287  0.86985440  1
  O  O369  1  0.87701123  0.61769555  0.36615062  1
  O  O370  1  0.85941507  0.62583803  0.87900919  1
  O  O371  1  0.12989186  0.37812950  0.13054950  1
  O  O372  1  0.13449956  0.38365550  0.61939936  1
  O  O373  1  0.13410250  0.87548517  0.13230284  1
  O  O374  1  0.12184029  0.89163752  0.62089422  1
  O  O375  1  0.64004262  0.37325065  0.11367778  1
  O  O376  1  0.63019206  0.38192942  0.62707022  1
  O  O377  1  0.63601793  0.87276202  0.13205930  1
  O  O378  1  0.62879180  0.88168433  0.62762066  1
  O  O379  1  0.11636428  0.25942822  0.24969373  1
  O  O380  1  0.11745180  0.24495038  0.75468756  1
  O  O381  1  0.11912503  0.75616628  0.25505221  1
  O  O382  1  0.11947155  0.74769154  0.76327791  1
  O  O383  1  0.61578583  0.24852080  0.25687828  1
  O  O384  1  0.62112392  0.25618970  0.75360765  1
  O  O385  1  0.61997350  0.76783563  0.24885876  1
  O  O386  1  0.61921911  0.75789879  0.75825582  1
  O  O387  1  0.38252028  0.24004293  0.23887129  1
  O  O388  1  0.37693241  0.24362791  0.73864033  1
  O  O389  1  0.38124399  0.73942617  0.25004861  1
  O  O390  1  0.39001225  0.75569727  0.75411851  1
  O  O391  1  0.87946837  0.24246096  0.24202160  1
  O  O392  1  0.87014783  0.24220672  0.73690780  1
  O  O393  1  0.87747457  0.74284417  0.24233886  1
  O  O394  1  0.88254766  0.74456563  0.74175058  1
  O  O395  1  0.37673423  0.48463829  0.50122479  1
  O  O396  1  0.38256058  0.48773393  1.00401102  1
  O  O397  1  0.38150408  0.99003985  0.50152846  1
  O  O398  1  0.38684897  0.99510292  1.00236141  1
  O  O399  1  0.87286762  0.49265877  0.49587010  1
  O  O400  1  0.87542107  0.49025587  1.00417712  1
  O  O401  1  0.88063982  0.99199345  0.49966474  1
  O  O402  1  0.88556198  0.99884277  0.99010112  1
  O  O403  1  0.11909901  0.00808139  -0.00095364  1
  O  O404  1  0.12385032  0.00954850  0.50954418  1
  O  O405  1  0.12852259  0.49790103  0.01307859  1
  O  O406  1  0.12339676  0.50923935  0.51056632  1
  O  O407  1  0.61395042  0.01078866  -0.00224038  1
  O  O408  1  0.61643644  -0.00393842  0.51074530  1
  O  O409  1  0.61726424  0.51174554  0.00279588  1
  O  O410  1  0.62610792  0.51093963  0.50627502  1
  O  O411  1  0.36782648  0.36825345  0.11683221  1
  O  O412  1  0.37031142  0.36699311  0.61829948  1
  O  O413  1  0.37125738  0.87365145  0.11603996  1
  O  O414  1  0.37834419  0.87666546  0.61144013  1
  O  O415  1  0.87105944  0.36835690  0.11343206  1
  O  O416  1  0.86773920  0.36607174  0.61897675  1
  O  O417  1  0.86297632  0.86691155  0.12592991  1
  O  O418  1  0.87183005  0.86790377  0.61837967  1
  O  O419  1  0.13248363  0.12545636  0.38393889  1
  O  O420  1  0.12181875  0.13897916  0.88329388  1
  O  O421  1  0.12532105  0.62970824  0.38191241  1
  O  O422  1  0.13757824  0.63338080  0.87792382  1
  O  O423  1  0.63631255  0.13640516  0.37011193  1
  O  O424  1  0.63409985  0.12328511  0.88177026  1
  O  O425  1  0.63648798  0.61955739  0.38412844  1
  O  O426  1  0.63354795  0.63124164  0.88125319  1
