# generated using pymatgen
data_V85Zn86O256
_symmetry_space_group_name_H-M   'P 1'
_cell_length_a   16.94398236
_cell_length_b   16.95126144
_cell_length_c   16.94484074
_cell_angle_alpha   90.05648628
_cell_angle_beta   89.97946986
_cell_angle_gamma   90.02206169
_symmetry_Int_Tables_number   1
_chemical_formula_structural   V85Zn86O256
_chemical_formula_sum   'V85 Zn86 O256'
_cell_volume   4866.92588858
_cell_formula_units_Z   1
loop_
 _symmetry_equiv_pos_site_id
 _symmetry_equiv_pos_as_xyz
  1  'x, y, z'
loop_
 _atom_site_type_symbol
 _atom_site_label
 _atom_site_symmetry_multiplicity
 _atom_site_fract_x
 _atom_site_fract_y
 _atom_site_fract_z
 _atom_site_occupancy
  V  V0  1  0.25102874  0.00351588  0.75505553  1
  V  V1  1  0.37308455  0.12949624  0.75243045  1
  V  V2  1  0.74917804  0.74489826  0.00368309  1
  V  V3  1  0.50458360  0.25479614  0.25567369  1
  V  V4  1  0.87501581  0.24957320  0.62636152  1
  V  V5  1  0.00000691  0.49993368  0.01460855  1
  V  V6  1  0.25891851  0.87616814  0.62064197  1
  V  V7  1  0.62310575  -0.00240293  0.62289789  1
  V  V8  1  0.24695214  0.50243286  0.24685768  1
  V  V9  1  0.87352213  0.12496669  0.75453521  1
  V  V10  1  0.36971195  0.25564502  0.62298728  1
  V  V11  1  0.37846280  0.12479524  0.24835380  1
  V  V12  1  0.74986182  0.39154944  0.62899880  1
  V  V13  1  0.74779140  0.25026073  0.50221675  1
  V  V14  1  0.00058104  0.12118882  0.62402032  1
  V  V15  1  0.74930242  0.62203870  0.87337189  1
  V  V16  1  0.50730512  0.49520348  0.50007937  1
  V  V17  1  0.22871078  0.74887047  0.50004502  1
  V  V18  1  0.12282745  0.24788908  0.37210403  1
  V  V19  1  0.24844125  0.00164930  0.24929531  1
  V  V20  1  -0.00794616  0.12515784  0.12569117  1
  V  V21  1  0.49675480  0.12478590  0.62182026  1
  V  V22  1  0.24853023  0.87448877  0.12416338  1
  V  V23  1  0.75498605  0.00788584  0.24796619  1
  V  V24  1  0.62237391  0.87578610  0.75342370  1
  V  V25  1  0.93181970  0.82912487  0.44747634  1
  V  V26  1  0.11790954  0.87135303  0.26151265  1
  V  V27  1  0.75287538  0.87280538  0.61203187  1
  V  V28  1  0.25037945  0.50154425  0.74241597  1
  V  V29  1  0.24176014  0.37654125  0.12354968  1
  V  V30  1  0.00195047  0.24999415  0.75099767  1
  V  V31  1  -0.01176030  0.24621790  0.24766798  1
  V  V32  1  0.61877370  0.61143276  0.00092540  1
  V  V33  1  0.87260165  0.49934089  0.87206428  1
  V  V34  1  -0.00109938  0.74825543  0.75011909  1
  V  V35  1  0.63669797  0.63014725  0.51009446  1
  V  V36  1  0.37971839  0.49381741  0.37400857  1
  V  V37  1  0.88390292  0.74164595  0.12798807  1
  V  V38  1  0.12319713  -0.00213120  0.62355884  1
  V  V39  1  0.13067206  0.12535471  -0.00501695  1
  V  V40  1  0.37420167  0.87631606  -0.00736297  1
  V  V41  1  0.25520417  0.24908995  -0.00516552  1
  V  V42  1  0.74029299  0.37426198  0.14299129  1
  V  V43  1  0.88261079  0.00777774  0.38505042  1
  V  V44  1  0.11950906  0.12097976  0.49828737  1
  V  V45  1  0.49337910  -0.00073995  0.49152538  1
  V  V46  1  0.86277713  0.49705186  0.37171242  1
  V  V47  1  0.86985420  0.62068591  0.74568715  1
  V  V48  1  0.12422215  0.00092887  0.12323505  1
  V  V49  1  0.37523706  0.38910049  0.00353050  1
  V  V50  1  0.12310843  0.74703469  0.87644412  1
  V  V51  1  0.61212905  0.87141547  0.25475121  1
  V  V52  1  0.49682050  0.75278017  0.75557654  1
  V  V53  1  0.51249280  0.25447244  0.74320604  1
  V  V54  1  0.87234191  0.75312469  0.61855419  1
  V  V55  1  0.51426590  0.36503449  0.89727070  1
  V  V56  1  0.75111765  -0.00158727  0.74957881  1
  V  V57  1  0.25099727  0.61923166  0.87676708  1
  V  V58  1  0.43494216  0.82315600  0.44070362  1
  V  V59  1  0.24918733  0.12458845  0.37396414  1
  V  V60  1  0.11909270  0.62066711  0.01536761  1
  V  V61  1  0.50675138  0.12102829  0.11385662  1
  V  V62  1  0.37583648  0.63492193  0.25141824  1
  V  V63  1  0.50192654  0.61843859  0.63027258  1
  V  V64  1  0.74940344  0.63401910  0.36623303  1
  V  V65  1  0.12106591  0.37681843  0.24624728  1
  V  V66  1  0.01485354  0.49837099  0.50283980  1
  V  V67  1  -0.00204187  0.37474896  0.37583583  1
  V  V68  1  -0.00154619  -0.00186575  -0.00328865  1
  V  V69  1  0.54338438  0.93328441  0.93719758  1
  V  V70  1  0.62632657  0.12305019  0.49545686  1
  V  V71  1  0.75031605  0.87266519  0.12919874  1
  V  V72  1  0.73531612  0.13500519  0.88607686  1
  V  V73  1  0.49865666  0.62330551  0.12698040  1
  V  V74  1  0.37373629  0.01412642  0.88145350  1
  V  V75  1  0.87633512  0.37498358  0.50302726  1
  V  V76  1  0.23614491  0.62502331  0.38273405  1
  V  V77  1  0.62761498  0.39561831  0.74729100  1
  V  V78  1  0.62211321  0.74972085  0.87803846  1
  V  V79  1  0.00011128  0.37622995  0.87636261  1
  V  V80  1  0.86172018  0.36710959  -0.00036801  1
  V  V81  1  0.01203071  0.62150118  0.61943185  1
  V  V82  1  0.24884179  0.74797349  0.00051089  1
  V  V83  1  0.12668884  0.38053020  0.74447455  1
  V  V84  1  0.12964313  0.24923532  0.87428671  1
  Zn  Zn85  1  0.62561540  0.49995181  0.13576991  1
  Zn  Zn86  1  0.37654040  0.75116577  0.62371157  1
  Zn  Zn87  1  0.75387082  0.12856916  0.36782710  1
  Zn  Zn88  1  0.87711766  0.87199422  -0.00062030  1
  Zn  Zn89  1  0.86130939  0.24292280  0.12178042  1
  Zn  Zn90  1  0.24941147  0.25328476  0.49869851  1
  Zn  Zn91  1  0.62189211  0.75634544  0.37964717  1
  Zn  Zn92  1  0.37664575  0.37467090  0.49612040  1
  Zn  Zn93  1  0.37545974  0.62572879  0.75171208  1
  Zn  Zn94  1  0.59398259  0.40957503  0.29107707  1
  Zn  Zn95  1  0.87976633  0.61472975  0.24340698  1
  Zn  Zn96  1  0.00227389  0.75102922  0.25949695  1
  Zn  Zn97  1  0.37577504  0.25141326  0.12526549  1
  Zn  Zn98  1  0.87628105  -0.00341448  0.87430573  1
  Zn  Zn99  1  0.12715241  0.87436589  0.75265058  1
  Zn  Zn100  1  0.38078624  0.75520240  0.12883454  1
  Zn  Zn101  1  0.62190686  -0.00130315  0.11684963  1
  Zn  Zn102  1  0.62180125  0.25499614  0.37733372  1
  Zn  Zn103  1  0.24622044  0.38204087  0.61739330  1
  Zn  Zn104  1  -0.00282473  0.87333612  0.87433737  1
  Zn  Zn105  1  0.37522304  -0.00502754  0.37653156  1
  Zn  Zn106  1  0.38959061  0.50206701  0.87648408  1
  Zn  Zn107  1  0.18429444  0.18991858  0.18315156  1
  Zn  Zn108  1  0.18981105  0.18703899  0.68743642  1
  Zn  Zn109  1  0.18797951  0.69121383  0.19107928  1
  Zn  Zn110  1  0.19035053  0.68911415  0.68842777  1
  Zn  Zn111  1  0.68220314  0.19007385  0.18048317  1
  Zn  Zn112  1  0.68948129  0.18515583  0.68395355  1
  Zn  Zn113  1  0.68302101  0.68762302  0.19024082  1
  Zn  Zn114  1  0.68912320  0.68935881  0.68873213  1
  Zn  Zn115  1  0.31338169  0.31086876  0.31004469  1
  Zn  Zn116  1  0.31827496  0.31696884  0.81482805  1
  Zn  Zn117  1  0.29700677  0.80849897  0.31303695  1
  Zn  Zn118  1  0.31275965  0.81528382  0.81390363  1
  Zn  Zn119  1  0.80933229  0.31047773  0.31588658  1
  Zn  Zn120  1  0.80684227  0.31236637  0.81249203  1
  Zn  Zn121  1  0.80928346  0.81322452  0.30838629  1
  Zn  Zn122  1  0.81325599  0.81151427  0.81206159  1
  Zn  Zn123  1  0.19129202  0.43428408  0.43302331  1
  Zn  Zn124  1  0.18442863  0.43908076  0.93612411  1
  Zn  Zn125  1  0.18878383  0.93848965  0.44090296  1
  Zn  Zn126  1  0.18837744  0.93726152  0.93467767  1
  Zn  Zn127  1  0.68677241  0.44004844  0.44312357  1
  Zn  Zn128  1  0.68707078  0.43562753  0.93189063  1
  Zn  Zn129  1  0.68858785  0.94093323  0.43044516  1
  Zn  Zn130  1  0.70777293  0.93767020  0.93709223  1
  Zn  Zn131  1  0.31534341  0.06406948  0.06283277  1
  Zn  Zn132  1  0.31057789  0.06433453  0.56156015  1
  Zn  Zn133  1  0.30751793  0.56593733  0.06824098  1
  Zn  Zn134  1  0.31691736  0.56474754  0.56247403  1
  Zn  Zn135  1  0.81177692  0.06000077  0.06103675  1
  Zn  Zn136  1  0.81247156  0.06153767  0.56319473  1
  Zn  Zn137  1  0.80987733  0.55647423  0.06345457  1
  Zn  Zn138  1  0.82193718  0.56522581  0.55556185  1
  Zn  Zn139  1  0.43420565  0.44243918  0.18446277  1
  Zn  Zn140  1  0.43631474  0.43897451  0.68866154  1
  Zn  Zn141  1  0.43479932  0.94148026  0.18470217  1
  Zn  Zn142  1  0.43793076  0.93864439  0.68997561  1
  Zn  Zn143  1  0.92856618  0.43062079  0.18703941  1
  Zn  Zn144  1  0.93927273  0.43883553  0.68706467  1
  Zn  Zn145  1  0.93454194  0.93586406  0.18707069  1
  Zn  Zn146  1  0.93889611  0.93462425  0.68594353  1
  Zn  Zn147  1  0.05867491  0.05916804  0.30956982  1
  Zn  Zn148  1  0.06433483  0.06280932  0.81292112  1
  Zn  Zn149  1  0.05927158  0.55575306  0.30813358  1
  Zn  Zn150  1  0.06082661  0.56256676  0.81437112  1
  Zn  Zn151  1  0.56585901  0.06051070  0.30886592  1
  Zn  Zn152  1  0.56309004  0.06988531  0.80806146  1
  Zn  Zn153  1  0.56108924  0.57678062  0.31492877  1
  Zn  Zn154  1  0.55863377  0.55778432  0.81962678  1
  Zn  Zn155  1  0.43508825  0.18600146  0.43621407  1
  Zn  Zn156  1  0.45581605  0.20497740  0.94066300  1
  Zn  Zn157  1  0.43479849  0.66178270  0.44091585  1
  Zn  Zn158  1  0.43722602  0.68838336  0.94072968  1
  Zn  Zn159  1  0.93628557  0.18425934  0.43674036  1
  Zn  Zn160  1  0.93789852  0.18570867  0.93581736  1
  Zn  Zn161  1  0.96420789  0.65851672  0.40796691  1
  Zn  Zn162  1  0.93682953  0.68343477  0.93974355  1
  Zn  Zn163  1  0.05940133  0.31155695  0.06127731  1
  Zn  Zn164  1  0.06453721  0.30929333  0.56205363  1
  Zn  Zn165  1  0.06346687  0.81247964  0.06429356  1
  Zn  Zn166  1  0.06338087  0.81479064  0.57109137  1
  Zn  Zn167  1  0.55621754  0.31604464  0.07246532  1
  Zn  Zn168  1  0.56566102  0.31647038  0.56440027  1
  Zn  Zn169  1  0.56565149  0.80347249  0.07386515  1
  Zn  Zn170  1  0.56774322  0.80634898  0.57129547  1
  O  O171  1  0.11669038  0.12168750  0.11268796  1
  O  O172  1  0.12261913  0.11871439  0.61736633  1
  O  O173  1  0.12816910  0.62853693  0.11453652  1
  O  O174  1  0.11034269  0.62787449  0.63247704  1
  O  O175  1  0.61177267  0.12101857  0.12064593  1
  O  O176  1  0.61854554  0.11762934  0.61507482  1
  O  O177  1  0.61877401  0.62479807  0.11726885  1
  O  O178  1  0.62155038  0.62939214  0.61709359  1
  O  O179  1  0.37047211  0.38956599  0.37237844  1
  O  O180  1  0.38347135  0.37708439  0.89267030  1
  O  O181  1  0.37314190  0.87390172  0.37522114  1
  O  O182  1  0.37273404  0.88475124  0.88756133  1
  O  O183  1  0.87779532  0.37898930  0.38232757  1
  O  O184  1  0.87755325  0.37997204  0.88173189  1
  O  O185  1  0.86832041  0.88281514  0.38273142  1
  O  O186  1  0.87724369  0.87640795  0.88013162  1
  O  O187  1  0.24966812  0.01144678  0.36978154  1
  O  O188  1  0.25967465  -0.00075741  0.86652171  1
  O  O189  1  0.25495485  0.50758430  0.36630575  1
  O  O190  1  0.24552737  0.51221369  0.86872714  1
  O  O191  1  0.75778836  0.00431459  0.36225370  1
  O  O192  1  0.75336813  0.00965715  0.86128294  1
  O  O193  1  0.75666468  0.50986762  0.38338416  1
  O  O194  1  0.76452724  0.50615899  0.87949495  1
  O  O195  1  0.24813506  0.49432001  0.13962714  1
  O  O196  1  0.25350085  0.50277044  0.63818461  1
  O  O197  1  0.24454043  0.99458886  0.12900159  1
  O  O198  1  0.24304054  0.99453559  0.63017700  1
  O  O199  1  0.74844047  0.47952576  0.12058853  1
  O  O200  1  0.76235191  0.48986681  0.62185643  1
  O  O201  1  0.74828868  0.99162934  0.13138484  1
  O  O202  1  0.74572820  0.99472884  0.63421380  1
  O  O203  1  0.00489010  0.36759421  0.25252651  1
  O  O204  1  0.00695008  0.37044698  0.75590451  1
  O  O205  1  0.01487542  0.87392395  0.24257986  1
  O  O206  1  0.00281988  0.85961760  0.75060896  1
  O  O207  1  0.49633270  0.35956801  0.24159651  1
  O  O208  1  0.51683317  0.37189730  0.74166886  1
  O  O209  1  0.51339121  0.88077986  0.24345754  1
  O  O210  1  0.50876708  0.86539036  0.74504012  1
  O  O211  1  0.49290245  0.13031330  0.24585144  1
  O  O212  1  0.49335837  0.13431212  0.74052333  1
  O  O213  1  0.48479441  0.62890083  0.24550580  1
  O  O214  1  0.50121950  0.62955600  0.74650959  1
  O  O215  1  1.00900806  0.13486551  0.23732428  1
  O  O216  1  0.99363991  0.12999812  0.74547321  1
  O  O217  1  0.98755162  0.63866606  0.28759367  1
  O  O218  1  0.99100641  0.63222199  0.74535864  1
  O  O219  1  0.36850361  0.26435400  0.00371226  1
  O  O220  1  0.37487206  0.25083450  0.50907360  1
  O  O221  1  0.36555299  0.75952929  0.00025248  1
  O  O222  1  0.37773385  0.75663035  0.49710915  1
  O  O223  1  0.88463354  0.26526244  0.00043907  1
  O  O224  1  0.86921122  0.25429524  0.50600803  1
  O  O225  1  0.86508504  0.74618328  0.00937132  1
  O  O226  1  0.88420817  0.75751837  0.50868710  1
  O  O227  1  0.12605177  0.24099829  0.49014059  1
  O  O228  1  0.13163329  0.24427083  0.99447619  1
  O  O229  1  0.12958380  0.74748948  0.50583559  1
  O  O230  1  0.12735667  0.74179353  0.99493722  1
  O  O231  1  0.63189698  0.24064993  0.50455144  1
  O  O232  1  0.55375242  0.28710965  0.96341356  1
  O  O233  1  0.62083086  0.73478810  0.49867011  1
  O  O234  1  0.63580667  0.74327837  0.99717644  1
  O  O235  1  0.49707467  0.23773646  0.13676775  1
  O  O236  1  0.49120770  0.24618127  0.62779796  1
  O  O237  1  0.49448800  0.73346890  0.12425202  1
  O  O238  1  0.50044157  0.74012159  0.63934144  1
  O  O239  1  0.99886262  0.24208605  0.13136918  1
  O  O240  1  0.99535917  0.24220228  0.63220008  1
  O  O241  1  0.98562259  0.74960478  0.12282081  1
  O  O242  1  0.99267816  0.74338721  0.63276151  1
  O  O243  1  0.00259043  0.25381153  0.36649728  1
  O  O244  1  0.00681765  0.25593735  0.86942141  1
  O  O245  1  -0.01195082  0.77020922  0.38530262  1
  O  O246  1  0.00605426  0.74687855  0.86919482  1
  O  O247  1  0.49720618  0.24470126  0.35944411  1
  O  O248  1  0.47928456  0.26514514  0.84518387  1
  O  O249  1  0.49148110  0.75702302  0.38853206  1
  O  O250  1  0.50685563  0.74481172  0.86477411  1
  O  O251  1  0.23979414  0.12709668  0.49003982  1
  O  O252  1  0.24273534  0.13623935  1.00622394  1
  O  O253  1  0.25413275  0.63162115  0.48965894  1
  O  O254  1  0.24007130  0.62790141  0.99467650  1
  O  O255  1  0.74129167  0.13220115  0.50309927  1
  O  O256  1  0.75186329  0.11878021  0.98467609  1
  O  O257  1  0.73889076  0.62328637  0.49892753  1
  O  O258  1  0.74395988  0.62966620  0.99541594  1
  O  O259  1  0.25071353  0.37102154  0.00681382  1
  O  O260  1  0.25586928  0.37170874  0.50091124  1
  O  O261  1  0.25491388  0.87057330  0.00561418  1
  O  O262  1  0.24484788  0.86367381  0.50815257  1
  O  O263  1  0.76127823  0.37211093  -0.00559532  1
  O  O264  1  0.75600234  0.36764289  0.51056257  1
  O  O265  1  0.75176968  0.86381931  0.01213880  1
  O  O266  1  0.74276558  0.88159873  0.51337580  1
  O  O267  1  0.12975424  0.48486737  0.25400822  1
  O  O268  1  0.13252966  0.49072472  0.75705913  1
  O  O269  1  0.12916911  0.99298491  0.24135767  1
  O  O270  1  0.13500480  1.00012601  0.74542285  1
  O  O271  1  0.61911036  0.50698399  0.25004470  1
  O  O272  1  0.62662602  0.49408938  0.74804178  1
  O  O273  1  0.63720607  0.98935825  0.24879639  1
  O  O274  1  0.63103166  0.99668429  0.74320302  1
  O  O275  1  0.36674908  0.00711325  0.25396380  1
  O  O276  1  0.37058917  0.00747778  0.75865942  1
  O  O277  1  0.36532551  0.50804570  0.25555668  1
  O  O278  1  0.36565822  0.50115712  0.75796264  1
  O  O279  1  0.85939155  -0.00758621  0.25498563  1
  O  O280  1  0.86792128  0.00721923  0.74805772  1
  O  O281  1  0.88107055  0.49817926  0.26654159  1
  O  O282  1  0.88161158  0.50915625  0.75902501  1
  O  O283  1  0.11820531  0.36734628  0.36603583  1
  O  O284  1  0.11972459  0.36862478  0.86699152  1
  O  O285  1  0.12863176  0.88342648  0.35945854  1
  O  O286  1  0.12466409  0.85920599  0.87488675  1
  O  O287  1  0.62298093  0.36773755  0.38777985  1
  O  O288  1  0.62458799  0.37589101  0.85548437  1
  O  O289  1  0.62711787  0.87370149  0.36115258  1
  O  O290  1  0.61876417  0.87444576  0.87653463  1
  O  O291  1  0.37996841  0.12605434  0.13703050  1
  O  O292  1  0.37933909  0.13279314  0.62964956  1
  O  O293  1  0.37784044  0.62712539  0.13416649  1
  O  O294  1  0.38662325  0.63100561  0.62891782  1
  O  O295  1  0.88730860  0.12691617  0.11863748  1
  O  O296  1  0.87929320  0.12800192  0.63493228  1
  O  O297  1  0.86804676  0.63637775  0.12727209  1
  O  O298  1  0.88081477  0.63331723  0.63049421  1
  O  O299  1  0.25047399  0.25898304  0.11457571  1
  O  O300  1  0.25832814  0.25144550  0.62142108  1
  O  O301  1  0.25115966  0.75947908  0.11811258  1
  O  O302  1  0.25296849  0.75636172  0.61685972  1
  O  O303  1  0.74759959  0.26490198  0.12510744  1
  O  O304  1  0.75685318  0.25337908  0.61620419  1
  O  O305  1  0.75489688  0.75397116  0.12016682  1
  O  O306  1  0.76230577  0.75828930  0.62879296  1
  O  O307  1  0.24328218  0.23792622  0.37154544  1
  O  O308  1  0.24711478  0.25672614  0.88720504  1
  O  O309  1  0.24660455  0.73470166  0.38486190  1
  O  O310  1  0.24317030  0.73982803  0.87904292  1
  O  O311  1  0.75006555  0.24601352  0.39000262  1
  O  O312  1  0.75332402  0.23325127  0.87252120  1
  O  O313  1  0.75251239  0.73680940  0.37612437  1
  O  O314  1  0.74476491  0.74363233  0.88419216  1
  O  O315  1  0.00691241  0.11560469  0.00403116  1
  O  O316  1  0.01172422  0.12866922  0.50685806  1
  O  O317  1  0.00408236  0.60906832  -0.00208110  1
  O  O318  1  -0.00146269  0.61083215  0.50607860  1
  O  O319  1  0.48964224  0.12701885  0.01606175  1
  O  O320  1  0.50592012  0.11817631  0.50342215  1
  O  O321  1  0.50995385  0.62750346  0.00645330  1
  O  O322  1  0.51028864  0.61782185  0.51252418  1
  O  O323  1  0.49811219  0.39156531  0.50960535  1
  O  O324  1  0.47613345  0.39485848  1.01759442  1
  O  O325  1  0.49793617  0.87866309  0.50364575  1
  O  O326  1  0.49146548  0.86860225  1.00395205  1
  O  O327  1  0.99430900  0.37600607  0.49688575  1
  O  O328  1  0.99466382  0.38435729  0.99540673  1
  O  O329  1  0.99530828  0.88042548  0.50519623  1
  O  O330  1  1.00296927  0.88774061  1.00055957  1
  O  O331  1  0.49090922  0.51204982  0.38627737  1
  O  O332  1  0.50467978  0.47459131  0.87809385  1
  O  O333  1  0.49986068  1.00275115  0.38751803  1
  O  O334  1  0.49322991  0.99881304  0.87122363  1
  O  O335  1  0.99366075  0.48981074  0.38453029  1
  O  O336  1  0.98923534  0.49430777  0.88097030  1
  O  O337  1  0.98140137  0.99955492  0.36725293  1
  O  O338  1  1.00065888  0.99685300  0.88277645  1
  O  O339  1  0.00434891  0.00649790  0.11884556  1
  O  O340  1  0.01530816  0.00506072  0.63460224  1
  O  O341  1  -0.00726713  0.49495637  0.11332390  1
  O  O342  1  -0.00534100  0.50903647  0.61511587  1
  O  O343  1  0.50126061  0.01610247  0.12869883  1
  O  O344  1  0.50406240  0.00422052  0.61618334  1
  O  O345  1  0.50014612  0.51686306  0.12848396  1
  O  O346  1  0.49609788  0.51247016  0.61989815  1
  O  O347  1  0.24180949  0.37959033  0.24352089  1
  O  O348  1  0.24329801  0.38524251  0.75233677  1
  O  O349  1  0.24083906  0.88056765  0.24170553  1
  O  O350  1  0.24991615  0.88671607  0.74437953  1
  O  O351  1  0.74813478  0.37400006  0.24297803  1
  O  O352  1  0.73784617  0.37249336  0.74234098  1
  O  O353  1  0.74439618  0.88160544  0.24019059  1
  O  O354  1  0.74324779  0.88348482  0.74761378  1
  O  O355  1  0.25365179  0.12202645  0.25338151  1
  O  O356  1  0.25754204  0.11219272  0.74530868  1
  O  O357  1  0.25023075  0.61818138  0.25894209  1
  O  O358  1  0.25088626  0.61918533  0.75869361  1
  O  O359  1  0.74319389  0.11110178  0.24513146  1
  O  O360  1  0.75694328  0.11733434  0.75179912  1
  O  O361  1  0.75357579  0.62733673  0.26358268  1
  O  O362  1  0.76310689  0.63002533  0.75551918  1
  O  O363  1  0.36523356  0.12370881  0.36440408  1
  O  O364  1  0.38414712  0.11778871  0.87327843  1
  O  O365  1  0.36303431  0.61463791  0.36660211  1
  O  O366  1  0.36549817  0.62134196  0.87698361  1
  O  O367  1  0.87198351  0.11383348  0.37370386  1
  O  O368  1  0.87368844  0.12223358  0.86236630  1
  O  O369  1  0.85750858  0.61389147  0.38407086  1
  O  O370  1  0.87120412  0.61767118  0.86749786  1
  O  O371  1  0.13337756  0.37041369  0.13068941  1
  O  O372  1  0.12704462  0.36685310  0.64057501  1
  O  O373  1  0.13592534  0.88082342  0.12643207  1
  O  O374  1  0.13573885  0.88323356  0.63099708  1
  O  O375  1  0.63510369  0.37739026  0.12491456  1
  O  O376  1  0.63719711  0.37523464  0.63598296  1
  O  O377  1  0.63301598  0.87597888  0.13422814  1
  O  O378  1  0.63313581  0.87930081  0.63298265  1
  O  O379  1  0.11779765  0.25912331  0.25323770  1
  O  O380  1  0.12264451  0.25353488  0.75743689  1
  O  O381  1  0.12337162  0.76596217  0.24920052  1
  O  O382  1  0.11729394  0.74830160  0.75912675  1
  O  O383  1  0.60927008  0.24403866  0.25456335  1
  O  O384  1  0.61431066  0.24952166  0.74181155  1
  O  O385  1  0.62717388  0.76576663  0.25526485  1
  O  O386  1  0.62153112  0.75654698  0.75979276  1
  O  O387  1  0.38238820  0.24184261  0.24724667  1
  O  O388  1  0.37397483  0.24574800  0.73798132  1
  O  O389  1  0.36107750  0.73818815  0.24855711  1
  O  O390  1  0.38401031  0.74938137  0.75147644  1
  O  O391  1  0.88538284  0.25351804  0.24692277  1
  O  O392  1  0.88019080  0.24326819  0.74621533  1
  O  O393  1  0.87710584  0.75111459  0.23566118  1
  O  O394  1  0.88197397  0.74241147  0.74290328  1
  O  O395  1  0.38444795  0.50223719  0.49089209  1
  O  O396  1  0.35546332  0.49052056  0.99551409  1
  O  O397  1  0.38448697  1.00404137  0.49710242  1
  O  O398  1  0.37120879  0.99341533  0.99123705  1
  O  O399  1  0.88278529  0.48968060  0.49100915  1
  O  O400  1  0.88323072  0.48982954  0.99452260  1
  O  O401  1  0.87176462  1.00355105  0.48526612  1
  O  O402  1  0.88559539  0.99677673  0.99750492  1
  O  O403  1  0.12204682  0.00739592  0.00293292  1
  O  O404  1  0.12977029  0.00892565  0.51099228  1
  O  O405  1  0.10894535  0.50510757  -0.00295358  1
  O  O406  1  0.11395162  0.48844038  0.49907782  1
  O  O407  1  0.61542435  -0.01704920  -0.00509560  1
  O  O408  1  0.61903314  0.00588758  0.50360197  1
  O  O409  1  0.63035884  0.50991674  0.00107719  1
  O  O410  1  0.61748993  0.51699557  0.49867083  1
  O  O411  1  0.35894693  0.37698172  0.11935855  1
  O  O412  1  0.37110774  0.36587333  0.62527870  1
  O  O413  1  0.36377996  0.87773048  0.11607528  1
  O  O414  1  0.36253123  0.87420912  0.62903850  1
  O  O415  1  0.86196106  0.37048715  0.11397471  1
  O  O416  1  0.87035890  0.36743033  0.62381999  1
  O  O417  1  0.86728998  0.86279681  0.12172714  1
  O  O418  1  0.86586872  0.86553185  0.63090717  1
  O  O419  1  0.12829986  0.12560762  0.37976831  1
  O  O420  1  0.12238939  0.13142912  0.88769421  1
  O  O421  1  0.13829672  0.61477366  0.37544735  1
  O  O422  1  0.12911883  0.63326193  0.88283983  1
  O  O423  1  0.62810565  0.12635870  0.38703685  1
  O  O424  1  0.63542733  0.12574033  0.87357881  1
  O  O425  1  0.63741186  0.63275100  0.38544430  1
  O  O426  1  0.62970722  0.62813439  0.88262478  1
