# generated using pymatgen
data_V85Zn86O256
_symmetry_space_group_name_H-M   'P 1'
_cell_length_a   16.93341230
_cell_length_b   16.93085793
_cell_length_c   16.93819201
_cell_angle_alpha   89.92198703
_cell_angle_beta   89.97571423
_cell_angle_gamma   90.03859913
_symmetry_Int_Tables_number   1
_chemical_formula_structural   V85Zn86O256
_chemical_formula_sum   'V85 Zn86 O256'
_cell_volume   4856.12614369
_cell_formula_units_Z   1
loop_
 _symmetry_equiv_pos_site_id
 _symmetry_equiv_pos_as_xyz
  1  'x, y, z'
loop_
 _atom_site_type_symbol
 _atom_site_label
 _atom_site_symmetry_multiplicity
 _atom_site_fract_x
 _atom_site_fract_y
 _atom_site_fract_z
 _atom_site_occupancy
  V  V0  1  0.38020391  0.25298163  0.12015833  1
  V  V1  1  0.37371129  0.62636469  0.75288468  1
  V  V2  1  0.37700697  0.38157557  0.49106226  1
  V  V3  1  0.49516443  0.00612558  0.49853663  1
  V  V4  1  0.74399341  0.25554371  -0.01020238  1
  V  V5  1  0.00344220  0.75284613  0.74739944  1
  V  V6  1  0.12317190  0.75481807  0.87578809  1
  V  V7  1  0.24396592  0.74826174  0.00338728  1
  V  V8  1  -0.01541487  0.61228145  0.12223899  1
  V  V9  1  0.75070647  -0.00138124  0.74689582  1
  V  V10  1  -0.00729136  0.86913625  0.37868677  1
  V  V11  1  0.37399420  0.60722892  0.25600023  1
  V  V12  1  0.49534758  0.50582233  0.49174123  1
  V  V13  1  0.62435051  0.61509945  -0.00015383  1
  V  V14  1  0.25292182  0.38074543  0.62557114  1
  V  V15  1  0.38583164  0.11915867  0.25119615  1
  V  V16  1  0.62358566  0.87667902  0.24971810  1
  V  V17  1  0.12673732  0.38000187  0.75106125  1
  V  V18  1  0.24979263  0.74949449  0.49702288  1
  V  V19  1  0.37677395  0.75812913  0.62503681  1
  V  V20  1  0.87699210  0.37766728  -0.00240764  1
  V  V21  1  0.87273411  0.24316309  0.12731316  1
  V  V22  1  0.24989946  -0.00466877  0.75438447  1
  V  V23  1  0.75241425  0.75004657  0.00286620  1
  V  V24  1  0.00132770  0.87596873  0.87177224  1
  V  V25  1  0.87632239  0.00021528  0.37756789  1
  V  V26  1  0.12748130  0.12240683  0.49917871  1
  V  V27  1  0.12608417  0.13042504  0.00338878  1
  V  V28  1  0.49645732  0.74635878  0.25126496  1
  V  V29  1  0.88405713  0.50226037  0.87598822  1
  V  V30  1  0.87691512  0.12635552  0.75124576  1
  V  V31  1  0.62565633  0.12851951  0.49725503  1
  V  V32  1  0.87621937  0.62589579  0.73958553  1
  V  V33  1  0.12586075  0.00105077  0.12878497  1
  V  V34  1  0.49088874  0.88216220  0.37491833  1
  V  V35  1  0.75988023  0.87456563  0.61761584  1
  V  V36  1  0.25124129  0.12712988  0.87701294  1
  V  V37  1  0.12444963  0.61384751  0.50605698  1
  V  V38  1  0.75495363  0.00522340  0.24723799  1
  V  V39  1  0.12849841  0.25477044  0.36915786  1
  V  V40  1  -0.00590760  0.48122293  0.50698346  1
  V  V41  1  0.49951545  0.62052922  0.12492241  1
  V  V42  1  0.49790512  0.75739745  0.76111750  1
  V  V43  1  0.62489242  0.74694453  0.37552194  1
  V  V44  1  0.25326634  -0.00128636  0.26068419  1
  V  V45  1  0.74367592  0.37636612  0.13749197  1
  V  V46  1  0.38375867  0.86787175  -0.00202076  1
  V  V47  1  0.00097709  -0.00007352  0.00060489  1
  V  V48  1  0.75929842  0.75190202  0.49430388  1
  V  V49  1  0.25459088  0.24803417  0.50421688  1
  V  V50  1  0.00115029  0.12338871  0.62627824  1
  V  V51  1  0.37205416  0.74642384  0.12900707  1
  V  V52  1  0.50492086  0.25574545  0.24989827  1
  V  V53  1  0.24438458  0.87332842  0.63022932  1
  V  V54  1  0.61908320  0.50122679  0.62933046  1
  V  V55  1  0.37968174  -0.00398897  0.87806778  1
  V  V56  1  -0.00208103  -0.00559638  0.50043500  1
  V  V57  1  0.12181235  0.74422271  0.37085757  1
  V  V58  1  0.24685033  0.61604925  0.88018317  1
  V  V59  1  0.62290099  0.75214471  0.87434834  1
  V  V60  1  0.24128584  0.37345612  0.13491919  1
  V  V61  1  0.75341051  0.87373588  0.12562599  1
  V  V62  1  0.73554316  0.12944512  0.86882886  1
  V  V63  1  0.25080505  0.60944451  0.37062412  1
  V  V64  1  0.39383325  0.24740319  0.62756287  1
  V  V65  1  0.87439229  0.00214741  0.87414572  1
  V  V66  1  0.12635925  -0.00311470  0.62926335  1
  V  V67  1  0.75842064  0.12982592  0.36929616  1
  V  V68  1  0.75000972  0.62305563  0.87185039  1
  V  V69  1  0.88007157  0.25919181  0.62071745  1
  V  V70  1  0.61949965  0.12646941  0.00205556  1
  V  V71  1  0.00328751  0.25208079  0.75602548  1
  V  V72  1  0.62319461  0.49492522  0.14157978  1
  V  V73  1  0.75825218  0.25590953  0.49475742  1
  V  V74  1  0.25019444  0.50049549  0.75077101  1
  V  V75  1  0.24865175  0.87401246  0.12707302  1
  V  V76  1  0.62625037  0.00057415  0.61876296  1
  V  V77  1  0.75031021  0.37886386  0.62419701  1
  V  V78  1  0.62259302  0.63075211  0.50210357  1
  V  V79  1  0.49339235  0.37275967  0.86913591  1
  V  V80  1  0.12488398  0.50054840  0.13791243  1
  V  V81  1  0.87340472  0.87429745  0.00098766  1
  V  V82  1  0.62420297  0.87590809  0.74988211  1
  V  V83  1  -0.01511791  0.74882339  0.23906827  1
  V  V84  1  0.49848308  0.00124769  0.00404190  1
  Zn  Zn85  1  0.25407597  0.26357614  -0.00216123  1
  Zn  Zn86  1  0.25798786  0.11913250  0.37891722  1
  Zn  Zn87  1  0.88216570  0.75206312  0.61425249  1
  Zn  Zn88  1  0.12286372  0.87378306  0.25137144  1
  Zn  Zn89  1  0.00538360  0.38156094  0.88049080  1
  Zn  Zn90  1  0.85108921  0.59960816  0.25146598  1
  Zn  Zn91  1  0.36998960  0.88394738  0.49583892  1
  Zn  Zn92  1  0.63133490  0.25693162  0.36372987  1
  Zn  Zn93  1  0.00138046  0.24458370  0.24901541  1
  Zn  Zn94  1  0.46543115  0.47828330  -0.00391737  1
  Zn  Zn95  1  0.61901118  0.35510391  0.75105092  1
  Zn  Zn96  1  0.37805067  0.13173228  0.74740401  1
  Zn  Zn97  1  -0.01013216  0.11943837  0.13283970  1
  Zn  Zn98  1  -0.00158413  0.37543909  0.36281303  1
  Zn  Zn99  1  0.11256636  0.61484150  0.00029127  1
  Zn  Zn100  1  0.12923281  0.25467640  0.87843604  1
  Zn  Zn101  1  0.62051652  0.00202493  0.12646386  1
  Zn  Zn102  1  0.50408620  0.39166755  0.36286872  1
  Zn  Zn103  1  0.00683392  0.62111690  0.62586177  1
  Zn  Zn104  1  0.75030630  0.50004039  0.74689921  1
  Zn  Zn105  1  0.49767191  0.62920177  0.62897087  1
  Zn  Zn106  1  0.86129849  0.48482013  0.36854056  1
  Zn  Zn107  1  0.19661691  0.18251751  0.18737912  1
  Zn  Zn108  1  0.19146007  0.18810882  0.68954347  1
  Zn  Zn109  1  0.18203870  0.67857399  0.19108086  1
  Zn  Zn110  1  0.18652106  0.68988344  0.68993801  1
  Zn  Zn111  1  0.68944703  0.18701582  0.18046065  1
  Zn  Zn112  1  0.69307497  0.18565961  0.67764149  1
  Zn  Zn113  1  0.68643050  0.68888636  0.18416916  1
  Zn  Zn114  1  0.68908427  0.68936399  0.68300479  1
  Zn  Zn115  1  0.31541872  0.30917165  0.31232731  1
  Zn  Zn116  1  0.32125728  0.31304331  0.81368461  1
  Zn  Zn117  1  0.31065367  0.80991384  0.31396464  1
  Zn  Zn118  1  0.30917545  0.81197867  0.81480320  1
  Zn  Zn119  1  0.82204594  0.32249787  0.30957474  1
  Zn  Zn120  1  0.81171458  0.31577392  0.80843447  1
  Zn  Zn121  1  0.81088693  0.81225514  0.31280454  1
  Zn  Zn122  1  0.81340109  0.81090485  0.81115806  1
  Zn  Zn123  1  0.18534595  0.43669129  0.43829112  1
  Zn  Zn124  1  0.18453846  0.43804603  0.95084011  1
  Zn  Zn125  1  0.18107000  0.93163897  0.43773455  1
  Zn  Zn126  1  0.18836832  0.93593615  0.94054578  1
  Zn  Zn127  1  0.68126984  0.43184433  0.43785100  1
  Zn  Zn128  1  0.67912416  0.43427818  0.93019149  1
  Zn  Zn129  1  0.68621195  0.93537596  0.43394757  1
  Zn  Zn130  1  0.68426354  0.93973284  0.93414455  1
  Zn  Zn131  1  0.31311683  0.06539277  0.06717055  1
  Zn  Zn132  1  0.31538513  0.06395964  0.56861194  1
  Zn  Zn133  1  0.30198891  0.55683006  0.07203709  1
  Zn  Zn134  1  0.31128369  0.56515628  0.56493724  1
  Zn  Zn135  1  0.80585025  0.06238669  0.05658790  1
  Zn  Zn136  1  0.81451368  0.06704667  0.55909672  1
  Zn  Zn137  1  0.80822951  0.55573839  0.06336440  1
  Zn  Zn138  1  0.78972417  0.54288298  0.51917803  1
  Zn  Zn139  1  0.43738982  0.43316489  0.18060119  1
  Zn  Zn140  1  0.43581319  0.43817542  0.68886634  1
  Zn  Zn141  1  0.43554317  0.93588583  0.18518042  1
  Zn  Zn142  1  0.48518755  0.99340103  0.73245696  1
  Zn  Zn143  1  0.93635519  0.42738849  0.19389210  1
  Zn  Zn144  1  0.94103488  0.44147062  0.68508371  1
  Zn  Zn145  1  0.93583477  0.93658311  0.18993746  1
  Zn  Zn146  1  0.93877238  0.93530013  0.68808825  1
  Zn  Zn147  1  0.06217064  0.06738557  0.31132642  1
  Zn  Zn148  1  0.06729254  0.06279863  0.81437909  1
  Zn  Zn149  1  0.03329318  0.56411086  0.31960718  1
  Zn  Zn150  1  0.06545050  0.56516492  0.81074247  1
  Zn  Zn151  1  0.56709190  0.06553677  0.31449954  1
  Zn  Zn152  1  0.55048478  0.18519620  0.79864876  1
  Zn  Zn153  1  0.68416343  0.56208276  0.32165128  1
  Zn  Zn154  1  0.55710335  0.55609583  0.81452540  1
  Zn  Zn155  1  0.43861957  0.18812909  0.43344555  1
  Zn  Zn156  1  0.43760458  0.18945074  0.93645536  1
  Zn  Zn157  1  0.43597799  0.68634302  0.43549483  1
  Zn  Zn158  1  0.41691042  0.65016156  0.95621967  1
  Zn  Zn159  1  0.94062751  0.18749882  0.43522274  1
  Zn  Zn160  1  0.93548939  0.18823205  0.94064303  1
  Zn  Zn161  1  0.93559903  0.67244624  0.42913881  1
  Zn  Zn162  1  0.93402644  0.68776022  0.93721160  1
  Zn  Zn163  1  0.06074799  0.31700384  0.06706298  1
  Zn  Zn164  1  0.07249513  0.30804429  0.56961096  1
  Zn  Zn165  1  0.06063927  0.81277337  0.06336423  1
  Zn  Zn166  1  0.06469140  0.80956400  0.55956397  1
  Zn  Zn167  1  0.56043914  0.31232563  0.05592783  1
  Zn  Zn168  1  0.56808479  0.31883163  0.55149004  1
  Zn  Zn169  1  0.56546331  0.80924109  0.06375175  1
  Zn  Zn170  1  0.56033208  0.81846474  0.56365880  1
  O  O171  1  0.12728217  0.11409398  0.11926036  1
  O  O172  1  0.12315671  0.11935258  0.61729507  1
  O  O173  1  0.11543863  0.61486855  0.12253188  1
  O  O174  1  0.12875504  0.63322461  0.60854054  1
  O  O175  1  0.63182231  0.11887809  0.10627590  1
  O  O176  1  0.64048202  0.11232923  0.60575179  1
  O  O177  1  0.62031412  0.61525674  0.11893382  1
  O  O178  1  0.61955164  0.62350283  0.61865989  1
  O  O179  1  0.38045723  0.36960625  0.38830504  1
  O  O180  1  0.39002060  0.38054984  0.87015841  1
  O  O181  1  0.38653729  0.87264584  0.37676596  1
  O  O182  1  0.36018351  0.88201400  0.89006699  1
  O  O183  1  0.88466539  0.37243709  0.38383708  1
  O  O184  1  0.87539229  0.38599863  0.87782284  1
  O  O185  1  0.88560079  0.88179803  0.37234116  1
  O  O186  1  0.87900424  0.88247853  0.87969854  1
  O  O187  1  0.24634979  -0.00556251  0.36409454  1
  O  O188  1  0.25146654  0.00474240  0.87101283  1
  O  O189  1  0.24830493  0.51026239  0.37804127  1
  O  O190  1  0.24269902  0.51229354  0.87233998  1
  O  O191  1  0.75807505  0.00517853  0.36916933  1
  O  O192  1  0.75377390  0.00879685  0.86667708  1
  O  O193  1  0.75033849  0.51318530  0.40459048  1
  O  O194  1  0.75407612  0.51344591  0.87190999  1
  O  O195  1  0.23508612  0.49201373  0.13574817  1
  O  O196  1  0.25406726  0.48861170  0.63347126  1
  O  O197  1  0.24308031  0.99392888  0.13317993  1
  O  O198  1  0.24917617  0.99209015  0.63366237  1
  O  O199  1  0.73983708  0.48360663  0.12315582  1
  O  O200  1  0.74340709  0.49216847  0.61661724  1
  O  O201  1  0.74838048  0.99399034  0.13197875  1
  O  O202  1  0.74810971  0.99279549  0.62420365  1
  O  O203  1  0.00307311  0.35704294  0.24866687  1
  O  O204  1  0.01017686  0.36961386  0.75093536  1
  O  O205  1  0.00009871  0.86257119  0.25538790  1
  O  O206  1  -0.00307346  0.86696950  0.76030830  1
  O  O207  1  0.49550357  0.36014999  0.24919126  1
  O  O208  1  0.50401751  0.38306440  0.75942951  1
  O  O209  1  0.50318581  0.87102179  0.25572010  1
  O  O210  1  0.51708143  0.87765145  0.74608796  1
  O  O211  1  0.49034211  0.12587144  0.24848676  1
  O  O212  1  0.48621964  0.10147020  0.76224875  1
  O  O213  1  0.49020434  0.63807995  0.24335417  1
  O  O214  1  0.48905929  0.63633739  0.75178872  1
  O  O215  1  1.00091403  0.13143058  0.24512783  1
  O  O216  1  0.99855933  0.13166894  0.74604144  1
  O  O217  1  1.00458950  0.64010620  0.23146812  1
  O  O218  1  0.99431542  0.63243406  0.74754101  1
  O  O219  1  0.37131160  0.23651790  0.01839373  1
  O  O220  1  0.37145231  0.25631403  0.50651262  1
  O  O221  1  0.36491040  0.75092335  0.00755367  1
  O  O222  1  0.36410035  0.74914007  0.50679188  1
  O  O223  1  0.86213132  0.25625347  0.00223026  1
  O  O224  1  0.87074688  0.24145481  0.51053858  1
  O  O225  1  0.85992505  0.75825204  -0.00760651  1
  O  O226  1  0.86288097  0.73704585  0.49314386  1
  O  O227  1  0.13550597  0.23979350  0.49835704  1
  O  O228  1  0.12617173  0.24294128  1.00028926  1
  O  O229  1  0.13241672  0.74259150  0.48937922  1
  O  O230  1  0.12960355  0.74865742  0.99491774  1
  O  O231  1  0.63902172  0.24137463  0.50127179  1
  O  O232  1  0.63560940  0.24119899  1.00089929  1
  O  O233  1  0.62577178  0.74830036  0.49394461  1
  O  O234  1  0.63621526  0.74670132  0.99281166  1
  O  O235  1  0.48786388  0.25302971  0.13246054  1
  O  O236  1  0.49162604  0.25582753  0.61692085  1
  O  O237  1  0.49527324  0.74563988  0.13432739  1
  O  O238  1  0.49033749  0.75475791  0.63477477  1
  O  O239  1  0.98027618  0.24723629  0.11603425  1
  O  O240  1  0.99697574  0.24423764  0.63514940  1
  O  O241  1  0.99685769  0.75044927  0.13599543  1
  O  O242  1  0.99953213  0.74896165  0.63283824  1
  O  O243  1  0.02034348  0.24668113  0.38019357  1
  O  O244  1  -0.00002577  0.25098359  0.86356576  1
  O  O245  1  0.00350310  0.75289909  0.36762805  1
  O  O246  1  0.00522571  0.75469807  0.87058202  1
  O  O247  1  0.50158966  0.24706847  0.35598710  1
  O  O248  1  0.49397894  0.25938493  0.86962831  1
  O  O249  1  0.50358106  0.75804609  0.36831487  1
  O  O250  1  0.50315388  0.75278445  0.86290679  1
  O  O251  1  0.24619127  0.13004368  0.50107466  1
  O  O252  1  0.23796225  0.12317897  0.99570488  1
  O  O253  1  0.24351640  0.63188216  0.49348010  1
  O  O254  1  0.24315315  0.63657607  0.99531892  1
  O  O255  1  0.74863407  0.13506174  0.48963079  1
  O  O256  1  0.74227004  0.13044948  0.98628623  1
  O  O257  1  0.73090208  0.64074696  0.50754132  1
  O  O258  1  0.74521614  0.63277857  0.99473425  1
  O  O259  1  0.25121935  0.37717841  0.02165701  1
  O  O260  1  0.25640052  0.36975642  0.50832099  1
  O  O261  1  0.25400791  0.86316101  0.00767139  1
  O  O262  1  0.25014342  0.86539704  0.50431307  1
  O  O263  1  0.75500106  0.36699323  -0.00436808  1
  O  O264  1  0.74928698  0.36274792  0.51061380  1
  O  O265  1  0.75168474  0.87091154  0.00566025  1
  O  O266  1  0.74598322  0.86578676  0.50642245  1
  O  O267  1  0.10666048  0.50929528  0.23684890  1
  O  O268  1  0.13801153  0.49458177  0.75246229  1
  O  O269  1  0.13353198  0.99812981  0.24389923  1
  O  O270  1  0.13967342  1.00531029  0.74398031  1
  O  O271  1  0.61910133  0.50213248  0.24096493  1
  O  O272  1  0.63031548  0.51111270  0.73468707  1
  O  O273  1  0.63653337  0.99439435  0.25060007  1
  O  O274  1  0.63566711  0.99160938  0.73602938  1
  O  O275  1  0.36915822  0.01046023  0.24273263  1
  O  O276  1  0.36238731  -0.00431377  0.76313553  1
  O  O277  1  0.38477484  0.50887139  0.24980225  1
  O  O278  1  0.36169442  0.51345955  0.74569751  1
  O  O279  1  0.86292465  -0.00473177  0.26008801  1
  O  O280  1  0.87022946  0.00514226  0.75413939  1
  O  O281  1  0.85973589  0.48398573  0.25097698  1
  O  O282  1  0.87237752  0.50884906  0.75584872  1
  O  O283  1  0.12953281  0.35617426  0.38121088  1
  O  O284  1  0.12544909  0.37500209  0.86628185  1
  O  O285  1  0.11137606  0.86423033  0.37299285  1
  O  O286  1  0.11872551  0.86298586  0.88119920  1
  O  O287  1  0.61218842  0.36538031  0.38712830  1
  O  O288  1  0.61301911  0.37458726  0.86526868  1
  O  O289  1  0.61426541  0.86679843  0.36900271  1
  O  O290  1  0.63606654  0.86471594  0.86184331  1
  O  O291  1  0.36629807  0.13783511  0.14087806  1
  O  O292  1  0.37575916  0.14317930  0.62371984  1
  O  O293  1  0.37622779  0.63069742  0.13874058  1
  O  O294  1  0.37003671  0.64048858  0.63708350  1
  O  O295  1  0.86980814  0.13905292  0.11345702  1
  O  O296  1  0.88172818  0.13297427  0.63216144  1
  O  O297  1  0.88095517  0.61694470  0.13134991  1
  O  O298  1  0.87558816  0.62897449  0.63730695  1
  O  O299  1  0.25622529  0.25822415  0.12480830  1
  O  O300  1  0.25348508  0.25717592  0.61518186  1
  O  O301  1  0.24915802  0.75187119  0.12028444  1
  O  O302  1  0.25204241  0.75602856  0.61872545  1
  O  O303  1  0.75417596  0.25760001  0.11205697  1
  O  O304  1  0.76307027  0.25574991  0.61531497  1
  O  O305  1  0.74427923  0.76043395  0.11396495  1
  O  O306  1  0.75441702  0.75909488  0.61457460  1
  O  O307  1  0.24620654  0.24690160  0.38917392  1
  O  O308  1  0.25255089  0.24179725  0.87879625  1
  O  O309  1  0.24061827  0.74648415  0.38230933  1
  O  O310  1  0.23919007  0.74512070  0.88286540  1
  O  O311  1  0.75379503  0.24509605  0.37864331  1
  O  O312  1  0.75744166  0.24037597  0.87845762  1
  O  O313  1  0.73699592  0.76096841  0.38372043  1
  O  O314  1  0.74562841  0.73942267  0.87877308  1
  O  O315  1  0.01113332  0.11809302  0.00127074  1
  O  O316  1  0.00918766  0.11711129  0.50689941  1
  O  O317  1  -0.00513631  0.63652356  0.02008272  1
  O  O318  1  0.01648804  0.62172899  0.50144104  1
  O  O319  1  0.50773964  0.11406640  -0.00743587  1
  O  O320  1  0.51356455  0.11958990  0.49065652  1
  O  O321  1  0.51676140  0.64153319  0.01171415  1
  O  O322  1  0.50523702  0.62564858  0.50580080  1
  O  O323  1  0.49039636  0.38935081  0.50345805  1
  O  O324  1  0.49960230  0.37188538  0.98406665  1
  O  O325  1  0.49789195  0.88551113  0.49169132  1
  O  O326  1  0.48778785  0.87404924  1.00377587  1
  O  O327  1  1.00525977  0.38070305  0.51436844  1
  O  O328  1  0.98182823  0.36825293  0.99699008  1
  O  O329  1  1.00340724  0.88070183  0.49101698  1
  O  O330  1  0.99311863  0.87966021  0.99322926  1
  O  O331  1  0.49990272  0.50673845  0.39247212  1
  O  O332  1  0.50425203  0.48760540  0.88387066  1
  O  O333  1  0.50750357  0.99283661  0.38445388  1
  O  O334  1  0.48096998  0.98897845  0.88852324  1
  O  O335  1  1.02672892  0.48409137  0.40271321  1
  O  O336  1  0.98814720  0.50312377  0.87242121  1
  O  O337  1  0.99423883  0.99164407  0.37741123  1
  O  O338  1  0.99721319  0.99470712  0.87948707  1
  O  O339  1  0.00719289  -0.00114160  0.12046468  1
  O  O340  1  0.00549932  0.00346455  0.62201603  1
  O  O341  1  -0.00083404  0.51007901  0.12595637  1
  O  O342  1  0.00509549  0.50386452  0.61330866  1
  O  O343  1  0.50120159  -0.00702659  0.10977904  1
  O  O344  1  0.52029554  -0.00416793  0.61519886  1
  O  O345  1  0.50664709  0.50195190  0.11549168  1
  O  O346  1  0.50537774  0.50654230  0.62127249  1
  O  O347  1  0.25825684  0.37057596  0.23539169  1
  O  O348  1  0.24864540  0.38259195  0.74690629  1
  O  O349  1  0.24870181  0.88003282  0.24403721  1
  O  O350  1  0.24931674  0.88082669  0.74173117  1
  O  O351  1  0.74019648  0.36072051  0.23477441  1
  O  O352  1  0.74679508  0.37811509  0.73529608  1
  O  O353  1  0.74549076  0.88023950  0.24258344  1
  O  O354  1  0.74473685  0.87732603  0.74052704  1
  O  O355  1  0.25996174  0.11348425  0.25536920  1
  O  O356  1  0.25544605  0.11848193  0.75967110  1
  O  O357  1  0.26049012  0.62961159  0.26010458  1
  O  O358  1  0.25058947  0.61974789  0.75725198  1
  O  O359  1  0.74597367  0.11673168  0.25592126  1
  O  O360  1  0.75795736  0.11854818  0.75308821  1
  O  O361  1  0.74418879  0.63371682  0.25905331  1
  O  O362  1  0.75858323  0.62865486  0.75650990  1
  O  O363  1  0.37394988  0.12754132  0.35755885  1
  O  O364  1  0.36085091  0.11350294  0.88378226  1
  O  O365  1  0.36344277  0.63162993  0.36609453  1
  O  O366  1  0.35771890  0.64250658  0.85831668  1
  O  O367  1  0.86609518  0.11806784  0.37582479  1
  O  O368  1  0.86982726  0.11929932  0.86919690  1
  O  O369  1  0.91578997  0.59416900  0.35207158  1
  O  O370  1  0.86800244  0.62026225  0.86798016  1
  O  O371  1  0.13141339  0.38331187  0.12995253  1
  O  O372  1  0.13948025  0.36881251  0.64178548  1
  O  O373  1  0.12934736  0.88553203  0.12658596  1
  O  O374  1  0.13637198  0.88027457  0.61964078  1
  O  O375  1  0.63605670  0.38025991  0.11651197  1
  O  O376  1  0.63235654  0.38515458  0.62552622  1
  O  O377  1  0.63494357  0.87791373  0.13115653  1
  O  O378  1  0.63784105  0.88028965  0.62853383  1
  O  O379  1  0.13611547  0.23858610  0.26912224  1
  O  O380  1  0.11875067  0.25602975  0.75335702  1
  O  O381  1  0.11782155  0.74928161  0.26129227  1
  O  O382  1  0.11233318  0.74577141  0.75973745  1
  O  O383  1  0.60760778  0.23848400  0.24336994  1
  O  O384  1  0.62553616  0.24220462  0.74086729  1
  O  O385  1  0.61328716  0.75671989  0.25606482  1
  O  O386  1  0.61763402  0.75637183  0.75177955  1
  O  O387  1  0.38498986  0.23975405  0.24347434  1
  O  O388  1  0.37383154  0.25114698  0.73132138  1
  O  O389  1  0.38298917  0.75130769  0.24533141  1
  O  O390  1  0.38075912  0.75220569  0.74378152  1
  O  O391  1  0.86653641  0.24956633  0.22852170  1
  O  O392  1  0.88419865  0.24669077  0.74233894  1
  O  O393  1  0.88548705  0.74627498  0.25480840  1
  O  O394  1  0.88793887  0.74304538  0.75182953  1
  O  O395  1  0.38155445  0.49351710  0.50901320  1
  O  O396  1  0.37813204  0.54650779  0.99339690  1
  O  O397  1  0.39106595  1.00272799  0.50713012  1
  O  O398  1  0.37675528  0.99019522  1.00029930  1
  O  O399  1  0.89403076  0.50118799  0.49854492  1
  O  O400  1  0.86662223  0.49057054  0.98827108  1
  O  O401  1  0.88139372  1.00446577  0.48644913  1
  O  O402  1  0.87991963  0.99557044  0.99322284  1
  O  O403  1  0.12056222  0.00452798  0.00895066  1
  O  O404  1  0.12095228  0.00551205  0.50699067  1
  O  O405  1  0.12024522  0.50095387  0.02127241  1
  O  O406  1  0.13127409  0.51236422  0.50868400  1
  O  O407  1  0.61422173  0.00582007  -0.00378190  1
  O  O408  1  0.62167980  0.00622062  0.50136546  1
  O  O409  1  0.63274717  0.51285212  0.00389009  1
  O  O410  1  0.61552852  0.51269186  0.51161052  1
  O  O411  1  0.36738405  0.35907074  0.12647532  1
  O  O412  1  0.36858573  0.36580624  0.61846579  1
  O  O413  1  0.36723427  0.86604633  0.11779880  1
  O  O414  1  0.36041801  0.86360479  0.61905131  1
  O  O415  1  0.85921158  0.36671590  0.11391896  1
  O  O416  1  0.86984685  0.36502956  0.63086034  1
  O  O417  1  0.86156708  0.88038120  0.11838811  1
  O  O418  1  0.86437622  0.87234847  0.62627313  1
  O  O419  1  0.13121002  0.12697479  0.38973914  1
  O  O420  1  0.13570830  0.12713408  0.88377383  1
  O  O421  1  0.12970848  0.62964602  0.38374795  1
  O  O422  1  0.12913031  0.63527626  0.88050374  1
  O  O423  1  0.64056029  0.12898682  0.38193960  1
  O  O424  1  0.63378504  0.12572973  0.87950487  1
  O  O425  1  0.61781572  0.64082956  0.38489235  1
  O  O426  1  0.63128287  0.63068084  0.88034836  1
