# generated using pymatgen
data_V85Zn86O256
_symmetry_space_group_name_H-M   'P 1'
_cell_length_a   16.93289628
_cell_length_b   16.92181102
_cell_length_c   16.93709708
_cell_angle_alpha   90.01916710
_cell_angle_beta   89.99926066
_cell_angle_gamma   90.03785106
_symmetry_Int_Tables_number   1
_chemical_formula_structural   V85Zn86O256
_chemical_formula_sum   'V85 Zn86 O256'
_cell_volume   4853.07436749
_cell_formula_units_Z   1
loop_
 _symmetry_equiv_pos_site_id
 _symmetry_equiv_pos_as_xyz
  1  'x, y, z'
loop_
 _atom_site_type_symbol
 _atom_site_label
 _atom_site_symmetry_multiplicity
 _atom_site_fract_x
 _atom_site_fract_y
 _atom_site_fract_z
 _atom_site_occupancy
  V  V0  1  0.12249580  0.87615253  0.24394503  1
  V  V1  1  0.13147382  0.12143729  0.00509484  1
  V  V2  1  0.37360575  0.50244071  0.87434494  1
  V  V3  1  0.49958069  0.12511258  0.62428294  1
  V  V4  1  0.87662226  0.24702752  0.12619579  1
  V  V5  1  0.88084219  0.37371793  -0.00042117  1
  V  V6  1  0.25138601  0.50095284  0.24365624  1
  V  V7  1  0.37118693  -0.00106687  0.37586335  1
  V  V8  1  0.49981092  0.86884717  0.86555598  1
  V  V9  1  0.00790351  0.11776771  0.12812217  1
  V  V10  1  0.87348080  0.50348161  0.37939583  1
  V  V11  1  0.12718404  0.37742215  0.23581795  1
  V  V12  1  0.88355335  0.24267783  0.62574546  1
  V  V13  1  0.37003051  0.36875512  0.49873821  1
  V  V14  1  -0.01191639  0.73999750  0.23722059  1
  V  V15  1  0.75026457  0.25062168  0.50055699  1
  V  V16  1  0.62634412  0.11409939  -0.00112194  1
  V  V17  1  0.74830882  0.86810349  0.62088376  1
  V  V18  1  0.78404720  0.51643612  0.22015574  1
  V  V19  1  0.37352140  0.12731163  0.24900526  1
  V  V20  1  0.50077128  0.25160446  0.74840303  1
  V  V21  1  0.25219744  0.13096350  0.87902414  1
  V  V22  1  0.62803750  0.25135183  0.36675541  1
  V  V23  1  0.36099998  0.25254546  0.11996538  1
  V  V24  1  0.37654711  0.12449700  0.74909755  1
  V  V25  1  0.12580961  0.50030208  0.62566255  1
  V  V26  1  0.49844172  0.50647204  0.00188956  1
  V  V27  1  0.75088958  -0.00495231  0.75101377  1
  V  V28  1  0.37175858  0.86795705  -0.00287994  1
  V  V29  1  0.36325573  0.37222293  0.00146768  1
  V  V30  1  0.50108114  0.37483062  0.87803403  1
  V  V31  1  0.62570965  0.74610155  0.86682568  1
  V  V32  1  0.62936744  0.38160887  0.24796491  1
  V  V33  1  0.00203139  0.87291369  0.37567582  1
  V  V34  1  0.49960663  0.50085880  0.50568053  1
  V  V35  1  0.00068159  0.74740267  0.75282197  1
  V  V36  1  0.12107786  0.00087828  0.62522986  1
  V  V37  1  0.62879885  0.63033994  0.50227761  1
  V  V38  1  0.88137374  0.11980019  0.74889663  1
  V  V39  1  0.75585642  0.11750679  0.87602696  1
  V  V40  1  0.68212344  0.94344059  0.19016516  1
  V  V41  1  0.87275763  -0.00321789  0.37862016  1
  V  V42  1  0.13034784  0.25651720  0.37996577  1
  V  V43  1  0.74887232  0.37402693  0.62922587  1
  V  V44  1  0.24349383  0.62967928  0.88629309  1
  V  V45  1  0.50149366  0.37560202  0.37519250  1
  V  V46  1  0.37656807  -0.00189122  0.87500233  1
  V  V47  1  0.62429035  0.12482020  0.49873717  1
  V  V48  1  0.75120080  0.75344708  0.01532630  1
  V  V49  1  0.75435988  0.62823986  0.37902964  1
  V  V50  1  0.62566310  0.75447023  0.36960363  1
  V  V51  1  0.38623092  0.62533862  0.24420500  1
  V  V52  1  0.12436306  0.25038279  0.87945200  1
  V  V53  1  0.37374311  0.50076071  0.37377150  1
  V  V54  1  0.00328627  0.50174795  0.50168503  1
  V  V55  1  0.50027007  0.12415309  0.12186800  1
  V  V56  1  0.24928391  0.36799508  0.62355480  1
  V  V57  1  0.75240933  0.50830903  0.75094620  1
  V  V58  1  0.49572650  0.64222284  0.62795633  1
  V  V59  1  0.12042328  0.12801503  0.50413306  1
  V  V60  1  0.24667305  0.86903221  0.11828753  1
  V  V61  1  0.37509358  0.64023821  0.74647254  1
  V  V62  1  0.49518210  -0.00120607  0.50021044  1
  V  V63  1  0.87597639  0.37256215  0.50144987  1
  V  V64  1  0.87971541  0.12098316  0.25338315  1
  V  V65  1  0.75133011  0.12228261  0.37320911  1
  V  V66  1  0.87759657  0.50489254  0.87067432  1
  V  V67  1  0.00206009  0.37721630  0.37296510  1
  V  V68  1  0.24532201  -0.00247871  0.74709340  1
  V  V69  1  0.24663307  0.86182711  0.62403709  1
  V  V70  1  0.87287416  0.86155171  0.50024015  1
  V  V71  1  -0.00666017  0.88139596  0.86969534  1
  V  V72  1  -0.00653029  0.00116285  -0.00064494  1
  V  V73  1  0.61611175  0.51016695  0.12776611  1
  V  V74  1  0.24910152  0.12881799  0.38105391  1
  V  V75  1  0.00386704  0.51619477  0.00240177  1
  V  V76  1  0.74964861  0.24625230  -0.00256790  1
  V  V77  1  0.13328231  0.63484692  0.50013684  1
  V  V78  1  0.36891792  0.85891560  0.49977860  1
  V  V79  1  0.24536525  -0.00018912  0.24244671  1
  V  V80  1  0.25026400  0.50223294  0.75000928  1
  V  V81  1  0.38307888  0.74676788  0.12015812  1
  V  V82  1  0.12575915  0.75600131  0.88847461  1
  V  V83  1  -0.00686979  0.62500955  0.62984905  1
  V  V84  1  0.12728221  0.52207452  0.12049004  1
  Zn  Zn85  1  0.61945956  0.87184893  0.74319169  1
  Zn  Zn86  1  -0.00131589  0.00092952  0.50597017  1
  Zn  Zn87  1  0.37130566  0.24723848  0.61996541  1
  Zn  Zn88  1  0.62203256  0.62854370  0.00125178  1
  Zn  Zn89  1  0.62518490  -0.00224164  0.62385684  1
  Zn  Zn90  1  0.00237116  0.25276169  0.25034264  1
  Zn  Zn91  1  0.25717025  0.63369842  0.37837109  1
  Zn  Zn92  1  0.62622800  0.37619656  0.75264205  1
  Zn  Zn93  1  0.87672704  0.86305145  0.01157383  1
  Zn  Zn94  1  0.50435774  0.87786503  0.36904187  1
  Zn  Zn95  1  0.50693104  0.75831513  0.23942100  1
  Zn  Zn96  1  0.00230985  0.24767456  0.75054568  1
  Zn  Zn97  1  0.50011310  0.25175927  0.24492806  1
  Zn  Zn98  1  0.00177308  0.37393120  0.87274297  1
  Zn  Zn99  1  0.62448631  0.50193923  0.62854602  1
  Zn  Zn100  1  0.50311457  -0.00531350  0.00291398  1
  Zn  Zn101  1  0.87067633  0.74518756  0.63372140  1
  Zn  Zn102  1  0.13172245  0.75469379  0.37447281  1
  Zn  Zn103  1  0.12419436  0.37223655  0.75202241  1
  Zn  Zn104  1  0.62536270  0.24897053  0.87541208  1
  Zn  Zn105  1  0.74623627  0.36980408  0.12362720  1
  Zn  Zn106  1  0.75350445  0.62835706  0.87516348  1
  Zn  Zn107  1  0.18676234  0.18946823  0.19251912  1
  Zn  Zn108  1  0.18682383  0.18547429  0.69086412  1
  Zn  Zn109  1  0.19340157  0.69416146  0.19582348  1
  Zn  Zn110  1  0.17839290  0.68737072  0.69709037  1
  Zn  Zn111  1  0.70704526  0.14373053  0.16880589  1
  Zn  Zn112  1  0.68800458  0.18558605  0.68900815  1
  Zn  Zn113  1  0.68898457  0.68469869  0.19070243  1
  Zn  Zn114  1  0.68543967  0.68768186  0.68746783  1
  Zn  Zn115  1  0.31043164  0.31452662  0.30816416  1
  Zn  Zn116  1  0.31368571  0.31308009  0.81139007  1
  Zn  Zn117  1  0.31443771  0.81092266  0.30934230  1
  Zn  Zn118  1  0.30434693  0.81364581  0.81089741  1
  Zn  Zn119  1  0.81206573  0.31769423  0.30828760  1
  Zn  Zn120  1  0.81581471  0.31241053  0.81311915  1
  Zn  Zn121  1  0.80814368  0.81424918  0.30449014  1
  Zn  Zn122  1  0.81456142  0.81207911  0.81395413  1
  Zn  Zn123  1  0.19013093  0.44293468  0.43628430  1
  Zn  Zn124  1  0.18437457  0.44100108  0.93794707  1
  Zn  Zn125  1  0.18816250  0.93759603  0.43873543  1
  Zn  Zn126  1  0.18317638  0.93967195  0.93770187  1
  Zn  Zn127  1  0.68885356  0.44184184  0.43911622  1
  Zn  Zn128  1  0.68809479  0.43704986  0.93956614  1
  Zn  Zn129  1  0.68962283  0.93824097  0.43803170  1
  Zn  Zn130  1  0.68971227  0.93153076  0.93522446  1
  Zn  Zn131  1  0.31535864  0.05858853  0.06162391  1
  Zn  Zn132  1  0.30891475  0.06162523  0.56282708  1
  Zn  Zn133  1  0.31248529  0.56085387  0.06428485  1
  Zn  Zn134  1  0.31442566  0.56147982  0.56542814  1
  Zn  Zn135  1  0.82529291  0.02590280  0.08174713  1
  Zn  Zn136  1  0.81186294  0.05743260  0.56344185  1
  Zn  Zn137  1  0.80937677  0.56333371  0.05289089  1
  Zn  Zn138  1  0.81162811  0.56210663  0.56218677  1
  Zn  Zn139  1  0.43774539  0.43253752  0.18640531  1
  Zn  Zn140  1  0.43467416  0.43905468  0.68765720  1
  Zn  Zn141  1  0.43959788  0.93732754  0.18683775  1
  Zn  Zn142  1  0.43155141  0.93321361  0.68345947  1
  Zn  Zn143  1  0.93979039  0.44554669  0.18093587  1
  Zn  Zn144  1  0.93844383  0.43363295  0.69014807  1
  Zn  Zn145  1  0.93595165  0.93256143  0.18872970  1
  Zn  Zn146  1  0.93524360  0.93464445  0.68885650  1
  Zn  Zn147  1  0.06343926  0.05958577  0.31601833  1
  Zn  Zn148  1  0.06536421  0.06240515  0.81362408  1
  Zn  Zn149  1  0.06370476  0.56498927  0.31237985  1
  Zn  Zn150  1  0.06387172  0.56507627  0.81507467  1
  Zn  Zn151  1  0.55844281  0.06380223  0.31084100  1
  Zn  Zn152  1  0.56637169  0.05993113  0.81324097  1
  Zn  Zn153  1  0.56343489  0.56481750  0.31540060  1
  Zn  Zn154  1  0.56185944  0.56342321  0.80926474  1
  Zn  Zn155  1  0.43876704  0.18848424  0.43465902  1
  Zn  Zn156  1  0.43760903  0.18886919  0.93919146  1
  Zn  Zn157  1  0.44267159  0.68491461  0.43359252  1
  Zn  Zn158  1  0.43575725  0.68871019  0.93334222  1
  Zn  Zn159  1  0.94238743  0.18954824  0.43819890  1
  Zn  Zn160  1  0.93900952  0.18188263  0.93796794  1
  Zn  Zn161  1  0.94474402  0.68762151  0.43430415  1
  Zn  Zn162  1  0.93389101  0.69119115  0.93609811  1
  Zn  Zn163  1  0.06297789  0.30693637  0.05913573  1
  Zn  Zn164  1  0.06454627  0.31291507  0.56197597  1
  Zn  Zn165  1  0.05995043  0.81364460  0.06367830  1
  Zn  Zn166  1  0.06099526  0.81385312  0.56604083  1
  Zn  Zn167  1  0.55936928  0.30853957  0.06241100  1
  Zn  Zn168  1  0.56325448  0.31192486  0.56181196  1
  Zn  Zn169  1  0.56711296  0.81777600  0.05746524  1
  Zn  Zn170  1  0.56325840  0.81371763  0.55517634  1
  O  O171  1  0.11981248  0.13313347  0.11850866  1
  O  O172  1  0.13387264  0.11766206  0.61441418  1
  O  O173  1  0.13281832  0.62070096  0.12763217  1
  O  O174  1  0.11855899  0.61987369  0.61692094  1
  O  O175  1  0.61112678  0.13428462  0.11102845  1
  O  O176  1  0.61843814  0.12372480  0.61633951  1
  O  O177  1  0.62170793  0.61335166  0.12499245  1
  O  O178  1  0.61690684  0.62385972  0.61850744  1
  O  O179  1  0.37924537  0.38045928  0.38017835  1
  O  O180  1  0.38326525  0.37988350  0.88019942  1
  O  O181  1  0.36948710  0.88330771  0.38747863  1
  O  O182  1  0.37712078  0.87850966  0.87799670  1
  O  O183  1  0.88069594  0.37525760  0.38642976  1
  O  O184  1  0.87709886  0.38305909  0.88382169  1
  O  O185  1  0.87788842  0.88101235  0.38035110  1
  O  O186  1  0.89130086  0.87153675  0.88317634  1
  O  O187  1  0.25353918  0.00727772  0.36683425  1
  O  O188  1  0.25637741  0.00494937  0.86604056  1
  O  O189  1  0.25925719  0.50603298  0.36689549  1
  O  O190  1  0.25155292  0.50829623  0.86711823  1
  O  O191  1  0.75967743  0.01060999  0.38063224  1
  O  O192  1  0.74768276  0.00631643  0.86616696  1
  O  O193  1  0.75943888  0.51084659  0.37799518  1
  O  O194  1  0.75773068  0.49960925  0.86861021  1
  O  O195  1  0.24028393  0.49984482  0.13087836  1
  O  O196  1  0.24639850  0.49206478  0.63296089  1
  O  O197  1  0.25711016  0.99218503  0.13778796  1
  O  O198  1  0.24280231  0.99447253  0.63109729  1
  O  O199  1  0.72966181  0.49191780  0.12142356  1
  O  O200  1  0.75158163  0.49125275  0.63280469  1
  O  O201  1  0.72939131  1.02760541  0.14151743  1
  O  O202  1  0.74750125  0.98799085  0.63087161  1
  O  O203  1  0.01036736  0.37775191  0.25549723  1
  O  O204  1  0.00544422  0.36843212  0.75369004  1
  O  O205  1  0.00644818  0.87394751  0.25611849  1
  O  O206  1  -0.00146546  0.87165938  0.76467944  1
  O  O207  1  0.50888364  0.37231596  0.25837595  1
  O  O208  1  0.49919951  0.36831790  0.75700430  1
  O  O209  1  0.48719214  0.86965762  0.25832957  1
  O  O210  1  0.49700059  0.87931305  0.76081598  1
  O  O211  1  0.49145796  0.12941818  0.24256987  1
  O  O212  1  0.49669092  0.13034186  0.74518862  1
  O  O213  1  0.48874886  0.62548819  0.25024522  1
  O  O214  1  0.48804144  0.61784011  0.73880090  1
  O  O215  1  0.99801409  0.12823093  0.24608862  1
  O  O216  1  0.98514047  0.12292588  0.75560208  1
  O  O217  1  1.00518835  0.64119652  0.25276326  1
  O  O218  1  1.00459798  0.63066055  0.74019020  1
  O  O219  1  0.37544304  0.25614831  0.01076502  1
  O  O220  1  0.38002814  0.26460710  0.49920873  1
  O  O221  1  0.37398996  0.76033718  0.00198614  1
  O  O222  1  0.37764535  0.76082572  0.49399402  1
  O  O223  1  0.87057381  0.25298409  0.00580595  1
  O  O224  1  0.87004516  0.25186749  0.50708838  1
  O  O225  1  0.85778491  0.74687389  -0.00042925  1
  O  O226  1  0.87996182  0.75961837  0.50072669  1
  O  O227  1  0.12445867  0.24532343  0.48859230  1
  O  O228  1  0.12580784  0.23797761  0.98948370  1
  O  O229  1  0.12054795  0.73682182  0.50025561  1
  O  O230  1  0.11949687  0.74995753  0.98742787  1
  O  O231  1  0.62987745  0.24582599  0.48879946  1
  O  O232  1  0.63550147  0.24455749  0.99824867  1
  O  O233  1  0.62219787  0.73643412  0.48962903  1
  O  O234  1  0.63402580  0.74847497  0.99089292  1
  O  O235  1  0.48849859  0.23980448  0.12515428  1
  O  O236  1  0.49780193  0.24534754  0.63177515  1
  O  O237  1  0.48773962  0.75568908  0.11918151  1
  O  O238  1  0.50147556  0.74127513  0.62110474  1
  O  O239  1  0.98969076  0.23929194  0.12503601  1
  O  O240  1  0.98690310  0.25204713  0.62406764  1
  O  O241  1  0.99581417  0.75584572  0.13730663  1
  O  O242  1  1.00092908  0.74253638  0.63473351  1
  O  O243  1  0.00964064  0.25996774  0.37330232  1
  O  O244  1  0.01044167  0.24880836  0.87514857  1
  O  O245  1  0.00494435  0.76309178  0.36874212  1
  O  O246  1  0.00642750  0.75779181  0.87369546  1
  O  O247  1  0.51111692  0.25675800  0.37260273  1
  O  O248  1  0.49959406  0.25740800  0.86741506  1
  O  O249  1  0.51653580  0.74867945  0.37307033  1
  O  O250  1  0.51323582  0.75623994  0.88024580  1
  O  O251  1  0.24200068  0.12161929  0.48687304  1
  O  O252  1  0.24559082  0.11644176  0.99015943  1
  O  O253  1  0.23641133  0.61946283  0.50300074  1
  O  O254  1  0.25592536  0.62066088  0.98441824  1
  O  O255  1  0.74577185  0.12985783  0.49105057  1
  O  O256  1  0.74418154  0.12942578  0.99215848  1
  O  O257  1  0.74039987  0.62119201  0.49347948  1
  O  O258  1  0.74430740  0.63476686  0.99577606  1
  O  O259  1  0.26445135  0.37948976  -0.00735811  1
  O  O260  1  0.25950942  0.38277920  0.50891413  1
  O  O261  1  0.25657504  0.88350874  0.00814770  1
  O  O262  1  0.26025565  0.87678115  0.50933310  1
  O  O263  1  0.76068747  0.36510287  0.00191883  1
  O  O264  1  0.75576067  0.37115509  0.50725593  1
  O  O265  1  0.75132409  0.85747944  -0.00456948  1
  O  O266  1  0.76054814  0.87928474  0.50850760  1
  O  O267  1  0.13067716  0.49759327  0.24035763  1
  O  O268  1  0.13627218  0.50047427  0.74500131  1
  O  O269  1  0.13296639  0.98915652  0.25434780  1
  O  O270  1  0.13818477  1.00741972  0.74288431  1
  O  O271  1  0.61848813  0.49391342  0.24229115  1
  O  O272  1  0.63493371  0.49556979  0.74833431  1
  O  O273  1  0.62353939  0.99025279  0.25869051  1
  O  O274  1  0.63669043  0.99719274  0.74590152  1
  O  O275  1  0.36610300  0.00792254  0.25791694  1
  O  O276  1  0.36720701  0.00426233  0.75626042  1
  O  O277  1  0.37026278  0.50324125  0.25105274  1
  O  O278  1  0.36382931  0.50353083  0.75586173  1
  O  O279  1  0.88333185  0.01356105  0.26562037  1
  O  O280  1  0.86232336  0.00718830  0.74343878  1
  O  O281  1  0.87660706  0.47824308  0.27567223  1
  O  O282  1  0.86675648  0.49231272  0.75969255  1
  O  O283  1  0.12265642  0.37150837  0.37056067  1
  O  O284  1  0.12627864  0.36368777  0.87571712  1
  O  O285  1  0.11658221  0.87744281  0.36912413  1
  O  O286  1  0.11489185  0.86383589  0.87987128  1
  O  O287  1  0.62503148  0.37242394  0.36606642  1
  O  O288  1  0.61232255  0.37257539  0.87601603  1
  O  O289  1  0.62750908  0.85696333  0.38553721  1
  O  O290  1  0.61598577  0.86494031  0.87113180  1
  O  O291  1  0.37623687  0.13592226  0.12679073  1
  O  O292  1  0.38010155  0.12701214  0.62940089  1
  O  O293  1  0.37085622  0.63486597  0.13011070  1
  O  O294  1  0.38295317  0.62204699  0.63366573  1
  O  O295  1  0.88254500  0.12608999  0.13812835  1
  O  O296  1  0.86725873  0.13245793  0.63369581  1
  O  O297  1  0.86106937  0.54924417  0.15281118  1
  O  O298  1  0.88888542  0.62653824  0.61734585  1
  O  O299  1  0.26205307  0.24806793  0.12714728  1
  O  O300  1  0.25099770  0.26388932  0.63112604  1
  O  O301  1  0.26150692  0.76424411  0.12985918  1
  O  O302  1  0.24116200  0.76347574  0.63243981  1
  O  O303  1  0.76236280  0.24075891  0.11503600  1
  O  O304  1  0.75613231  0.25557469  0.61999581  1
  O  O305  1  0.74565831  0.74647845  0.11470937  1
  O  O306  1  0.75268922  0.76228060  0.63150627  1
  O  O307  1  0.24267487  0.24165836  0.36952106  1
  O  O308  1  0.24745243  0.23605152  0.86934386  1
  O  O309  1  0.24459890  0.74540355  0.36702395  1
  O  O310  1  0.23408457  0.74622942  0.87149232  1
  O  O311  1  0.74573746  0.24772492  0.38140341  1
  O  O312  1  0.75055370  0.24416448  0.88488087  1
  O  O313  1  0.74267399  0.73613195  0.36700364  1
  O  O314  1  0.73712221  0.74830673  0.87469986  1
  O  O315  1  0.01154539  0.12347927  0.00890393  1
  O  O316  1  0.01564267  0.12171655  0.49541193  1
  O  O317  1  -0.00565523  0.61403954  0.00111936  1
  O  O318  1  0.01038334  0.61930122  0.50707076  1
  O  O319  1  0.50865599  0.12386348  0.00279062  1
  O  O320  1  0.50292633  0.11939840  0.50418191  1
  O  O321  1  0.49795597  0.60979290  -0.00611599  1
  O  O322  1  0.50432805  0.61742580  0.50807884  1
  O  O323  1  0.49555935  0.38210189  0.49503200  1
  O  O324  1  0.49214811  0.37949380  0.99218529  1
  O  O325  1  0.48671561  0.88235247  0.49585866  1
  O  O326  1  0.49050928  0.87735700  0.98620656  1
  O  O327  1  0.99634158  0.38237842  0.49551779  1
  O  O328  1  0.98908899  0.37553989  0.99914098  1
  O  O329  1  0.99294427  0.87657480  0.49266961  1
  O  O330  1  0.99760260  0.88495280  0.99364517  1
  O  O331  1  0.49514367  0.49537993  0.38581764  1
  O  O332  1  0.49434222  0.49225601  0.87958432  1
  O  O333  1  0.49052212  1.00245222  0.38612501  1
  O  O334  1  0.48892465  0.99418821  0.87436540  1
  O  O335  1  0.99583277  0.49626456  0.38233107  1
  O  O336  1  0.99731917  0.49791971  0.88580765  1
  O  O337  1  0.99294654  0.98898163  0.37817975  1
  O  O338  1  1.00844792  0.98651046  0.87977947  1
  O  O339  1  0.00306600  0.01334629  0.11907891  1
  O  O340  1  0.01681127  -0.00853416  0.62751546  1
  O  O341  1  0.01264094  0.49819518  0.10949808  1
  O  O342  1  0.00529541  0.50576321  0.62227196  1
  O  O343  1  0.48539448  0.01833982  0.11920936  1
  O  O344  1  0.49824724  0.00365830  0.61357584  1
  O  O345  1  0.50532345  0.49115602  0.11395596  1
  O  O346  1  0.50131395  0.50032789  0.61407923  1
  O  O347  1  0.24113272  0.39095693  0.25575690  1
  O  O348  1  0.24961811  0.38376992  0.74311614  1
  O  O349  1  0.24306911  0.88223010  0.24230364  1
  O  O350  1  0.25678552  0.88473728  0.73396495  1
  O  O351  1  0.74569427  0.39269745  0.24471176  1
  O  O352  1  0.74887074  0.37930522  0.74291199  1
  O  O353  1  0.74717273  0.88563444  0.24288281  1
  O  O354  1  0.75035563  0.88149267  0.74388672  1
  O  O355  1  0.25217170  0.11775927  0.25867433  1
  O  O356  1  0.25882841  0.11743645  0.75671973  1
  O  O357  1  0.26020979  0.61347796  0.25073565  1
  O  O358  1  0.25594404  0.61857141  0.75379669  1
  O  O359  1  0.76386327  0.13447430  0.26724182  1
  O  O360  1  0.75518945  0.11807869  0.75714854  1
  O  O361  1  0.74781537  0.60853469  0.25826024  1
  O  O362  1  0.74917538  0.61189207  0.74967371  1
  O  O363  1  0.36688402  0.12176219  0.37072540  1
  O  O364  1  0.37048237  0.11739967  0.87211894  1
  O  O365  1  0.37750212  0.61671261  0.36635673  1
  O  O366  1  0.36801813  0.62007199  0.86611443  1
  O  O367  1  0.87155914  0.12056035  0.37383066  1
  O  O368  1  0.86213389  0.13116675  0.86524655  1
  O  O369  1  0.86863104  0.61544213  0.38446390  1
  O  O370  1  0.87401956  0.60928660  0.87822707  1
  O  O371  1  0.12145140  0.37461119  0.13436742  1
  O  O372  1  0.13293620  0.38175901  0.62548292  1
  O  O373  1  0.13418106  0.87449072  0.13079249  1
  O  O374  1  0.14018719  0.88388588  0.61511747  1
  O  O375  1  0.62295467  0.37382956  0.13850880  1
  O  O376  1  0.63883071  0.37532506  0.62380526  1
  O  O377  1  0.62434838  0.88913674  0.12546242  1
  O  O378  1  0.63181826  0.87612748  0.62305497  1
  O  O379  1  0.12508927  0.26107674  0.26035108  1
  O  O380  1  0.12352081  0.24638322  0.76375497  1
  O  O381  1  0.11698098  0.76453418  0.25023590  1
  O  O382  1  0.10930874  0.75108356  0.76287530  1
  O  O383  1  0.63010426  0.25844714  0.26150661  1
  O  O384  1  0.61287265  0.25185188  0.75153706  1
  O  O385  1  0.62306094  0.74169965  0.26462017  1
  O  O386  1  0.62435914  0.75190303  0.76242759  1
  O  O387  1  0.37470613  0.24621227  0.23866925  1
  O  O388  1  0.38633276  0.24410198  0.74814308  1
  O  O389  1  0.37768732  0.74014839  0.23845790  1
  O  O390  1  0.37182746  0.73935433  0.75426844  1
  O  O391  1  0.87844099  0.24306900  0.24355797  1
  O  O392  1  0.87450122  0.24053461  0.74114999  1
  O  O393  1  0.88896764  0.75247084  0.25449067  1
  O  O394  1  0.89183661  0.75298295  0.75198493  1
  O  O395  1  0.38247734  0.49264482  0.49497119  1
  O  O396  1  0.38098656  0.49220301  0.99499487  1
  O  O397  1  0.37920529  0.99803170  0.49340161  1
  O  O398  1  0.37523069  0.98960554  0.98710842  1
  O  O399  1  0.88182164  0.49270081  0.49541373  1
  O  O400  1  0.88597940  0.49142100  0.99396691  1
  O  O401  1  0.87933091  0.99455000  0.49148998  1
  O  O402  1  0.89518781  1.02391958  0.98924421  1
  O  O403  1  0.11568855  0.01518088  -0.00406683  1
  O  O404  1  0.12474105  0.00921384  0.50716967  1
  O  O405  1  0.11257724  0.50003457  0.00521669  1
  O  O406  1  0.12048929  0.50633046  0.50761422  1
  O  O407  1  0.62386454  0.01069294  -0.00795776  1
  O  O408  1  0.61366591  0.00696873  0.49750744  1
  O  O409  1  0.61492524  0.49905932  0.00780858  1
  O  O410  1  0.61616922  0.50973888  0.50136633  1
  O  O411  1  0.37772818  0.36089136  0.11724812  1
  O  O412  1  0.36733126  0.37463818  0.61607025  1
  O  O413  1  0.36854602  0.87078207  0.11335597  1
  O  O414  1  0.36261135  0.87670059  0.60964475  1
  O  O415  1  0.87356544  0.36333285  0.11903660  1
  O  O416  1  0.86551344  0.36647079  0.62064753  1
  O  O417  1  0.86346929  0.91933638  0.10836393  1
  O  O418  1  0.86930623  0.87234124  0.61554939  1
  O  O419  1  0.13118417  0.13418286  0.37937739  1
  O  O420  1  0.13467735  0.12915387  0.88218817  1
  O  O421  1  0.12578189  0.62312589  0.39251316  1
  O  O422  1  0.13277931  0.63795844  0.87247018  1
  O  O423  1  0.63246506  0.13342407  0.37656188  1
  O  O424  1  0.63565294  0.12818297  0.88010198  1
  O  O425  1  0.63285845  0.62960728  0.38296032  1
  O  O426  1  0.62398559  0.63607838  0.87582908  1
