# generated using pymatgen
data_V85Zn86O256
_symmetry_space_group_name_H-M   'P 1'
_cell_length_a   16.91991176
_cell_length_b   16.92070400
_cell_length_c   16.91745651
_cell_angle_alpha   89.97466452
_cell_angle_beta   89.95206885
_cell_angle_gamma   89.94938639
_symmetry_Int_Tables_number   1
_chemical_formula_structural   V85Zn86O256
_chemical_formula_sum   'V85 Zn86 O256'
_cell_volume   4843.40992094
_cell_formula_units_Z   1
loop_
 _symmetry_equiv_pos_site_id
 _symmetry_equiv_pos_as_xyz
  1  'x, y, z'
loop_
 _atom_site_type_symbol
 _atom_site_label
 _atom_site_symmetry_multiplicity
 _atom_site_fract_x
 _atom_site_fract_y
 _atom_site_fract_z
 _atom_site_occupancy
  V  V0  1  0.62376252  0.12596540  0.00031202  1
  V  V1  1  0.24885245  0.74885931  0.49776589  1
  V  V2  1  0.12338077  0.61977759  0.49958224  1
  V  V3  1  0.87055286  0.50970607  0.87127594  1
  V  V4  1  0.00131886  0.74701028  0.75608398  1
  V  V5  1  -0.00949676  -0.00523124  -0.00861273  1
  V  V6  1  0.24639776  0.13666328  0.87435872  1
  V  V7  1  0.62546190  0.49960966  0.12591180  1
  V  V8  1  0.87433574  0.62465470  0.25136258  1
  V  V9  1  -0.00313179  0.37357926  0.38053510  1
  V  V10  1  0.37579337  0.12849964  0.74956234  1
  V  V11  1  0.24834695  0.37699220  0.63144935  1
  V  V12  1  0.62923999  0.37647847  0.74971126  1
  V  V13  1  0.75673050  0.25956086  0.49540883  1
  V  V14  1  0.37171577  0.37236304  0.01263742  1
  V  V15  1  0.24047962  0.50421792  0.75632331  1
  V  V16  1  0.24990318  0.00044666  0.24627480  1
  V  V17  1  0.49615681  0.49979183  0.48836612  1
  V  V18  1  -0.00368094  0.62208616  0.62741802  1
  V  V19  1  0.74887878  0.37323109  0.12670566  1
  V  V20  1  0.62471917  0.13327722  0.49601407  1
  V  V21  1  0.00033038  0.24553727  0.24555147  1
  V  V22  1  0.75281666  0.87189810  0.11222255  1
  V  V23  1  0.49559789  0.37481925  0.87592264  1
  V  V24  1  0.37608337  0.75153225  0.62783390  1
  V  V25  1  0.62240206  0.37208632  0.26120078  1
  V  V26  1  0.12617455  0.25106031  0.37191022  1
  V  V27  1  0.56588267  0.81728330  0.31597609  1
  V  V28  1  0.87556242  0.88173765  0.49536650  1
  V  V29  1  0.25062377  0.25284951  0.01483469  1
  V  V30  1  0.87283867  0.75306877  0.11322978  1
  V  V31  1  0.00415289  0.62257040  0.12608163  1
  V  V32  1  0.37151565  0.50612830  0.87642612  1
  V  V33  1  0.75255880  -0.00990518  0.25621859  1
  V  V34  1  0.74771447  0.75258564  0.49906489  1
  V  V35  1  0.75046901  0.88060682  0.63592420  1
  V  V36  1  0.87809101  0.24471541  0.12402842  1
  V  V37  1  0.24715576  0.74517365  -0.01124124  1
  V  V38  1  0.24856919  0.87489428  0.62354571  1
  V  V39  1  0.12404466  0.87357418  0.24983358  1
  V  V40  1  0.50142702  0.25403526  0.26408041  1
  V  V41  1  0.49917907  -0.00703105  -0.00004634  1
  V  V42  1  0.37492588  0.13064714  0.24361822  1
  V  V43  1  -0.00256401  0.75027310  0.25140200  1
  V  V44  1  0.87421204  0.49685147  0.38230876  1
  V  V45  1  0.12689660  0.37689408  0.24089916  1
  V  V46  1  0.24866071  0.00222965  0.75065918  1
  V  V47  1  0.11642606  0.00432697  0.12203772  1
  V  V48  1  0.00086879  0.49796181  -0.00005039  1
  V  V49  1  0.87287448  0.12418460  0.75030592  1
  V  V50  1  0.11803952  0.12826183  -0.00296031  1
  V  V51  1  0.37784536  0.74993767  0.12855227  1
  V  V52  1  0.75075510  0.51561229  0.75255452  1
  V  V53  1  0.50228754  0.62909596  0.12852388  1
  V  V54  1  0.49876461  0.13436270  0.12319987  1
  V  V55  1  0.25046494  0.87292368  0.12011173  1
  V  V56  1  0.62920726  0.00333625  0.63095567  1
  V  V57  1  0.87320668  0.74557903  0.63080372  1
  V  V58  1  0.75193418  0.12025868  0.86942116  1
  V  V59  1  0.25880629  0.49452110  0.24998907  1
  V  V60  1  0.25132370  0.25263445  0.49979767  1
  V  V61  1  0.87647581  0.12070522  0.25329500  1
  V  V62  1  0.25069986  0.12606877  0.37307757  1
  V  V63  1  0.12723130  0.62746950  -0.01468445  1
  V  V64  1  0.49562039  0.62381972  0.63217631  1
  V  V65  1  0.87504546  0.37319051  -0.00353446  1
  V  V66  1  0.38133791  -0.00568798  0.37395237  1
  V  V67  1  0.37732671  0.38122478  0.48723236  1
  V  V68  1  0.62777518  0.75836222  0.87535776  1
  V  V69  1  0.37773472  0.62555366  0.25913815  1
  V  V70  1  0.12344792  -0.00145127  0.62098069  1
  V  V71  1  0.63734574  0.62957051  -0.00451705  1
  V  V72  1  0.00948514  0.37112457  0.87207916  1
  V  V73  1  0.74672490  0.12482365  0.37360241  1
  V  V74  1  0.37902472  -0.00493113  0.87407005  1
  V  V75  1  0.12259725  0.87161085  0.76034001  1
  V  V76  1  0.74998669  0.24870067  -0.00103737  1
  V  V77  1  0.62248641  0.50061950  0.62651254  1
  V  V78  1  0.49957918  0.12658532  0.62164870  1
  V  V79  1  0.62172364  0.63136771  0.50079331  1
  V  V80  1  0.62511452  0.25193134  0.87501217  1
  V  V81  1  0.62390520  -0.00493848  0.13258689  1
  V  V82  1  0.74536159  0.62741588  0.37425736  1
  V  V83  1  0.01267830  0.25249154  0.75355141  1
  V  V84  1  -0.00092201  0.12716207  0.62275974  1
  Zn  Zn85  1  0.75083364  0.49780842  0.25177123  1
  Zn  Zn86  1  -0.00383912  0.49206389  0.50648364  1
  Zn  Zn87  1  0.13152249  0.49840770  0.12242264  1
  Zn  Zn88  1  -0.00472128  0.00602800  0.49201600  1
  Zn  Zn89  1  0.75564643  0.37920176  0.62043385  1
  Zn  Zn90  1  0.50018021  0.25288873  0.74730265  1
  Zn  Zn91  1  0.37685714  0.25393138  0.62401958  1
  Zn  Zn92  1  0.12119028  0.49351872  0.62743381  1
  Zn  Zn93  1  -0.00730139  0.88198827  0.37002217  1
  Zn  Zn94  1  0.81643821  -0.04676093  0.81306134  1
  Zn  Zn95  1  0.49744013  0.49980783  0.00261253  1
  Zn  Zn96  1  0.38002409  0.87168851  0.49431450  1
  Zn  Zn97  1  0.12472207  0.12428618  0.49638077  1
  Zn  Zn98  1  0.87855032  0.25944130  0.62195266  1
  Zn  Zn99  1  0.25252771  0.62053950  0.37676573  1
  Zn  Zn100  1  0.37935051  0.86965296  -0.00441057  1
  Zn  Zn101  1  0.50887655  -0.00670765  0.49306256  1
  Zn  Zn102  1  0.61840531  0.88368484  0.75642858  1
  Zn  Zn103  1  -0.02025012  0.87250188  0.87729993  1
  Zn  Zn104  1  0.12415904  0.74931645  0.37489365  1
  Zn  Zn105  1  0.49282396  0.76503074  0.76484154  1
  Zn  Zn106  1  0.36890515  0.62766619  0.75766681  1
  Zn  Zn107  1  0.18421662  0.18553879  0.18447884  1
  Zn  Zn108  1  0.18756505  0.18781674  0.68364850  1
  Zn  Zn109  1  0.19037906  0.68550362  0.18582894  1
  Zn  Zn110  1  0.18462207  0.68453047  0.68734958  1
  Zn  Zn111  1  0.68575866  0.18718208  0.18955828  1
  Zn  Zn112  1  0.68896896  0.19195151  0.68450610  1
  Zn  Zn113  1  0.68538755  0.69281283  0.18944171  1
  Zn  Zn114  1  0.68167334  0.69353096  0.68985851  1
  Zn  Zn115  1  0.31505335  0.31338595  0.30780028  1
  Zn  Zn116  1  0.31105274  0.31587564  0.81405733  1
  Zn  Zn117  1  0.31192639  0.80977508  0.31048215  1
  Zn  Zn118  1  0.31145483  0.81526243  0.81002305  1
  Zn  Zn119  1  0.81093116  0.31081409  0.31468250  1
  Zn  Zn120  1  0.81719473  0.31168976  0.80875267  1
  Zn  Zn121  1  0.80725244  0.80961641  0.31209020  1
  Zn  Zn122  1  0.81078586  0.78404873  0.82305041  1
  Zn  Zn123  1  0.18738157  0.43834497  0.43341643  1
  Zn  Zn124  1  0.18823467  0.43699288  0.93968593  1
  Zn  Zn125  1  0.18886596  0.93680428  0.43478884  1
  Zn  Zn126  1  0.18875502  0.94151241  0.93727858  1
  Zn  Zn127  1  0.68323023  0.44360486  0.43695720  1
  Zn  Zn128  1  0.68782826  0.44091647  0.93848513  1
  Zn  Zn129  1  0.68814931  0.94155919  0.44127795  1
  Zn  Zn130  1  0.68542170  0.93919411  0.94331159  1
  Zn  Zn131  1  0.31122617  0.06360908  0.06060087  1
  Zn  Zn132  1  0.31256330  0.06349122  0.56070878  1
  Zn  Zn133  1  0.31151210  0.56244090  0.06574573  1
  Zn  Zn134  1  0.31122913  0.56118823  0.56542493  1
  Zn  Zn135  1  0.81053984  0.06327581  0.06587052  1
  Zn  Zn136  1  0.81124452  0.06611214  0.56434453  1
  Zn  Zn137  1  0.81553951  0.56052685  0.06454026  1
  Zn  Zn138  1  0.81100082  0.56105986  0.56476659  1
  Zn  Zn139  1  0.43976269  0.43890828  0.19013455  1
  Zn  Zn140  1  0.43267348  0.43851848  0.68701847  1
  Zn  Zn141  1  0.43966078  0.93556372  0.18966419  1
  Zn  Zn142  1  0.44068585  0.93894796  0.68242198  1
  Zn  Zn143  1  0.93682922  0.43560929  0.19112846  1
  Zn  Zn144  1  0.93375234  0.43474739  0.68925089  1
  Zn  Zn145  1  0.93594507  0.93805620  0.18325250  1
  Zn  Zn146  1  0.94091167  0.93588041  0.68260319  1
  Zn  Zn147  1  0.06066524  0.06130014  0.31379522  1
  Zn  Zn148  1  0.06124612  0.06248362  0.81263065  1
  Zn  Zn149  1  0.06475385  0.55954671  0.31460008  1
  Zn  Zn150  1  0.05755070  0.55953598  0.81075523  1
  Zn  Zn151  1  0.56406956  0.06330759  0.31053304  1
  Zn  Zn152  1  0.56086212  0.06356096  0.81240937  1
  Zn  Zn153  1  0.56506323  0.56727792  0.30998373  1
  Zn  Zn154  1  0.55908578  0.56207571  0.81520633  1
  Zn  Zn155  1  0.43426846  0.18598802  0.43679102  1
  Zn  Zn156  1  0.43427873  0.18807028  0.93765882  1
  Zn  Zn157  1  0.44155518  0.69366970  0.43855979  1
  Zn  Zn158  1  0.44313128  0.68699622  0.94497720  1
  Zn  Zn159  1  0.93571703  0.18602311  0.43412482  1
  Zn  Zn160  1  0.93732835  0.18392898  0.93359851  1
  Zn  Zn161  1  0.93574801  0.68920669  0.43993035  1
  Zn  Zn162  1  0.94058666  0.68556569  0.93799182  1
  Zn  Zn163  1  0.06273528  0.30956848  0.05964698  1
  Zn  Zn164  1  0.06579889  0.31096570  0.56346420  1
  Zn  Zn165  1  0.06229555  0.81216657  0.06030131  1
  Zn  Zn166  1  0.06067827  0.81048143  0.56486710  1
  Zn  Zn167  1  0.56022796  0.31480612  0.06414062  1
  Zn  Zn168  1  0.56313216  0.31334640  0.55966101  1
  Zn  Zn169  1  0.56649999  0.81067027  0.06688005  1
  Zn  Zn170  1  0.56025066  0.81669478  0.56238343  1
  O  O171  1  0.12948291  0.11448212  0.11304746  1
  O  O172  1  0.11566342  0.11752619  0.62342650  1
  O  O173  1  0.11171034  0.62418976  0.12396225  1
  O  O174  1  0.11732682  0.62200896  0.61383511  1
  O  O175  1  0.61897083  0.11846435  0.11956718  1
  O  O176  1  0.61909820  0.12318299  0.61875379  1
  O  O177  1  0.62084482  0.61999242  0.12260304  1
  O  O178  1  0.61564617  0.62198923  0.61964869  1
  O  O179  1  0.37272660  0.37516945  0.38834867  1
  O  O180  1  0.38139701  0.38171762  0.88179797  1
  O  O181  1  0.36627352  0.89148897  0.37119521  1
  O  O182  1  0.37012863  0.89090816  0.87632297  1
  O  O183  1  0.88367032  0.38417586  0.36688885  1
  O  O184  1  0.88193236  0.37936155  0.88144154  1
  O  O185  1  0.87111835  0.86811943  0.39242863  1
  O  O186  1  0.86620254  0.87011855  0.86711429  1
  O  O187  1  0.25478934  0.00776079  0.36540121  1
  O  O188  1  0.25783592  0.01034384  0.86924172  1
  O  O189  1  0.24441735  0.50379628  0.35701774  1
  O  O190  1  0.25590788  0.49328440  0.86403826  1
  O  O191  1  0.74954206  0.00937594  0.36639904  1
  O  O192  1  0.73972403  0.01489524  0.87498754  1
  O  O193  1  0.75662939  0.50856499  0.37386790  1
  O  O194  1  0.76226826  0.49657069  0.86964660  1
  O  O195  1  0.24725516  0.50440099  0.14288954  1
  O  O196  1  0.24903124  0.49375231  0.63805206  1
  O  O197  1  0.24276074  0.99206444  0.12666015  1
  O  O198  1  0.24394646  0.99775318  0.63100749  1
  O  O199  1  0.74558412  0.49127475  0.12909833  1
  O  O200  1  0.74100692  0.49962406  0.63341650  1
  O  O201  1  0.74429896  0.99110416  0.13085465  1
  O  O202  1  0.74269530  0.99281278  0.62147410  1
  O  O203  1  0.00610116  0.36479681  0.25728585  1
  O  O204  1  -0.00185009  0.36043728  0.75618603  1
  O  O205  1  0.00611406  0.86784470  0.24709260  1
  O  O206  1  0.00677520  0.86677062  0.74960110  1
  O  O207  1  0.50489337  0.36105814  0.24588454  1
  O  O208  1  0.50911717  0.37617154  0.75666363  1
  O  O209  1  0.51153169  0.87786653  0.25257597  1
  O  O210  1  0.50447648  0.87711922  0.74775749  1
  O  O211  1  0.49549770  0.13499042  0.24428105  1
  O  O212  1  0.49158783  0.12825719  0.74208332  1
  O  O213  1  0.49220571  0.61872612  0.23836479  1
  O  O214  1  0.49740454  0.62440475  0.73871216  1
  O  O215  1  0.99271067  0.13693944  0.25273967  1
  O  O216  1  0.99607031  0.13374383  0.74450998  1
  O  O217  1  0.99683319  0.63089718  0.24517159  1
  O  O218  1  1.00692673  0.63192871  0.73639427  1
  O  O219  1  0.36052236  0.25620047  -0.00409746  1
  O  O220  1  0.36673975  0.26011164  0.49874978  1
  O  O221  1  0.36829257  0.75015584  0.01055752  1
  O  O222  1  0.36311480  0.74860838  0.50728484  1
  O  O223  1  0.87195852  0.25127672  0.00698403  1
  O  O224  1  0.86021283  0.24718029  0.49823272  1
  O  O225  1  0.88069748  0.74512937  0.01406397  1
  O  O226  1  0.86660299  0.75664984  0.51080179  1
  O  O227  1  0.13829717  0.25059837  0.49205163  1
  O  O228  1  0.13692663  0.24115763  1.00374476  1
  O  O229  1  0.13486480  0.74422003  0.50198019  1
  O  O230  1  0.13327436  0.74014845  1.00489666  1
  O  O231  1  0.63326011  0.23934432  0.50150779  1
  O  O232  1  0.62922595  0.24590324  0.99533442  1
  O  O233  1  0.63256491  0.73908865  0.51016540  1
  O  O234  1  0.62233353  0.73724250  0.99427641  1
  O  O235  1  0.50281754  0.23739267  0.12924263  1
  O  O236  1  0.49841515  0.23983969  0.62501374  1
  O  O237  1  0.49105641  0.74258369  0.12145440  1
  O  O238  1  0.48610158  0.74276329  0.62380407  1
  O  O239  1  0.99025098  0.25368706  0.13283642  1
  O  O240  1  1.00242403  0.24394704  0.63403938  1
  O  O241  1  0.99367816  0.74498114  0.13379586  1
  O  O242  1  0.99135947  0.74350641  0.63193076  1
  O  O243  1  0.00457665  0.25471357  0.36661221  1
  O  O244  1  -0.00310606  0.25510722  0.86241530  1
  O  O245  1  -0.00024011  0.75391982  0.36237497  1
  O  O246  1  -0.00517906  0.74989727  0.86025685  1
  O  O247  1  0.50067110  0.24591501  0.36269060  1
  O  O248  1  0.50343033  0.26075480  0.87391498  1
  O  O249  1  0.50279726  0.75994980  0.37320679  1
  O  O250  1  0.51836252  0.73941406  0.87743525  1
  O  O251  1  0.25037908  0.13634250  0.49340103  1
  O  O252  1  0.24513133  0.13465636  0.99369994  1
  O  O253  1  0.24246655  0.62947256  0.49932832  1
  O  O254  1  0.23893831  0.63258943  1.00666855  1
  O  O255  1  0.74546968  0.13194483  0.49147892  1
  O  O256  1  0.74442977  0.12979725  0.99374968  1
  O  O257  1  0.74159989  0.63208433  0.49703618  1
  O  O258  1  0.73559230  0.62202050  1.00985500  1
  O  O259  1  0.25387105  0.36025122  -0.00261676  1
  O  O260  1  0.25985356  0.37225078  0.50285302  1
  O  O261  1  0.24911947  0.86974837  0.00937792  1
  O  O262  1  0.25199482  0.86598142  0.50533881  1
  O  O263  1  0.75497236  0.36857561  0.00557325  1
  O  O264  1  0.74082013  0.36191967  0.49568611  1
  O  O265  1  0.75357633  0.87954512  0.01364820  1
  O  O266  1  0.75760730  0.86885855  0.50832371  1
  O  O267  1  0.13146234  0.49160241  0.24696108  1
  O  O268  1  0.13688431  0.49934731  0.75034769  1
  O  O269  1  0.13000728  0.99519359  0.24006989  1
  O  O270  1  0.12703676  0.99484618  0.73865405  1
  O  O271  1  0.62648406  0.49351196  0.24017322  1
  O  O272  1  0.63071511  0.49515502  0.74813559  1
  O  O273  1  0.63589348  1.00843140  0.23828032  1
  O  O274  1  0.62380846  1.00561545  0.73595378  1
  O  O275  1  0.36972930  0.00708998  0.25615285  1
  O  O276  1  0.37089271  0.01176675  0.75452049  1
  O  O277  1  0.36635079  0.50624188  0.24882019  1
  O  O278  1  0.36585057  0.50212548  0.75997624  1
  O  O279  1  0.86695390  0.01105067  0.24112112  1
  O  O280  1  0.87965911  0.01624934  0.74108116  1
  O  O281  1  0.87382199  0.50789375  0.25982878  1
  O  O282  1  0.86590346  0.49679149  0.76333925  1
  O  O283  1  0.11846711  0.36883557  0.36347322  1
  O  O284  1  0.10863917  0.37902146  0.88074418  1
  O  O285  1  0.12746961  0.87276347  0.35882634  1
  O  O286  1  0.12431604  0.88169445  0.86151766  1
  O  O287  1  0.62541847  0.38181408  0.36036823  1
  O  O288  1  0.61695202  0.37269671  0.87109954  1
  O  O289  1  0.62659770  0.87484371  0.37572080  1
  O  O290  1  0.63108056  0.86323044  0.87780377  1
  O  O291  1  0.38282534  0.11760963  0.13631069  1
  O  O292  1  0.38165267  0.12665030  0.63119084  1
  O  O293  1  0.38299839  0.63152087  0.13131747  1
  O  O294  1  0.38031511  0.63240090  0.62730430  1
  O  O295  1  0.86735823  0.13819628  0.13592221  1
  O  O296  1  0.88658616  0.12996477  0.62807631  1
  O  O297  1  0.88470298  0.62978649  0.13111971  1
  O  O298  1  0.88318611  0.63321238  0.61839899  1
  O  O299  1  0.25277409  0.24619371  0.11360685  1
  O  O300  1  0.25266960  0.25582367  0.61594478  1
  O  O301  1  0.25611774  0.75725801  0.11864352  1
  O  O302  1  0.25851448  0.75196213  0.62004285  1
  O  O303  1  0.75527043  0.25449869  0.11954521  1
  O  O304  1  0.75120911  0.25060633  0.60734247  1
  O  O305  1  0.75661079  0.76401915  0.12979146  1
  O  O306  1  0.75451265  0.75668586  0.61953263  1
  O  O307  1  0.24727199  0.24637956  0.37891575  1
  O  O308  1  0.25205542  0.23937287  0.87924196  1
  O  O309  1  0.24739849  0.74583587  0.38438053  1
  O  O310  1  0.25646120  0.75424728  0.88966913  1
  O  O311  1  0.75045098  0.24089991  0.38474165  1
  O  O312  1  0.74552178  0.24315192  0.88076320  1
  O  O313  1  0.75544750  0.74165425  0.39077101  1
  O  O314  1  0.72654918  0.73131209  0.87462920  1
  O  O315  1  0.01213618  0.11789451  -0.00685760  1
  O  O316  1  0.00315547  0.12755697  0.50807504  1
  O  O317  1  0.00692457  0.61882736  0.00811208  1
  O  O318  1  0.00588131  0.62580415  0.51016648  1
  O  O319  1  0.50223755  0.11988143  0.00754413  1
  O  O320  1  0.50686258  0.12510279  0.50430275  1
  O  O321  1  0.50858928  0.61914263  0.01554518  1
  O  O322  1  0.50466015  0.62154899  0.50879619  1
  O  O323  1  0.48635158  0.38303879  0.50486697  1
  O  O324  1  0.49124524  0.37572839  0.99288129  1
  O  O325  1  0.49197693  0.88251359  0.50604075  1
  O  O326  1  0.49911235  0.88925327  1.00874348  1
  O  O327  1  1.00556057  0.37168792  0.48492603  1
  O  O328  1  0.99397618  0.37820596  0.99401183  1
  O  O329  1  0.98378893  0.87148376  0.50157705  1
  O  O330  1  1.00516291  0.88923301  0.99586028  1
  O  O331  1  0.50513198  0.50776457  0.38951147  1
  O  O332  1  0.49225888  0.48837101  0.87838733  1
  O  O333  1  0.48465388  1.00873138  0.37345299  1
  O  O334  1  0.49150507  1.00973541  0.88736605  1
  O  O335  1  0.99240893  0.49044963  0.37562469  1
  O  O336  1  0.98858501  0.49135970  0.87698341  1
  O  O337  1  1.00328606  0.99449326  0.38005760  1
  O  O338  1  0.99966212  0.99772667  0.88681844  1
  O  O339  1  0.01213136  -0.00410085  0.11592883  1
  O  O340  1  0.00796758  0.00809376  0.61843827  1
  O  O341  1  -0.00166305  0.50708809  0.11953363  1
  O  O342  1  0.00095440  0.50661799  0.62598954  1
  O  O343  1  0.50748181  0.00873425  0.12214161  1
  O  O344  1  0.50620470  0.01539321  0.62005358  1
  O  O345  1  0.50970624  0.50593679  0.12455691  1
  O  O346  1  0.50271264  0.50776719  0.61909229  1
  O  O347  1  0.24402139  0.38483841  0.25163857  1
  O  O348  1  0.25480072  0.38622528  0.74268165  1
  O  O349  1  0.24328924  0.87785389  0.23818147  1
  O  O350  1  0.24212067  0.88208900  0.74339259  1
  O  O351  1  0.74072992  0.37192393  0.24346933  1
  O  O352  1  0.73731828  0.38017015  0.75347089  1
  O  O353  1  0.75629529  0.88736919  0.24466655  1
  O  O354  1  0.74786862  0.87496325  0.74064517  1
  O  O355  1  0.25813039  0.12254927  0.25083039  1
  O  O356  1  0.25509021  0.12227919  0.75504287  1
  O  O357  1  0.25905130  0.61665403  0.25200047  1
  O  O358  1  0.25010096  0.60941971  0.74781117  1
  O  O359  1  0.75550716  0.12012144  0.25628645  1
  O  O360  1  0.75859065  0.13322987  0.75724977  1
  O  O361  1  0.75441224  0.62552022  0.25943719  1
  O  O362  1  0.74521426  0.61471894  0.74554404  1
  O  O363  1  0.36919254  0.11906671  0.36274847  1
  O  O364  1  0.36844645  0.11878173  0.86743128  1
  O  O365  1  0.37761563  0.63144046  0.36207551  1
  O  O366  1  0.38277513  0.60963316  0.87930210  1
  O  O367  1  0.86522352  0.12925800  0.36108088  1
  O  O368  1  0.86396034  0.12675801  0.86557946  1
  O  O369  1  0.86624624  0.62066448  0.37165836  1
  O  O370  1  0.87919472  0.60851398  0.87869005  1
  O  O371  1  0.11903719  0.37516441  0.13729883  1
  O  O372  1  0.14252053  0.37617181  0.61787295  1
  O  O373  1  0.13096363  0.88040769  0.13235105  1
  O  O374  1  0.12897833  0.88226279  0.62997188  1
  O  O375  1  0.62938495  0.38262647  0.13011442  1
  O  O376  1  0.62643229  0.38157548  0.63364983  1
  O  O377  1  0.63842071  0.88320945  0.12201189  1
  O  O378  1  0.63506534  0.88598205  0.62440844  1
  O  O379  1  0.11845729  0.25439878  0.25128983  1
  O  O380  1  0.11179042  0.24416351  0.75025800  1
  O  O381  1  0.11715939  0.75715942  0.24761969  1
  O  O382  1  0.11539583  0.75985600  0.74183498  1
  O  O383  1  0.61147398  0.25710350  0.24565662  1
  O  O384  1  0.62332162  0.25933457  0.75611359  1
  O  O385  1  0.62450619  0.75379445  0.26048028  1
  O  O386  1  0.61862174  0.75365248  0.76343972  1
  O  O387  1  0.38747638  0.24332661  0.25068127  1
  O  O388  1  0.37557625  0.23928332  0.74965272  1
  O  O389  1  0.36760544  0.74104307  0.23682914  1
  O  O390  1  0.37540042  0.74597287  0.74401358  1
  O  O391  1  0.88168961  0.24524090  0.24345086  1
  O  O392  1  0.88481745  0.23897451  0.74585023  1
  O  O393  1  0.88113410  0.74409360  0.24425078  1
  O  O394  1  0.88151083  0.74805488  0.73696556  1
  O  O395  1  0.38002796  0.48989064  0.50193828  1
  O  O396  1  0.37058695  0.49056106  0.99390009  1
  O  O397  1  0.37107709  1.00319203  0.48122096  1
  O  O398  1  0.38180767  1.00050949  0.99220334  1
  O  O399  1  0.87651932  0.50488108  0.48661576  1
  O  O400  1  0.87992439  0.49379651  0.99172917  1
  O  O401  1  0.87360561  0.98470537  0.50697022  1
  O  O402  1  0.89332134  1.00903769  1.00826752  1
  O  O403  1  0.11978678  0.00818402  0.00505524  1
  O  O404  1  0.12861765  0.00106120  0.51146121  1
  O  O405  1  0.11940599  0.50674836  0.00364475  1
  O  O406  1  0.12084708  0.50664951  0.50180724  1
  O  O407  1  0.61740627  0.00722481  0.01008505  1
  O  O408  1  0.62695082  0.01502323  0.51017161  1
  O  O409  1  0.62484896  0.50545750  0.01293768  1
  O  O410  1  0.61833247  0.51057198  0.50756557  1
  O  O411  1  0.38046874  0.37807926  0.11173306  1
  O  O412  1  0.36418553  0.37348819  0.61676956  1
  O  O413  1  0.36698010  0.86893853  0.12426863  1
  O  O414  1  0.36482026  0.86781624  0.62484907  1
  O  O415  1  0.86939390  0.36523982  0.12041594  1
  O  O416  1  0.86883585  0.37271416  0.62492651  1
  O  O417  1  0.86324337  0.86723851  0.12797259  1
  O  O418  1  0.86787732  0.86763165  0.61873455  1
  O  O419  1  0.13354321  0.13342339  0.37274462  1
  O  O420  1  0.13560351  0.11802842  0.88375849  1
  O  O421  1  0.12225245  0.62847513  0.38816170  1
  O  O422  1  0.11804719  0.62202674  0.88626004  1
  O  O423  1  0.63625862  0.12126932  0.38118472  1
  O  O424  1  0.62886897  0.13352366  0.87960717  1
  O  O425  1  0.63736775  0.62013338  0.38481843  1
  O  O426  1  0.62171239  0.61594630  0.89469483  1
