# generated using pymatgen
data_V85Zn86O256
_symmetry_space_group_name_H-M   'P 1'
_cell_length_a   16.90358909
_cell_length_b   16.90722407
_cell_length_c   16.90242865
_cell_angle_alpha   89.98778703
_cell_angle_beta   90.05732064
_cell_angle_gamma   89.99511405
_symmetry_Int_Tables_number   1
_chemical_formula_structural   V85Zn86O256
_chemical_formula_sum   'V85 Zn86 O256'
_cell_volume   4830.58933057
_cell_formula_units_Z   1
loop_
 _symmetry_equiv_pos_site_id
 _symmetry_equiv_pos_as_xyz
  1  'x, y, z'
loop_
 _atom_site_type_symbol
 _atom_site_label
 _atom_site_symmetry_multiplicity
 _atom_site_fract_x
 _atom_site_fract_y
 _atom_site_fract_z
 _atom_site_occupancy
  V  V0  1  0.75140946  0.62379319  0.87565502  1
  V  V1  1  0.12600112  0.87403518  0.25805465  1
  V  V2  1  0.50114627  0.88026663  0.87740829  1
  V  V3  1  -0.00080179  0.62417388  0.62672900  1
  V  V4  1  0.12948801  0.75557606  0.87691134  1
  V  V5  1  0.37573925  0.86796128  0.00058413  1
  V  V6  1  0.87638606  0.37248055  0.49546404  1
  V  V7  1  0.00070927  0.37523459  0.87249544  1
  V  V8  1  0.75035755  0.87326372  0.12471092  1
  V  V9  1  0.74982245  -0.00223601  0.75269224  1
  V  V10  1  0.75017838  0.49800210  0.75072810  1
  V  V11  1  0.75093449  0.24598936  0.00003737  1
  V  V12  1  0.74966096  0.63434702  0.38783287  1
  V  V13  1  0.62322656  0.49496427  0.13272859  1
  V  V14  1  0.11801462  0.37480333  0.24607124  1
  V  V15  1  0.49881656  0.63214966  0.13388534  1
  V  V16  1  0.74165226  0.12702865  0.37383773  1
  V  V17  1  0.24553520  0.62519299  0.37293535  1
  V  V18  1  0.74763216  0.37340601  0.13227951  1
  V  V19  1  0.00682174  0.12318701  0.12871947  1
  V  V20  1  0.00576796  0.74816623  0.25683813  1
  V  V21  1  -0.00073684  -0.00292808  0.50308441  1
  V  V22  1  0.38236721  0.37326965  0.49950084  1
  V  V23  1  0.37916753  0.49699156  0.37698910  1
  V  V24  1  0.61431472  0.74906381  0.38667218  1
  V  V25  1  0.88093710  0.12899706  0.25241577  1
  V  V26  1  0.24490674  0.00088177  0.24302204  1
  V  V27  1  0.62693953  0.11670200  -0.00357787  1
  V  V28  1  0.37111997  0.25132538  0.12198752  1
  V  V29  1  0.87587382  0.74997577  0.12461877  1
  V  V30  1  0.75079772  0.49926210  0.25841956  1
  V  V31  1  0.13397020  0.25246015  0.87559639  1
  V  V32  1  0.12354299  -0.00579288  0.63275890  1
  V  V33  1  0.60822598  0.86475975  0.25209629  1
  V  V34  1  0.12475060  0.12458296  0.50203549  1
  V  V35  1  0.49715862  0.73949373  0.75289482  1
  V  V36  1  0.51214745  0.37408641  0.37180105  1
  V  V37  1  0.25601374  0.63233320  0.87298373  1
  V  V38  1  0.11662471  0.25139777  0.37185614  1
  V  V39  1  0.50089139  -0.00282631  0.49352211  1
  V  V40  1  0.62170336  0.87554844  0.74112103  1
  V  V41  1  0.62665502  0.62553227  0.00160269  1
  V  V42  1  -0.00472186  0.50009148  0.49160317  1
  V  V43  1  0.49926231  0.12397363  0.12194827  1
  V  V44  1  0.12340082  0.62800523  0.49802946  1
  V  V45  1  0.86639246  0.13608225  0.75426951  1
  V  V46  1  0.24697296  0.49849570  0.24526385  1
  V  V47  1  0.87613144  -0.00205901  0.37528914  1
  V  V48  1  0.50068712  0.37522868  0.87515612  1
  V  V49  1  0.62813892  0.24562126  0.87436393  1
  V  V50  1  0.25165440  0.50590797  0.74701876  1
  V  V51  1  0.00413625  0.50045366  0.00156559  1
  V  V52  1  0.49852235  0.62020795  0.60784545  1
  V  V53  1  0.49175626  0.24977743  0.74436821  1
  V  V54  1  0.00601250  0.00121756  0.00340807  1
  V  V55  1  -0.00669891  0.13313148  0.62678409  1
  V  V56  1  0.62480200  0.37378272  0.74825771  1
  V  V57  1  0.25200049  0.12431451  0.37326995  1
  V  V58  1  0.61962623  -0.00347373  0.12351819  1
  V  V59  1  0.24739621  -0.00238659  0.75339701  1
  V  V60  1  0.13401098  0.62727730  0.00322412  1
  V  V61  1  0.88194935  0.25047067  0.12757883  1
  V  V62  1  0.51333382  0.25342970  0.25156123  1
  V  V63  1  0.00617741  0.62198546  0.12459026  1
  V  V64  1  0.13287190  0.12917493  0.00176080  1
  V  V65  1  0.37258633  0.74663017  0.62924661  1
  V  V66  1  0.37714681  0.00289951  0.87977615  1
  V  V67  1  0.62293906  0.50192974  0.61270935  1
  V  V68  1  0.00153712  0.75323819  0.74951050  1
  V  V69  1  0.74785986  0.24832357  0.49710605  1
  V  V70  1  0.37608487  0.50371559  0.87162760  1
  V  V71  1  0.49460409  0.12640916  0.62114090  1
  V  V72  1  0.75609333  0.36655364  0.62521744  1
  V  V73  1  0.25525869  0.24930540  0.50222634  1
  V  V74  1  0.24561098  0.75118146  0.49639650  1
  V  V75  1  0.85961637  0.87292500  0.50772046  1
  V  V76  1  0.00321037  0.87894626  0.86971407  1
  V  V77  1  0.75040054  -0.00451471  0.25011516  1
  V  V78  1  0.37665922  0.87453896  0.49502731  1
  V  V79  1  0.25459593  0.37096985  0.62528267  1
  V  V80  1  0.87627042  0.87671105  -0.00440472  1
  V  V81  1  0.24639466  0.37546279  0.11850085  1
  V  V82  1  0.49983529  0.49863181  0.00111037  1
  V  V83  1  0.23940863  0.87165105  0.11632291  1
  V  V84  1  0.87355475  0.62129541  0.25300500  1
  Zn  Zn85  1  0.37547507  0.12468568  0.24873049  1
  Zn  Zn86  1  0.86165660  0.74536570  0.61367303  1
  Zn  Zn87  1  0.00144256  0.86821081  0.37928989  1
  Zn  Zn88  1  0.62553936  0.75174324  0.87482605  1
  Zn  Zn89  1  -0.00617825  0.37530719  0.36854146  1
  Zn  Zn90  1  0.37894274  0.62938347  0.25550501  1
  Zn  Zn91  1  0.87601167  0.37590825  0.00082237  1
  Zn  Zn92  1  0.12583138  0.37406401  0.74677776  1
  Zn  Zn93  1  0.37429888  0.75343898  0.13091621  1
  Zn  Zn94  1  0.12557511  0.49839510  0.62389938  1
  Zn  Zn95  1  -0.00095090  0.25436009  0.74509996  1
  Zn  Zn96  1  0.37587179  -0.00670251  0.37078074  1
  Zn  Zn97  1  0.87543140  0.62342707  0.74912857  1
  Zn  Zn98  1  0.24588621  0.87336194  0.62835579  1
  Zn  Zn99  1  0.75239889  0.75140595  -0.00498018  1
  Zn  Zn100  1  0.87050116  0.00956168  0.87843963  1
  Zn  Zn101  1  0.62915258  0.00055216  0.61976736  1
  Zn  Zn102  1  0.25441678  0.13008978  0.87709898  1
  Zn  Zn103  1  0.87564387  0.49826426  0.87631405  1
  Zn  Zn104  1  0.62158687  0.12778686  0.49701913  1
  Zn  Zn105  1  0.37249405  0.12649978  0.74796473  1
  Zn  Zn106  1  0.36931373  0.37101189  -0.00260613  1
  Zn  Zn107  1  0.18728910  0.19263682  0.18821136  1
  Zn  Zn108  1  0.18684323  0.18485696  0.68912338  1
  Zn  Zn109  1  0.19073289  0.69121988  0.18828419  1
  Zn  Zn110  1  0.18407190  0.68799027  0.68978660  1
  Zn  Zn111  1  0.69049111  0.18379984  0.18688243  1
  Zn  Zn112  1  0.68299145  0.18435456  0.68439980  1
  Zn  Zn113  1  0.68762690  0.68807371  0.18864848  1
  Zn  Zn114  1  0.68111905  0.68491483  0.68242979  1
  Zn  Zn115  1  0.31381125  0.31034284  0.30860534  1
  Zn  Zn116  1  0.31252493  0.31655048  0.81300771  1
  Zn  Zn117  1  0.31420559  0.80934946  0.30935231  1
  Zn  Zn118  1  0.31277192  0.81661537  0.81016297  1
  Zn  Zn119  1  0.81218525  0.31076791  0.31370020  1
  Zn  Zn120  1  0.81346665  0.31184089  0.81557255  1
  Zn  Zn121  1  0.81287412  0.81043903  0.31435563  1
  Zn  Zn122  1  0.79215711  0.79045915  0.77536272  1
  Zn  Zn123  1  0.18706747  0.43820147  0.43614424  1
  Zn  Zn124  1  0.18533618  0.44256859  0.93626524  1
  Zn  Zn125  1  0.18858318  0.93792744  0.43794847  1
  Zn  Zn126  1  0.18666838  0.94180291  0.93751252  1
  Zn  Zn127  1  0.69123752  0.43840012  0.43718913  1
  Zn  Zn128  1  0.68763940  0.43482684  0.94154771  1
  Zn  Zn129  1  0.68282056  0.93538099  0.43334225  1
  Zn  Zn130  1  0.69073918  0.93896913  0.93026008  1
  Zn  Zn131  1  0.31436791  0.05628982  0.06250673  1
  Zn  Zn132  1  0.31400697  0.06129392  0.56435722  1
  Zn  Zn133  1  0.31439319  0.56006252  0.06111646  1
  Zn  Zn134  1  0.31593881  0.56143587  0.56055394  1
  Zn  Zn135  1  0.81321091  0.06212474  0.06397238  1
  Zn  Zn136  1  0.81085775  0.06227469  0.56682906  1
  Zn  Zn137  1  0.81515264  0.56046924  0.06455589  1
  Zn  Zn138  1  0.81504904  0.55643449  0.56405550  1
  Zn  Zn139  1  0.43508374  0.43681874  0.19086911  1
  Zn  Zn140  1  0.43531579  0.43962831  0.68669052  1
  Zn  Zn141  1  0.43186806  0.93958964  0.18549926  1
  Zn  Zn142  1  0.43550545  0.93770677  0.68508371  1
  Zn  Zn143  1  0.93692081  0.44041496  0.18583259  1
  Zn  Zn144  1  0.93661095  0.43870215  0.68417821  1
  Zn  Zn145  1  0.94097038  0.93797350  0.18665437  1
  Zn  Zn146  1  0.93318248  0.94113078  0.68914549  1
  Zn  Zn147  1  0.06494046  0.06050712  0.31318015  1
  Zn  Zn148  1  0.06017418  0.06695363  0.81352948  1
  Zn  Zn149  1  0.06554654  0.56049118  0.31173457  1
  Zn  Zn150  1  0.06833373  0.56272432  0.81349905  1
  Zn  Zn151  1  0.56000437  0.05888687  0.30851700  1
  Zn  Zn152  1  0.56136777  0.06290569  0.81049786  1
  Zn  Zn153  1  0.56666275  0.56192242  0.31884315  1
  Zn  Zn154  1  0.56602098  0.56181653  0.81015356  1
  Zn  Zn155  1  0.43757165  0.18832706  0.43427376  1
  Zn  Zn156  1  0.44109498  0.18744590  0.93962409  1
  Zn  Zn157  1  0.43249593  0.68916451  0.43559837  1
  Zn  Zn158  1  0.43859140  0.68932408  0.94107913  1
  Zn  Zn159  1  0.93219958  0.18835819  0.44198752  1
  Zn  Zn160  1  0.94202132  0.19034895  0.93744392  1
  Zn  Zn161  1  0.93288214  0.68734121  0.43703260  1
  Zn  Zn162  1  0.93795597  0.68897727  0.93530622  1
  Zn  Zn163  1  0.06433803  0.31157838  0.06140417  1
  Zn  Zn164  1  0.06740087  0.31408585  0.55964564  1
  Zn  Zn165  1  0.06386976  0.80972918  0.06259125  1
  Zn  Zn166  1  0.05999335  0.81211431  0.56379440  1
  Zn  Zn167  1  0.56233818  0.31115936  0.06333578  1
  Zn  Zn168  1  0.56595676  0.31133146  0.56141103  1
  Zn  Zn169  1  0.56185425  0.81206607  0.05855759  1
  Zn  Zn170  1  0.55805753  0.81189908  0.56195119  1
  O  O171  1  0.11309455  0.13504925  0.11959572  1
  O  O172  1  0.11713331  0.11623006  0.61887731  1
  O  O173  1  0.11891808  0.63282461  0.11560793  1
  O  O174  1  0.11462274  0.62392932  0.61750453  1
  O  O175  1  0.62093522  0.11540591  0.12027901  1
  O  O176  1  0.61118210  0.12178569  0.62061417  1
  O  O177  1  0.61735498  0.61868687  0.12034243  1
  O  O178  1  0.60955654  0.61686853  0.62824656  1
  O  O179  1  0.38068536  0.37945573  0.37939672  1
  O  O180  1  0.38181654  0.38381346  0.87800106  1
  O  O181  1  0.36570042  0.87390775  0.38997525  1
  O  O182  1  0.38038638  0.88026902  0.88153805  1
  O  O183  1  0.87700785  0.37079955  0.38774034  1
  O  O184  1  0.88480847  0.37629581  0.87972878  1
  O  O185  1  0.87742120  0.88293125  0.38334973  1
  O  O186  1  0.88491401  0.87717481  0.88997416  1
  O  O187  1  0.24953325  0.00926055  0.36835476  1
  O  O188  1  0.25665028  0.00365728  0.86934204  1
  O  O189  1  0.25596526  0.50479951  0.36703100  1
  O  O190  1  0.25763216  0.50751911  0.86863264  1
  O  O191  1  0.76045900  0.00481494  0.37101045  1
  O  O192  1  0.75096995  0.00876625  0.86087878  1
  O  O193  1  0.74269751  0.51172391  0.36301512  1
  O  O194  1  0.74988346  0.50221512  0.86904309  1
  O  O195  1  0.25699815  0.49336423  0.13733807  1
  O  O196  1  0.25211059  0.49570306  0.63240472  1
  O  O197  1  0.25140227  0.98765209  0.13279779  1
  O  O198  1  0.24040638  1.00120345  0.63245653  1
  O  O199  1  0.74476346  0.49236540  0.13277033  1
  O  O200  1  0.74242313  0.49378213  0.63254119  1
  O  O201  1  0.73979843  0.99466500  0.12964381  1
  O  O202  1  0.74608661  1.00674365  0.64410761  1
  O  O203  1  0.01211813  0.38220011  0.25021804  1
  O  O204  1  0.00238413  0.37574082  0.75635040  1
  O  O205  1  0.00757140  0.86656017  0.24948652  1
  O  O206  1  -0.00491458  0.87130986  0.76207603  1
  O  O207  1  0.49857930  0.36208895  0.25522268  1
  O  O208  1  0.50466989  0.36890292  0.75344753  1
  O  O209  1  0.51006967  0.87711566  0.24685142  1
  O  O210  1  0.50366072  0.86831772  0.75621244  1
  O  O211  1  0.50025332  0.13350766  0.23984292  1
  O  O212  1  0.49874877  0.13357609  0.74212491  1
  O  O213  1  0.50182316  0.61728185  0.23592594  1
  O  O214  1  0.50128458  0.63704830  0.75041838  1
  O  O215  1  0.99284819  0.11887757  0.24275894  1
  O  O216  1  0.98881587  0.12698535  0.74225524  1
  O  O217  1  0.99636716  0.62822374  0.24454383  1
  O  O218  1  1.00221154  0.62824955  0.74211401  1
  O  O219  1  0.38359272  0.25342486  0.01503733  1
  O  O220  1  0.36238492  0.25698622  0.49283359  1
  O  O221  1  0.37599937  0.76341960  0.00437224  1
  O  O222  1  0.36668238  0.75376420  0.50883306  1
  O  O223  1  0.86719664  0.24886659  0.00788176  1
  O  O224  1  0.86284506  0.25749350  0.50247702  1
  O  O225  1  0.87606166  0.75854930  0.00630485  1
  O  O226  1  0.87747967  0.76755452  0.49889561  1
  O  O227  1  0.13619906  0.24457831  0.49283964  1
  O  O228  1  0.12001519  0.24053298  0.99014102  1
  O  O229  1  0.12983364  0.73806412  0.50434157  1
  O  O230  1  0.12143068  0.74092069  0.98756015  1
  O  O231  1  0.64110567  0.24833136  0.50020847  1
  O  O232  1  0.63136131  0.24168568  0.99526158  1
  O  O233  1  0.62602356  0.75912786  0.48592359  1
  O  O234  1  0.62841977  0.73688757  0.99812995  1
  O  O235  1  0.49635704  0.24504067  0.13421100  1
  O  O236  1  0.50520568  0.24403482  0.63452635  1
  O  O237  1  0.50185563  0.73435800  0.12144668  1
  O  O238  1  0.49367147  0.73802172  0.62968347  1
  O  O239  1  0.98745601  0.24322926  0.12023354  1
  O  O240  1  1.00729710  0.23673725  0.62252457  1
  O  O241  1  0.99560725  0.74033989  0.13256417  1
  O  O242  1  0.99837347  0.74351589  0.63398231  1
  O  O243  1  0.01311275  0.24929581  0.38354996  1
  O  O244  1  0.00848476  0.26361572  0.87485200  1
  O  O245  1  -0.00365613  0.74851925  0.36108102  1
  O  O246  1  0.00912070  0.75861334  0.87234684  1
  O  O247  1  0.49714595  0.25498416  0.35911549  1
  O  O248  1  0.51081392  0.25503659  0.86997946  1
  O  O249  1  0.51459484  0.74182044  0.37594018  1
  O  O250  1  0.49854859  0.75846099  0.86790469  1
  O  O251  1  0.24681074  0.13071592  0.49419351  1
  O  O252  1  0.23599831  0.11871035  1.00213753  1
  O  O253  1  0.24228557  0.62922725  0.49522377  1
  O  O254  1  0.24061189  0.61975040  0.99356198  1
  O  O255  1  0.75158054  0.13026338  0.49153763  1
  O  O256  1  0.74238337  0.13728656  1.00831798  1
  O  O257  1  0.75662298  0.62141872  0.48628302  1
  O  O258  1  0.74336809  0.62339840  0.99552729  1
  O  O259  1  0.24796603  0.38456482  0.01418971  1
  O  O260  1  0.25724129  0.36788742  0.50377236  1
  O  O261  1  0.25370003  0.88086565  0.01130346  1
  O  O262  1  0.25130180  0.86557789  0.50480463  1
  O  O263  1  0.75111711  0.36384241  0.01212359  1
  O  O264  1  0.75698971  0.36974560  0.50469269  1
  O  O265  1  0.75860093  0.87551663  0.00416146  1
  O  O266  1  0.76114671  0.88192101  0.50047116  1
  O  O267  1  0.13640862  0.48993010  0.25444556  1
  O  O268  1  0.13939588  0.49729605  0.74837859  1
  O  O269  1  0.13509085  0.99206479  0.25131483  1
  O  O270  1  0.13145257  1.00727123  0.74347752  1
  O  O271  1  0.63432361  0.50488809  0.23905695  1
  O  O272  1  0.63442104  0.49255459  0.74448631  1
  O  O273  1  0.62968601  0.98738143  0.24406923  1
  O  O274  1  0.63198077  0.99512926  0.74925026  1
  O  O275  1  0.36191470  0.00288189  0.25248294  1
  O  O276  1  0.36865720  0.00050816  0.76126963  1
  O  O277  1  0.36603576  0.50262765  0.26069653  1
  O  O278  1  0.36731982  0.49797578  0.76279857  1
  O  O279  1  0.87238165  0.00567005  0.25729209  1
  O  O280  1  0.86396370  0.00793129  0.75437870  1
  O  O281  1  0.86745566  0.51263325  0.24514763  1
  O  O282  1  0.86184560  0.50144936  0.75057016  1
  O  O283  1  0.12340386  0.36682636  0.36828349  1
  O  O284  1  0.12003375  0.36966078  0.87353716  1
  O  O285  1  0.12228024  0.87766368  0.36295831  1
  O  O286  1  0.11592785  0.86809902  0.88246359  1
  O  O287  1  0.61171006  0.38012510  0.37907089  1
  O  O288  1  0.62003852  0.36843619  0.86991897  1
  O  O289  1  0.62875316  0.86247441  0.36067644  1
  O  O290  1  0.61549641  0.87412758  0.86893167  1
  O  O291  1  0.38354049  0.12924645  0.12347677  1
  O  O292  1  0.38835275  0.12338481  0.62719164  1
  O  O293  1  0.39147525  0.62255257  0.12196196  1
  O  O294  1  0.38765832  0.63035803  0.62163419  1
  O  O295  1  0.88264061  0.13029764  0.13307261  1
  O  O296  1  0.88299033  0.12029069  0.63856022  1
  O  O297  1  0.88257787  0.63119987  0.13144094  1
  O  O298  1  0.88688472  0.62643393  0.62485475  1
  O  O299  1  0.25940465  0.26060882  0.12881047  1
  O  O300  1  0.24677752  0.25712614  0.61533483  1
  O  O301  1  0.25092961  0.76768061  0.12506941  1
  O  O302  1  0.25552079  0.74717015  0.61768631  1
  O  O303  1  0.75844499  0.25531811  0.12239618  1
  O  O304  1  0.74458130  0.26126697  0.62022746  1
  O  O305  1  0.75750351  0.75590379  0.12211481  1
  O  O306  1  0.76422564  0.75435940  0.66749276  1
  O  O307  1  0.24175413  0.24361744  0.37953258  1
  O  O308  1  0.23937492  0.25129781  0.87407548  1
  O  O309  1  0.25291302  0.74035926  0.38854719  1
  O  O310  1  0.24401210  0.74390732  0.86833960  1
  O  O311  1  0.75444288  0.23836733  0.38171527  1
  O  O312  1  0.73750720  0.25554007  0.88498140  1
  O  O313  1  0.74260408  0.73872210  0.37197912  1
  O  O314  1  0.74691001  0.73809081  0.87290036  1
  O  O315  1  0.00564189  0.11930135  0.00761338  1
  O  O316  1  -0.00024717  0.11455785  0.50723224  1
  O  O317  1  0.00785388  0.62174641  0.00599889  1
  O  O318  1  0.00441999  0.62116417  0.50369217  1
  O  O319  1  0.51251366  0.13025862  0.01416929  1
  O  O320  1  0.50001075  0.12140901  0.50411070  1
  O  O321  1  0.50909197  0.61839956  0.00695441  1
  O  O322  1  0.49847164  0.62440461  0.50942367  1
  O  O323  1  0.48823661  0.36388451  0.49150520  1
  O  O324  1  0.50259302  0.38257213  0.99285348  1
  O  O325  1  0.48932556  0.88370478  0.50305127  1
  O  O326  1  0.49237631  0.87313529  0.98985974  1
  O  O327  1  0.99357580  0.38210854  0.50079740  1
  O  O328  1  1.00182281  0.38471971  0.99446455  1
  O  O329  1  0.99802887  0.88722646  0.49808739  1
  O  O330  1  0.99651591  0.88323075  0.99733744  1
  O  O331  1  0.49090011  0.48996162  0.36736976  1
  O  O332  1  0.49415203  0.49773899  0.87767483  1
  O  O333  1  0.49405911  1.00743411  0.38722248  1
  O  O334  1  0.49228628  0.98909185  0.86905177  1
  O  O335  1  1.00350561  0.49915807  0.38746564  1
  O  O336  1  1.00121681  0.49146012  0.88059191  1
  O  O337  1  0.98951019  1.00120203  0.38335205  1
  O  O338  1  0.99736978  0.99363465  0.88220886  1
  O  O339  1  -0.00328064  0.01152287  0.11680665  1
  O  O340  1  0.00457209  0.00790640  0.62055273  1
  O  O341  1  -0.00093037  0.51402138  0.11893530  1
  O  O342  1  0.00316284  0.50789472  0.61528619  1
  O  O343  1  0.51131681  0.00764443  0.12973853  1
  O  O344  1  0.49983284  0.00733734  0.61304745  1
  O  O345  1  0.50714199  0.50347162  0.12182633  1
  O  O346  1  0.50518055  0.51287959  0.63039676  1
  O  O347  1  0.24312425  0.38136832  0.24308493  1
  O  O348  1  0.25215085  0.38325636  0.74030839  1
  O  O349  1  0.24230355  0.88060543  0.24265063  1
  O  O350  1  0.25161818  0.89081706  0.74665654  1
  O  O351  1  0.75623490  0.38315680  0.24144585  1
  O  O352  1  0.74717324  0.37794439  0.74298335  1
  O  O353  1  0.74870526  0.87955232  0.24238125  1
  O  O354  1  0.73716391  0.89035735  0.76048056  1
  O  O355  1  0.24725670  0.11795535  0.25539303  1
  O  O356  1  0.25397308  0.11507360  0.75309059  1
  O  O357  1  0.24751856  0.61671791  0.25726068  1
  O  O358  1  0.24803508  0.61807215  0.75921549  1
  O  O359  1  0.75895518  0.11674197  0.25488165  1
  O  O360  1  0.76110139  0.12296283  0.74820996  1
  O  O361  1  0.75776970  0.61887777  0.25282822  1
  O  O362  1  0.74687860  0.61273845  0.75995668  1
  O  O363  1  0.36062633  0.12626456  0.37153514  1
  O  O364  1  0.37571197  0.11727268  0.87645696  1
  O  O365  1  0.36359702  0.61546639  0.37808427  1
  O  O366  1  0.36419032  0.62054010  0.88255287  1
  O  O367  1  0.87071717  0.11801995  0.36834659  1
  O  O368  1  0.88217262  0.12777540  0.85912523  1
  O  O369  1  0.86145909  0.63007088  0.36579693  1
  O  O370  1  0.86286776  0.62016393  0.87670780  1
  O  O371  1  0.13255368  0.36815010  0.13421730  1
  O  O372  1  0.14025659  0.37850346  0.62339416  1
  O  O373  1  0.13455765  0.87386095  0.13072849  1
  O  O374  1  0.12326935  0.88998090  0.62192058  1
  O  O375  1  0.63451629  0.38313824  0.12176281  1
  O  O376  1  0.63146807  0.38217271  0.63044124  1
  O  O377  1  0.62702141  0.87840973  0.13194173  1
  O  O378  1  0.61662693  0.87786630  0.63785132  1
  O  O379  1  0.12797745  0.26053215  0.26049885  1
  O  O380  1  0.12107102  0.25165522  0.75956235  1
  O  O381  1  0.11686005  0.75903520  0.24648907  1
  O  O382  1  0.11404689  0.74701678  0.76313644  1
  O  O383  1  0.61256772  0.24782526  0.24340112  1
  O  O384  1  0.61971240  0.25373877  0.75832802  1
  O  O385  1  0.62553538  0.76177643  0.25240644  1
  O  O386  1  0.61280831  0.75816486  0.75315495  1
  O  O387  1  0.38348206  0.24645363  0.23761316  1
  O  O388  1  0.38863408  0.24967055  0.75716800  1
  O  O389  1  0.37164539  0.74162937  0.24467766  1
  O  O390  1  0.38082243  0.75599241  0.73654921  1
  O  O391  1  0.87194966  0.23731167  0.24346256  1
  O  O392  1  0.87604216  0.24005120  0.74914594  1
  O  O393  1  0.88163675  0.74136019  0.24389296  1
  O  O394  1  0.89615252  0.74151849  0.76170136  1
  O  O395  1  0.36889924  0.48814029  0.48636909  1
  O  O396  1  0.38172372  0.49709328  0.98830054  1
  O  O397  1  0.37915152  0.99066483  0.49853151  1
  O  O398  1  0.37183540  0.98933763  0.98676188  1
  O  O399  1  0.88401954  0.48928880  0.50158103  1
  O  O400  1  0.88948927  0.49900165  1.00011232  1
  O  O401  1  0.87975619  0.99349576  0.49500089  1
  O  O402  1  0.88398872  0.99615779  0.99906096  1
  O  O403  1  0.11250403  0.01021689  -0.00362134  1
  O  O404  1  0.11693970  0.00622156  0.50489003  1
  O  O405  1  0.11320630  0.51245972  -0.00423541  1
  O  O406  1  0.12021950  0.51191546  0.50127630  1
  O  O407  1  0.63213251  0.00888272  0.00719111  1
  O  O408  1  0.61632511  0.00094398  0.49956213  1
  O  O409  1  0.62270752  0.50823683  0.01092056  1
  O  O410  1  0.62853114  0.49707908  0.51340486  1
  O  O411  1  0.36657898  0.36885533  0.12399693  1
  O  O412  1  0.36566819  0.38024448  0.61404685  1
  O  O413  1  0.36550965  0.87682640  0.11598021  1
  O  O414  1  0.37152269  0.86474715  0.61509547  1
  O  O415  1  0.86926720  0.36636697  0.12446268  1
  O  O416  1  0.86409614  0.37928650  0.61502168  1
  O  O417  1  0.87287725  0.87117171  0.11583358  1
  O  O418  1  0.87920234  0.87667132  0.60998943  1
  O  O419  1  0.13285444  0.13081164  0.38071283  1
  O  O420  1  0.12485816  0.13511724  0.88392955  1
  O  O421  1  0.13708215  0.62181581  0.38177578  1
  O  O422  1  0.13624609  0.63209496  0.88227531  1
  O  O423  1  0.63877626  0.11817260  0.37187791  1
  O  O424  1  0.61846574  0.13239708  0.88555679  1
  O  O425  1  0.63701122  0.63798984  0.37063738  1
  O  O426  1  0.63459278  0.62202928  0.88474275  1
