# generated using pymatgen
data_V85Zn86O256
_symmetry_space_group_name_H-M   'P 1'
_cell_length_a   16.94440447
_cell_length_b   16.93529381
_cell_length_c   16.93958392
_cell_angle_alpha   89.91612804
_cell_angle_beta   89.95535820
_cell_angle_gamma   90.02099011
_symmetry_Int_Tables_number   1
_chemical_formula_structural   V85Zn86O256
_chemical_formula_sum   'V85 Zn86 O256'
_cell_volume   4860.95004112
_cell_formula_units_Z   1
loop_
 _symmetry_equiv_pos_site_id
 _symmetry_equiv_pos_as_xyz
  1  'x, y, z'
loop_
 _atom_site_type_symbol
 _atom_site_label
 _atom_site_symmetry_multiplicity
 _atom_site_fract_x
 _atom_site_fract_y
 _atom_site_fract_z
 _atom_site_occupancy
  V  V0  1  0.24466094  0.37396259  0.63137993  1
  V  V1  1  0.61578573  0.50336105  0.12371145  1
  V  V2  1  0.49729844  0.37376549  0.37484067  1
  V  V3  1  0.24915342  0.62959378  0.87113988  1
  V  V4  1  0.75360411  0.26322347  0.50468325  1
  V  V5  1  0.12453215  0.49672310  0.62985810  1
  V  V6  1  0.62017641  -0.01043769  0.12743582  1
  V  V7  1  0.00044792  0.50045650  -0.00497833  1
  V  V8  1  0.12451326  0.63599094  -0.00620248  1
  V  V9  1  0.00138179  0.62589846  0.62286424  1
  V  V10  1  0.37126892  0.24336053  0.12509352  1
  V  V11  1  0.12466028  0.24559630  0.37715458  1
  V  V12  1  0.00159260  0.88096301  0.37890485  1
  V  V13  1  -0.01209723  0.23720770  0.25204239  1
  V  V14  1  0.12293294  0.49820801  0.12158255  1
  V  V15  1  0.12433357  0.88971632  0.24311239  1
  V  V16  1  0.50756331  0.75626461  0.74607428  1
  V  V17  1  0.12423598  0.75146159  0.37048742  1
  V  V18  1  0.75263508  0.86639965  0.13128291  1
  V  V19  1  0.24870663  0.87463489  0.62729464  1
  V  V20  1  0.24852090  0.37254788  0.12247374  1
  V  V21  1  0.49349590  0.00528664  0.49284489  1
  V  V22  1  0.37188337  0.37594834  0.50115698  1
  V  V23  1  0.87001644  0.26332657  0.62679719  1
  V  V24  1  0.87705571  0.49713524  0.87578759  1
  V  V25  1  0.74568617  0.24849994  0.00082956  1
  V  V26  1  0.75300530  0.62656183  0.37443231  1
  V  V27  1  0.26343010  0.11971416  0.37753327  1
  V  V28  1  0.49251392  0.11204247  0.12615716  1
  V  V29  1  0.37763647  -0.00051295  0.89471175  1
  V  V30  1  0.75155416  0.49972635  0.24573354  1
  V  V31  1  0.61718735  0.62956101  -0.00053288  1
  V  V32  1  0.12353012  0.37439258  0.25057268  1
  V  V33  1  0.62663794  0.12949264  0.50352026  1
  V  V34  1  0.62902760  0.62289501  0.49928548  1
  V  V35  1  -0.00144090  0.63313057  0.12235839  1
  V  V36  1  0.49835458  0.12695927  0.63356705  1
  V  V37  1  0.74852847  0.00245274  0.75193539  1
  V  V38  1  0.24965157  0.74963158  0.49816729  1
  V  V39  1  0.87713762  0.13135824  0.75699689  1
  V  V40  1  0.01646083  0.26163267  0.74986705  1
  V  V41  1  0.87711380  0.63150554  0.24379316  1
  V  V42  1  0.37750688  0.74184311  0.13569868  1
  V  V43  1  0.62827405  0.49144090  0.62501178  1
  V  V44  1  0.05714942  0.32154037  0.92223162  1
  V  V45  1  0.74326560  0.63009936  0.87321008  1
  V  V46  1  0.25906346  0.75862873  -0.00276531  1
  V  V47  1  0.00741770  0.75339246  0.75976234  1
  V  V48  1  0.88078808  -0.00171538  0.87775743  1
  V  V49  1  0.49930976  0.87410029  0.88880576  1
  V  V50  1  0.25108984  0.62524863  0.36670512  1
  V  V51  1  0.49608298  0.25234563  0.76015705  1
  V  V52  1  0.74963276  0.75294892  -0.00425375  1
  V  V53  1  0.87329915  0.62627827  0.75079164  1
  V  V54  1  0.87593987  0.49726675  0.37657405  1
  V  V55  1  0.38246761  0.37459581  -0.00397924  1
  V  V56  1  0.12098179  0.00047878  0.62496066  1
  V  V57  1  0.24474773  0.12909683  0.87528746  1
  V  V58  1  0.61949537  0.37538814  0.76080427  1
  V  V59  1  0.49441447  0.24191514  0.24940389  1
  V  V60  1  0.74697259  -0.00349082  0.25134300  1
  V  V61  1  -0.00299248  0.49517313  0.50123005  1
  V  V62  1  0.75265044  0.12845392  0.37001087  1
  V  V63  1  0.87944366  0.75267719  0.62582212  1
  V  V64  1  0.87369957  0.36958840  0.00001864  1
  V  V65  1  0.37828939  0.74978995  0.62003713  1
  V  V66  1  0.87884878  0.88893795  0.50260755  1
  V  V67  1  0.62356928  -0.00535799  0.62647585  1
  V  V68  1  0.87994417  0.87516573  0.00509581  1
  V  V69  1  0.27082600  0.00128109  0.25016450  1
  V  V70  1  0.87893145  0.00762764  0.37019647  1
  V  V71  1  0.38247842  0.49984018  0.87129692  1
  V  V72  1  0.75084543  0.49112520  0.74774190  1
  V  V73  1  0.07363024  0.06542387  0.06372541  1
  V  V74  1  -0.00130115  0.37641658  0.37671850  1
  V  V75  1  -0.00250399  0.12459447  0.62125678  1
  V  V76  1  0.62341753  0.37458878  0.24783662  1
  V  V77  1  0.75513769  0.75104816  0.50097434  1
  V  V78  1  0.26499064  0.00581017  0.74760365  1
  V  V79  1  0.62472215  0.25020351  0.37532858  1
  V  V80  1  0.37387400  0.24762891  0.62920558  1
  V  V81  1  0.37385600  0.50047080  0.36662107  1
  V  V82  1  0.37383312  0.88136561  0.49063548  1
  V  V83  1  0.50039337  0.62495052  0.62105256  1
  V  V84  1  0.61738683  0.11830334  0.00074752  1
  Zn  Zn85  1  0.00580796  0.87621008  0.88476682  1
  Zn  Zn86  1  0.25211595  0.88439339  0.11433045  1
  Zn  Zn87  1  0.24323018  0.25170522  -0.01113452  1
  Zn  Zn88  1  0.75043669  0.37324120  0.12484229  1
  Zn  Zn89  1  0.12089484  0.11608529  0.49695242  1
  Zn  Zn90  1  0.50048554  0.49825828  0.49903359  1
  Zn  Zn91  1  0.62752768  0.87273894  0.75850748  1
  Zn  Zn92  1  0.24763131  0.50008209  0.75119209  1
  Zn  Zn93  1  0.49910975  0.50211929  -0.00089316  1
  Zn  Zn94  1  0.50635035  0.88075105  0.36003891  1
  Zn  Zn95  1  0.51423762  0.74380383  0.23786133  1
  Zn  Zn96  1  0.62932016  0.77060322  0.35938983  1
  Zn  Zn97  1  0.74380866  0.12457545  0.87668775  1
  Zn  Zn98  1  0.37392728  0.62471106  0.74631303  1
  Zn  Zn99  1  0.25141561  0.50383234  0.24486010  1
  Zn  Zn100  1  0.75134963  0.87594858  0.62850084  1
  Zn  Zn101  1  0.12365892  0.62419105  0.49699192  1
  Zn  Zn102  1  0.86833756  0.22959383  0.13573593  1
  Zn  Zn103  1  -0.00375122  0.75813285  0.24493903  1
  Zn  Zn104  1  0.13168718  0.87423593  0.76100234  1
  Zn  Zn105  1  0.24551014  0.24814249  0.50160410  1
  Zn  Zn106  1  0.61673253  0.25066849  0.88089037  1
  Zn  Zn107  1  0.19254204  0.18178858  0.19711152  1
  Zn  Zn108  1  0.18964621  0.18214014  0.68853916  1
  Zn  Zn109  1  0.18718029  0.69099433  0.18366375  1
  Zn  Zn110  1  0.18606838  0.68548584  0.68606319  1
  Zn  Zn111  1  0.68339299  0.18405442  0.18569592  1
  Zn  Zn112  1  0.68645578  0.18986060  0.69057872  1
  Zn  Zn113  1  0.69028130  0.68462390  0.18227035  1
  Zn  Zn114  1  0.68803851  0.68541239  0.68364135  1
  Zn  Zn115  1  0.30992416  0.30954908  0.31091933  1
  Zn  Zn116  1  0.31277610  0.31537813  0.81033226  1
  Zn  Zn117  1  0.31398158  0.81588739  0.30893074  1
  Zn  Zn118  1  0.31889444  0.81378095  0.81212863  1
  Zn  Zn119  1  0.81118758  0.31596680  0.31506939  1
  Zn  Zn120  1  0.81126611  0.31071097  0.81919008  1
  Zn  Zn121  1  0.81377359  0.81463581  0.31407902  1
  Zn  Zn122  1  0.81371340  0.81508493  0.81378745  1
  Zn  Zn123  1  0.18657852  0.43778092  0.44107046  1
  Zn  Zn124  1  0.19541968  0.44490669  0.93957741  1
  Zn  Zn125  1  0.18776316  0.94037474  0.43758655  1
  Zn  Zn126  1  0.18158881  0.94536114  0.93470776  1
  Zn  Zn127  1  0.68757325  0.43881248  0.43379632  1
  Zn  Zn128  1  0.68866850  0.43977977  0.93807765  1
  Zn  Zn129  1  0.69304888  0.94474865  0.44491494  1
  Zn  Zn130  1  0.68491592  0.93734850  0.93927065  1
  Zn  Zn131  1  0.29886682  0.06569262  0.06094870  1
  Zn  Zn132  1  0.31133873  0.06566940  0.56216044  1
  Zn  Zn133  1  0.31131993  0.56318181  0.05853745  1
  Zn  Zn134  1  0.31022317  0.56287537  0.55545389  1
  Zn  Zn135  1  0.80474976  0.05669787  0.06375686  1
  Zn  Zn136  1  0.81138502  0.07153321  0.56575141  1
  Zn  Zn137  1  0.80942589  0.56277143  0.06190907  1
  Zn  Zn138  1  0.81460832  0.55887749  0.56436427  1
  Zn  Zn139  1  0.43686627  0.43403561  0.18589547  1
  Zn  Zn140  1  0.43738129  0.43766733  0.68823978  1
  Zn  Zn141  1  0.43472258  0.91896476  0.18180385  1
  Zn  Zn142  1  0.43992719  0.93409838  0.68038522  1
  Zn  Zn143  1  0.93897970  0.43640174  0.18401685  1
  Zn  Zn144  1  0.93820150  0.43719451  0.68912549  1
  Zn  Zn145  1  0.93812173  0.95054061  0.18367344  1
  Zn  Zn146  1  0.93770951  0.93982852  0.69203104  1
  Zn  Zn147  1  0.06334021  0.06341736  0.31284809  1
  Zn  Zn148  1  0.06387671  0.06119446  0.80755540  1
  Zn  Zn149  1  0.06362912  0.56341599  0.30914402  1
  Zn  Zn150  1  0.06280951  0.56459358  0.81151504  1
  Zn  Zn151  1  0.56441443  0.06269277  0.31123866  1
  Zn  Zn152  1  0.55674602  0.05966846  0.81524739  1
  Zn  Zn153  1  0.56341089  0.56678738  0.30774688  1
  Zn  Zn154  1  0.56127141  0.56582889  0.80990641  1
  Zn  Zn155  1  0.43788799  0.19070722  0.44409092  1
  Zn  Zn156  1  0.43039168  0.18028312  0.94106252  1
  Zn  Zn157  1  0.45361706  0.67650525  0.39709019  1
  Zn  Zn158  1  0.43576452  0.69124079  0.93228224  1
  Zn  Zn159  1  0.93507480  0.19035881  0.44179258  1
  Zn  Zn160  1  0.92051761  0.15441697  0.97998141  1
  Zn  Zn161  1  0.94011623  0.68793713  0.43509737  1
  Zn  Zn162  1  0.93033381  0.68828820  0.93932100  1
  Zn  Zn163  1  0.08328487  0.25698565  0.09036525  1
  Zn  Zn164  1  0.05940812  0.31240401  0.56304297  1
  Zn  Zn165  1  0.06702700  0.81526457  0.06310358  1
  Zn  Zn166  1  0.06412654  0.81556186  0.56107290  1
  Zn  Zn167  1  0.56004109  0.31026826  0.06608650  1
  Zn  Zn168  1  0.56174037  0.31423145  0.56580968  1
  Zn  Zn169  1  0.56151909  0.80717571  0.06692769  1
  Zn  Zn170  1  0.56222907  0.81354247  0.51142183  1
  O  O171  1  0.11867689  0.14699108  0.11805174  1
  O  O172  1  0.11690352  0.11822149  0.62384726  1
  O  O173  1  0.11781905  0.61922696  0.11706546  1
  O  O174  1  0.11755762  0.61842676  0.61950985  1
  O  O175  1  0.61425980  0.11329544  0.12199744  1
  O  O176  1  0.61771008  0.12186150  0.62158958  1
  O  O177  1  0.63191054  0.61471250  0.11144755  1
  O  O178  1  0.62105255  0.61313645  0.61858712  1
  O  O179  1  0.37577311  0.37696999  0.38243369  1
  O  O180  1  0.36591215  0.38543744  0.88502812  1
  O  O181  1  0.37780938  0.87192263  0.38881737  1
  O  O182  1  0.38541634  0.88897556  0.87008334  1
  O  O183  1  0.88140647  0.39003888  0.36970581  1
  O  O184  1  0.86887578  0.38591427  0.88571319  1
  O  O185  1  0.88213711  0.88533530  0.38150363  1
  O  O186  1  0.87895083  0.88093234  0.88322783  1
  O  O187  1  0.24921894  0.01287689  0.37021814  1
  O  O188  1  0.26269137  0.00327320  0.86397075  1
  O  O189  1  0.25412465  0.50709546  0.37414076  1
  O  O190  1  0.26000092  0.51300680  0.87319729  1
  O  O191  1  0.75575723  0.00756508  0.37020681  1
  O  O192  1  0.75479017  -0.00061408  0.86316719  1
  O  O193  1  0.75861553  0.50527683  0.36784905  1
  O  O194  1  0.75891171  0.50759169  0.86880524  1
  O  O195  1  0.24284708  0.48945736  0.12382324  1
  O  O196  1  0.24065951  0.49351428  0.62171773  1
  O  O197  1  0.25749291  1.00061911  0.14532270  1
  O  O198  1  0.24777169  0.99524947  0.63341242  1
  O  O199  1  0.74045278  0.49741833  0.13157701  1
  O  O200  1  0.74230359  0.50460848  0.63631123  1
  O  O201  1  0.74051172  0.99175408  0.13476040  1
  O  O202  1  0.74333455  1.00448196  0.63613348  1
  O  O203  1  0.00980825  0.37369401  0.25769821  1
  O  O204  1  -0.00066251  0.36066137  0.74750422  1
  O  O205  1  0.00997505  0.87860821  0.25531501  1
  O  O206  1  -0.00162922  0.85906980  0.74891622  1
  O  O207  1  0.50410892  0.36279644  0.25339777  1
  O  O208  1  0.50824051  0.36548162  0.74565403  1
  O  O209  1  0.49750978  0.85863583  0.25143124  1
  O  O210  1  0.50464905  0.86870184  0.74835939  1
  O  O211  1  0.50234187  0.13510140  0.24398769  1
  O  O212  1  0.50461082  0.13390707  0.73944282  1
  O  O213  1  0.48891245  0.64441068  0.29016451  1
  O  O214  1  0.49980829  0.63227634  0.73508913  1
  O  O215  1  0.99772512  0.13880020  0.25619809  1
  O  O216  1  0.99317575  0.13705759  0.74547729  1
  O  O217  1  0.99394695  0.62556264  0.23985125  1
  O  O218  1  0.99445117  0.63604036  0.74357801  1
  O  O219  1  0.37226641  0.25698015  0.00974431  1
  O  O220  1  0.37347791  0.26126767  0.51075512  1
  O  O221  1  0.36079111  0.74673742  0.00083243  1
  O  O222  1  0.36697833  0.76063951  0.51126842  1
  O  O223  1  0.86357399  0.25848338  -0.00635318  1
  O  O224  1  0.86556764  0.24790688  0.51276032  1
  O  O225  1  0.85990477  0.75831805  -0.00251593  1
  O  O226  1  0.87092200  0.75636066  0.50582034  1
  O  O227  1  0.12243711  0.25017363  0.48643219  1
  O  O228  1  0.12061615  0.26755947  0.98394063  1
  O  O229  1  0.13042348  0.75352346  0.48629127  1
  O  O230  1  0.13200606  0.73942619  1.00175325  1
  O  O231  1  0.62973513  0.24701187  0.49609951  1
  O  O232  1  0.62835329  0.24371760  1.00153532  1
  O  O233  1  0.64740535  0.73597099  0.51903303  1
  O  O234  1  0.63763916  0.74187994  1.00549887  1
  O  O235  1  0.49178118  0.23972246  0.13273025  1
  O  O236  1  0.49348627  0.24480435  0.63209997  1
  O  O237  1  0.48333852  0.74555036  0.12234150  1
  O  O238  1  0.49259408  0.74285238  0.62348133  1
  O  O239  1  0.98848147  0.26116446  0.14923147  1
  O  O240  1  0.99272397  0.24579770  0.63529490  1
  O  O241  1  1.00511116  0.73713078  0.12675040  1
  O  O242  1  0.99245473  0.74714327  0.62803385  1
  O  O243  1  0.00236397  0.25602884  0.36919875  1
  O  O244  1  0.00532544  0.25504794  0.86241025  1
  O  O245  1  0.00708990  0.76021664  0.37048901  1
  O  O246  1  -0.00607344  0.74761098  0.86128347  1
  O  O247  1  0.50280260  0.25304741  0.36847453  1
  O  O248  1  0.49432751  0.24330754  0.86330616  1
  O  O249  1  0.51667157  0.76608922  0.41113182  1
  O  O250  1  0.49067615  0.76597887  0.86097809  1
  O  O251  1  0.24499860  0.12777237  0.48950034  1
  O  O252  1  0.25183121  0.13324414  0.98172400  1
  O  O253  1  0.24391488  0.63341310  0.49007551  1
  O  O254  1  0.24105144  0.63181330  0.99049969  1
  O  O255  1  0.74402718  0.13221277  0.49031988  1
  O  O256  1  0.73291634  0.13138822  1.00095655  1
  O  O257  1  0.75057597  0.63066191  0.49654079  1
  O  O258  1  0.74558023  0.63222516  0.99132733  1
  O  O259  1  0.25698811  0.37095856  0.00796357  1
  O  O260  1  0.25636564  0.37056057  0.50795345  1
  O  O261  1  0.24294351  0.85994315  -0.00550051  1
  O  O262  1  0.25559926  0.87182922  0.50613987  1
  O  O263  1  0.75494386  0.36705913  0.00161671  1
  O  O264  1  0.74634157  0.36241320  0.49481689  1
  O  O265  1  0.75416716  0.86845688  0.00582555  1
  O  O266  1  0.76314840  0.86769697  0.50597887  1
  O  O267  1  0.12493568  0.49009870  0.24127750  1
  O  O268  1  0.12361281  0.50469069  0.73402463  1
  O  O269  1  0.13016043  0.99112748  0.25396443  1
  O  O270  1  0.13815071  0.99776889  0.73821708  1
  O  O271  1  0.62989582  0.49735250  0.24411858  1
  O  O272  1  0.63038409  0.49427816  0.74517932  1
  O  O273  1  0.63751138  1.00264800  0.24458429  1
  O  O274  1  0.63177460  1.00261877  0.74331379  1
  O  O275  1  0.36827700  -0.00805373  0.25537066  1
  O  O276  1  0.36537484  -0.00202071  0.74462778  1
  O  O277  1  0.37025853  0.48993544  0.26260940  1
  O  O278  1  0.37167700  0.50261313  0.75624158  1
  O  O279  1  0.86276490  0.00046160  0.25963191  1
  O  O280  1  0.86647103  0.01109551  0.75366038  1
  O  O281  1  0.87230878  0.50723983  0.25516865  1
  O  O282  1  0.86849789  0.50461189  0.75505440  1
  O  O283  1  0.12141787  0.36888897  0.36838089  1
  O  O284  1  0.11803146  0.38448693  0.87479217  1
  O  O285  1  0.11762069  0.87310256  0.36915934  1
  O  O286  1  0.11681408  0.88238420  0.87238508  1
  O  O287  1  0.61781255  0.37001499  0.36813815  1
  O  O288  1  0.62386199  0.37618115  0.86468447  1
  O  O289  1  0.61651715  0.87327596  0.41047342  1
  O  O290  1  0.60510627  0.88558317  0.87361374  1
  O  O291  1  0.38037908  0.13206128  0.11847095  1
  O  O292  1  0.38360070  0.13727595  0.61953473  1
  O  O293  1  0.36319135  0.64124733  0.11981128  1
  O  O294  1  0.38302937  0.63131534  0.61922882  1
  O  O295  1  0.88435799  0.12898351  0.08823639  1
  O  O296  1  0.88137361  0.13206325  0.63761456  1
  O  O297  1  0.88439737  0.61810321  0.13226621  1
  O  O298  1  0.88146892  0.63216198  0.63129646  1
  O  O299  1  0.25566233  0.25466988  0.12540298  1
  O  O300  1  0.25660522  0.25473249  0.62442437  1
  O  O301  1  0.25043488  0.75014628  0.10804891  1
  O  O302  1  0.25388267  0.75682512  0.62069777  1
  O  O303  1  0.75096003  0.25039782  0.11630509  1
  O  O304  1  0.75756721  0.24432100  0.61680617  1
  O  O305  1  0.75088388  0.76236698  0.11792869  1
  O  O306  1  0.76642673  0.75045768  0.62273546  1
  O  O307  1  0.24114612  0.23819607  0.37306025  1
  O  O308  1  0.25707257  0.23357690  0.86714281  1
  O  O309  1  0.24463009  0.74470991  0.37744705  1
  O  O310  1  0.25786139  0.73980068  0.88186868  1
  O  O311  1  0.74662824  0.24422418  0.38123918  1
  O  O312  1  0.74185655  0.24712235  0.88883384  1
  O  O313  1  0.75104742  0.74557483  0.38610870  1
  O  O314  1  0.75112326  0.74170156  0.87996825  1
  O  O315  1  0.02536625  0.11190293  -0.01293716  1
  O  O316  1  -0.00038425  0.13021308  0.51699926  1
  O  O317  1  0.00468110  0.62318481  0.00365884  1
  O  O318  1  0.00005742  0.61628294  0.50521156  1
  O  O319  1  0.50804140  0.12906203  0.01317012  1
  O  O320  1  0.50553786  0.12290855  0.51065255  1
  O  O321  1  0.51453540  0.62740118  -0.01070037  1
  O  O322  1  0.51291374  0.62101318  0.50761968  1
  O  O323  1  0.49134644  0.37496847  0.49416804  1
  O  O324  1  0.48592524  0.37657399  1.00619184  1
  O  O325  1  0.48322293  0.89505276  0.52019941  1
  O  O326  1  0.49976999  0.86630991  0.98696628  1
  O  O327  1  1.00122396  0.38679769  0.49346830  1
  O  O328  1  0.99348901  0.37723766  0.98813753  1
  O  O329  1  0.99246206  0.87222466  0.48854785  1
  O  O330  1  0.98468912  0.86650949  1.00356569  1
  O  O331  1  0.49117154  0.49012709  0.37695546  1
  O  O332  1  0.48670120  0.50518489  0.87481150  1
  O  O333  1  0.50421199  1.00252132  0.38962757  1
  O  O334  1  0.48519674  0.99113710  0.87440702  1
  O  O335  1  0.99531705  0.49806042  0.38154907  1
  O  O336  1  0.98486894  0.50994622  0.87806149  1
  O  O337  1  0.99087721  0.99404278  0.37165012  1
  O  O338  1  0.98364148  0.99772932  0.86087079  1
  O  O339  1  0.01331651  0.00790888  0.12223317  1
  O  O340  1  0.00835337  0.01100352  0.63598560  1
  O  O341  1  0.00514853  0.50727583  0.11510633  1
  O  O342  1  0.00294803  0.50369979  0.61857203  1
  O  O343  1  0.50363114  0.00615922  0.13534896  1
  O  O344  1  0.50676554  0.01186907  0.62262687  1
  O  O345  1  0.51126665  0.49915719  0.12588686  1
  O  O346  1  0.50770573  0.50739874  0.62261412  1
  O  O347  1  0.23734627  0.37405429  0.24386961  1
  O  O348  1  0.25167589  0.37914408  0.73521295  1
  O  O349  1  0.24008698  0.89103309  0.25896991  1
  O  O350  1  0.25178733  0.88313634  0.74276263  1
  O  O351  1  0.74219445  0.38231000  0.24944023  1
  O  O352  1  0.74319050  0.38635661  0.75656376  1
  O  O353  1  0.75411286  0.88290158  0.24346944  1
  O  O354  1  0.74667960  0.88423254  0.74718638  1
  O  O355  1  0.25142453  0.11171341  0.26360448  1
  O  O356  1  0.25535444  0.11194405  0.75394300  1
  O  O357  1  0.24057226  0.62275918  0.26269610  1
  O  O358  1  0.25185865  0.62465479  0.75679411  1
  O  O359  1  0.74591111  0.12085131  0.26393387  1
  O  O360  1  0.75767738  0.12097141  0.75453070  1
  O  O361  1  0.75985811  0.61736905  0.25282833  1
  O  O362  1  0.75288185  0.61758416  0.75588016  1
  O  O363  1  0.36173896  0.13264712  0.38030195  1
  O  O364  1  0.36937226  0.10637926  0.87618876  1
  O  O365  1  0.36166693  0.61038974  0.38795237  1
  O  O366  1  0.36814889  0.61834377  0.87118975  1
  O  O367  1  0.86808620  0.11481165  0.38335607  1
  O  O368  1  0.87039027  0.11722049  0.87345274  1
  O  O369  1  0.87257985  0.61628399  0.36742644  1
  O  O370  1  0.86374918  0.61926397  0.86934935  1
  O  O371  1  0.13347368  0.37027034  0.13174340  1
  O  O372  1  0.13314519  0.38274685  0.61731748  1
  O  O373  1  0.13245821  0.87029008  0.14109538  1
  O  O374  1  0.13633951  0.87869326  0.62782485  1
  O  O375  1  0.62564542  0.38189949  0.13237560  1
  O  O376  1  0.62184699  0.38667743  0.63481555  1
  O  O377  1  0.63198548  0.88472975  0.11946753  1
  O  O378  1  0.62791228  0.89196294  0.61995466  1
  O  O379  1  0.11513067  0.25465351  0.26112766  1
  O  O380  1  0.11488803  0.25112092  0.74330973  1
  O  O381  1  0.12639770  0.76246208  0.26013657  1
  O  O382  1  0.10997992  0.75096078  0.74473552  1
  O  O383  1  0.61728100  0.25390317  0.25535351  1
  O  O384  1  0.61639125  0.25906009  0.75328311  1
  O  O385  1  0.62983404  0.74251034  0.25282940  1
  O  O386  1  0.61206569  0.75140502  0.73963298  1
  O  O387  1  0.38203371  0.25531173  0.23674216  1
  O  O388  1  0.38276611  0.25815657  0.73727268  1
  O  O389  1  0.36481002  0.74500582  0.23739045  1
  O  O390  1  0.38409038  0.74977160  0.73443285  1
  O  O391  1  0.88282769  0.25006752  0.25423412  1
  O  O392  1  0.87564658  0.24235990  0.74863096  1
  O  O393  1  0.87696454  0.73587708  0.25628932  1
  O  O394  1  0.88179205  0.74645248  0.74223123  1
  O  O395  1  0.37467963  0.48736711  0.49224570  1
  O  O396  1  0.37683396  0.49269579  0.99299638  1
  O  O397  1  0.38162985  0.99606071  0.50414714  1
  O  O398  1  0.36763612  0.99718218  0.99265744  1
  O  O399  1  0.88380605  0.50452234  0.49008742  1
  O  O400  1  0.87927937  0.49474392  0.99285803  1
  O  O401  1  0.86795680  0.99220262  0.49557772  1
  O  O402  1  0.86293903  0.98741547  0.98703815  1
  O  O403  1  0.14724858  0.00760701  0.02267391  1
  O  O404  1  0.12972135  -0.00179626  0.51816561  1
  O  O405  1  0.11835181  0.50900229  0.00360580  1
  O  O406  1  0.11409422  0.50193374  0.50786088  1
  O  O407  1  0.62803162  0.00785960  0.01313509  1
  O  O408  1  0.61988015  0.01385402  0.51024632  1
  O  O409  1  0.62250364  0.50630837  0.00677928  1
  O  O410  1  0.62782740  0.50449176  0.50865110  1
  O  O411  1  0.36430195  0.36909550  0.11924368  1
  O  O412  1  0.36849816  0.37121037  0.61736318  1
  O  O413  1  0.36309493  0.85442035  0.12189394  1
  O  O414  1  0.36239102  0.86906244  0.61991950  1
  O  O415  1  0.87323266  0.37711145  0.10882175  1
  O  O416  1  0.87325075  0.36296746  0.63108163  1
  O  O417  1  0.86399986  0.88571399  0.11786623  1
  O  O418  1  0.87779159  0.87010442  0.61805550  1
  O  O419  1  0.13043735  0.13131222  0.37807392  1
  O  O420  1  0.14657148  0.11600640  0.86533453  1
  O  O421  1  0.12821277  0.63541175  0.37502433  1
  O  O422  1  0.13399274  0.62024032  0.88281854  1
  O  O423  1  0.63186541  0.13231433  0.38215937  1
  O  O424  1  0.62127449  0.12412480  0.88681730  1
  O  O425  1  0.63731724  0.61768308  0.39140600  1
  O  O426  1  0.63704666  0.61786375  0.88085102  1
