# generated using pymatgen
data_V85Zn86O256
_symmetry_space_group_name_H-M   'P 1'
_cell_length_a   16.93354267
_cell_length_b   16.92876525
_cell_length_c   16.93139249
_cell_angle_alpha   90.00513455
_cell_angle_beta   90.00669052
_cell_angle_gamma   90.05330401
_symmetry_Int_Tables_number   1
_chemical_formula_structural   V85Zn86O256
_chemical_formula_sum   'V85 Zn86 O256'
_cell_volume   4853.61801332
_cell_formula_units_Z   1
loop_
 _symmetry_equiv_pos_site_id
 _symmetry_equiv_pos_as_xyz
  1  'x, y, z'
loop_
 _atom_site_type_symbol
 _atom_site_label
 _atom_site_symmetry_multiplicity
 _atom_site_fract_x
 _atom_site_fract_y
 _atom_site_fract_z
 _atom_site_occupancy
  V  V0  1  0.74330874  0.86722421  0.62186083  1
  V  V1  1  0.75507341  0.12269106  0.87394124  1
  V  V2  1  0.24631687  0.12434649  0.38022346  1
  V  V3  1  0.00219999  0.12040833  0.12016763  1
  V  V4  1  0.50264385  0.49987498  -0.00264074  1
  V  V5  1  0.13180414  0.00646650  0.63580808  1
  V  V6  1  0.25175792  0.38109122  0.62916946  1
  V  V7  1  0.74617829  -0.00805456  0.25240467  1
  V  V8  1  0.24659031  0.75778670  0.00024850  1
  V  V9  1  0.87883917  0.86933281  0.50544358  1
  V  V10  1  -0.01072967  0.75693305  0.75223198  1
  V  V11  1  0.62608567  0.49831095  0.12673570  1
  V  V12  1  0.51316119  0.87216124  0.37342628  1
  V  V13  1  0.74903970  0.37286490  0.63416664  1
  V  V14  1  0.25878232  0.36836783  0.12645684  1
  V  V15  1  0.01037798  0.00724907  0.49968427  1
  V  V16  1  0.62094527  -0.00297824  0.12967412  1
  V  V17  1  0.87642156  0.37423697  0.00238393  1
  V  V18  1  0.57853086  0.67964515  -0.05361031  1
  V  V19  1  0.75426229  0.62112858  0.88227116  1
  V  V20  1  0.74877776  0.12399927  0.37359708  1
  V  V21  1  0.13064610  0.38244319  0.75288572  1
  V  V22  1  0.00070005  0.50104784  -0.00049957  1
  V  V23  1  0.74748525  0.74496189  0.48360408  1
  V  V24  1  0.12475677  0.74949216  0.37759194  1
  V  V25  1  0.74931924  0.24891961  -0.00043631  1
  V  V26  1  0.62535177  0.25586268  0.36857926  1
  V  V27  1  -0.00623485  -0.01621579  -0.00515659  1
  V  V28  1  0.13354426  0.62271775  -0.00690997  1
  V  V29  1  0.62666649  0.25271591  0.86945781  1
  V  V30  1  0.75560436  0.75028345  -0.00201909  1
  V  V31  1  0.37032473  0.11521394  0.75267541  1
  V  V32  1  0.51002176  0.75563517  0.25400658  1
  V  V33  1  0.53489952  0.66178270  0.65169086  1
  V  V34  1  0.87098070  -0.02400178  0.87256153  1
  V  V35  1  0.87991023  0.24834023  0.62552269  1
  V  V36  1  0.12868587  0.49932372  0.12602477  1
  V  V37  1  0.85795422  0.61902786  0.25383170  1
  V  V38  1  0.49649301  0.12627163  0.12314272  1
  V  V39  1  0.74544608  0.37538771  0.13029447  1
  V  V40  1  0.50077104  0.25486545  0.74808292  1
  V  V41  1  0.37353961  0.25215051  0.62519696  1
  V  V42  1  0.37344634  0.12936885  0.24787418  1
  V  V43  1  0.13042211  0.24660468  0.87541866  1
  V  V44  1  0.87661033  -0.00191728  0.37712013  1
  V  V45  1  0.37620952  0.87311781  0.49814905  1
  V  V46  1  0.87714235  0.62178331  0.74730087  1
  V  V47  1  0.11970548  0.49949540  0.61845000  1
  V  V48  1  0.37388385  0.37722827  0.49333250  1
  V  V49  1  0.36849669  0.75906491  0.12371983  1
  V  V50  1  0.25709867  0.62134172  0.37846251  1
  V  V51  1  -0.00102215  0.74566266  0.25174356  1
  V  V52  1  0.37537434  0.62478525  0.25149963  1
  V  V53  1  0.50293311  0.12251531  0.62414206  1
  V  V54  1  0.73999185  0.00132610  0.73619335  1
  V  V55  1  0.37445244  0.74918215  0.63276020  1
  V  V56  1  0.75097932  0.24921073  0.50036541  1
  V  V57  1  0.35647664  0.61682105  0.74349881  1
  V  V58  1  0.49699152  -0.00481580  -0.01220352  1
  V  V59  1  0.25383120  0.49784809  0.25500670  1
  V  V60  1  0.87907715  0.38557576  0.50149870  1
  V  V61  1  0.37486934  0.00049468  0.37424687  1
  V  V62  1  0.25970063  0.24468192  0.00197513  1
  V  V63  1  0.62992108  0.62701940  0.48766834  1
  V  V64  1  0.36475198  0.50508334  0.87245471  1
  V  V65  1  0.12625760  0.75150099  0.87005257  1
  V  V66  1  0.50451729  -0.00354354  0.50230275  1
  V  V67  1  0.50441945  0.62920151  0.12512257  1
  V  V68  1  0.87627592  0.24807370  0.12471706  1
  V  V69  1  0.13395859  0.87226208  0.24142537  1
  V  V70  1  0.50029457  0.25563962  0.24298390  1
  V  V71  1  0.00238977  0.37203474  0.87639333  1
  V  V72  1  0.12100178  0.24553206  0.37916395  1
  V  V73  1  0.24843651  0.74991771  0.50243660  1
  V  V74  1  -0.00337689  0.62547107  0.61999651  1
  V  V75  1  0.25287390  0.10797767  0.87254325  1
  V  V76  1  0.50217448  0.37647386  0.87153386  1
  V  V77  1  0.49617446  0.50552889  0.50452519  1
  V  V78  1  0.62340497  0.12503763  0.50052824  1
  V  V79  1  0.75067845  0.87588144  0.12154816  1
  V  V80  1  0.87686621  0.12070683  0.24908334  1
  V  V81  1  0.00166442  0.38650203  0.37605929  1
  V  V82  1  0.50018564  0.38308870  0.37134802  1
  V  V83  1  0.87643260  0.75285303  0.12351394  1
  V  V84  1  0.62379090  0.49369316  0.63004107  1
  Zn  Zn85  1  0.24830749  0.88076904  0.63031723  1
  Zn  Zn86  1  0.87429292  0.49629180  0.87530258  1
  Zn  Zn87  1  0.13170500  -0.00776536  0.11563115  1
  Zn  Zn88  1  -0.00173265  0.62269750  0.12507499  1
  Zn  Zn89  1  0.00615938  0.12850477  0.62496414  1
  Zn  Zn90  1  0.37069297  0.88206473  -0.01148112  1
  Zn  Zn91  1  0.00296882  0.24843099  0.74959133  1
  Zn  Zn92  1  0.86145837  0.50405272  0.37401245  1
  Zn  Zn93  1  0.68977968  0.44238071  0.29306487  1
  Zn  Zn94  1  0.88009406  0.12102969  0.74758789  1
  Zn  Zn95  1  0.62407289  0.12568010  -0.00087789  1
  Zn  Zn96  1  0.11791318  0.61991968  0.49763160  1
  Zn  Zn97  1  0.12469661  0.87722712  0.75378620  1
  Zn  Zn98  1  0.12497684  0.11973271  -0.00218533  1
  Zn  Zn99  1  0.24531539  0.24731280  0.50264205  1
  Zn  Zn100  1  0.74739865  0.49600041  0.75528384  1
  Zn  Zn101  1  0.00195969  0.24848202  0.24987133  1
  Zn  Zn102  1  0.00214220  0.87429291  0.37660458  1
  Zn  Zn103  1  0.37646038  0.37359454  0.00073240  1
  Zn  Zn104  1  0.52091448  0.86157747  0.85393260  1
  Zn  Zn105  1  0.12483844  0.37193632  0.24963466  1
  Zn  Zn106  1  0.25291290  -0.00288217  0.24280855  1
  Zn  Zn107  1  0.18534920  0.18519172  0.19010394  1
  Zn  Zn108  1  0.18754944  0.18854162  0.68890721  1
  Zn  Zn109  1  0.18733468  0.68489207  0.18578726  1
  Zn  Zn110  1  0.18232604  0.68947491  0.68627866  1
  Zn  Zn111  1  0.68611509  0.18450778  0.18782438  1
  Zn  Zn112  1  0.68790900  0.18646363  0.68828243  1
  Zn  Zn113  1  0.68510168  0.68856400  0.18544707  1
  Zn  Zn114  1  0.70502426  0.68255023  0.68130179  1
  Zn  Zn115  1  0.31318300  0.30896339  0.31368201  1
  Zn  Zn116  1  0.31453237  0.31129797  0.81360830  1
  Zn  Zn117  1  0.31600303  0.80896177  0.31456144  1
  Zn  Zn118  1  0.31002504  0.82572971  0.81221649  1
  Zn  Zn119  1  0.82035142  0.31007029  0.31350642  1
  Zn  Zn120  1  0.81653538  0.31121282  0.81236799  1
  Zn  Zn121  1  0.81496809  0.81457260  0.31211036  1
  Zn  Zn122  1  0.73552516  0.83216185  0.82840501  1
  Zn  Zn123  1  0.18680427  0.43533774  0.43852719  1
  Zn  Zn124  1  0.18969106  0.43350692  0.94142401  1
  Zn  Zn125  1  0.18862928  0.93580622  0.43465662  1
  Zn  Zn126  1  0.18063886  0.93235620  0.93660274  1
  Zn  Zn127  1  0.68763249  0.43618185  0.45458765  1
  Zn  Zn128  1  0.68510356  0.43707905  0.94172398  1
  Zn  Zn129  1  0.68655018  0.93513293  0.44344016  1
  Zn  Zn130  1  0.68008617  0.93975127  0.94274149  1
  Zn  Zn131  1  0.31315738  0.05889899  0.06271734  1
  Zn  Zn132  1  0.31517716  0.06338093  0.56311280  1
  Zn  Zn133  1  0.31604236  0.56529111  0.06291130  1
  Zn  Zn134  1  0.31110543  0.56078227  0.56381721  1
  Zn  Zn135  1  0.81488276  0.05926444  0.05846374  1
  Zn  Zn136  1  0.81811426  0.06279501  0.55960524  1
  Zn  Zn137  1  0.81265923  0.56308554  0.06629313  1
  Zn  Zn138  1  0.81084495  0.56339402  0.56363089  1
  Zn  Zn139  1  0.43711402  0.44105655  0.18751800  1
  Zn  Zn140  1  0.43622857  0.43982230  0.68802603  1
  Zn  Zn141  1  0.43579530  0.93805581  0.18709933  1
  Zn  Zn142  1  0.43162038  0.93866917  0.68579436  1
  Zn  Zn143  1  0.93795797  0.43720830  0.18897067  1
  Zn  Zn144  1  0.93953233  0.43825242  0.69044632  1
  Zn  Zn145  1  0.94114837  0.93341870  0.18762600  1
  Zn  Zn146  1  0.93615266  0.93837491  0.68468330  1
  Zn  Zn147  1  0.06434332  0.05974966  0.31107667  1
  Zn  Zn148  1  0.05609154  0.06306111  0.81471940  1
  Zn  Zn149  1  0.06524891  0.56405066  0.31123268  1
  Zn  Zn150  1  0.06414439  0.56340439  0.81112943  1
  Zn  Zn151  1  0.56123818  0.06309468  0.31316703  1
  Zn  Zn152  1  0.56478650  0.06562394  0.80971109  1
  Zn  Zn153  1  0.55764659  0.56486399  0.31205752  1
  Zn  Zn154  1  0.55970465  0.55864920  0.80677800  1
  Zn  Zn155  1  0.43627374  0.19124834  0.43544660  1
  Zn  Zn156  1  0.43656384  0.18347808  0.93555801  1
  Zn  Zn157  1  0.44296887  0.68884286  0.44273247  1
  Zn  Zn158  1  0.40237681  0.72100192  0.90457384  1
  Zn  Zn159  1  0.93816229  0.18944713  0.43820976  1
  Zn  Zn160  1  0.93914281  0.18484185  0.93798626  1
  Zn  Zn161  1  0.93280312  0.68686888  0.43668174  1
  Zn  Zn162  1  0.93842954  0.68795139  0.93501448  1
  Zn  Zn163  1  0.06804737  0.30981395  0.06247346  1
  Zn  Zn164  1  0.06350724  0.31432790  0.55923172  1
  Zn  Zn165  1  0.05997893  0.80795793  0.06096053  1
  Zn  Zn166  1  0.06119567  0.81448866  0.56910123  1
  Zn  Zn167  1  0.56348971  0.31358734  0.05903907  1
  Zn  Zn168  1  0.56199640  0.31317850  0.55985900  1
  Zn  Zn169  1  0.56072768  0.81915673  0.06993867  1
  Zn  Zn170  1  0.56703694  0.82893630  0.66977408  1
  O  O171  1  0.11074531  0.12209981  0.12416617  1
  O  O172  1  0.12511758  0.11317600  0.62539758  1
  O  O173  1  0.12369207  0.61129571  0.11918972  1
  O  O174  1  0.11646247  0.61538323  0.62369679  1
  O  O175  1  0.61419785  0.11695223  0.12471566  1
  O  O176  1  0.61078877  0.13371761  0.61817961  1
  O  O177  1  0.61151257  0.61802656  0.12850529  1
  O  O178  1  0.62989252  0.61152878  0.61370555  1
  O  O179  1  0.38246510  0.37075333  0.38613713  1
  O  O180  1  0.38651950  0.38388787  0.87479144  1
  O  O181  1  0.37650271  0.87992854  0.38474023  1
  O  O182  1  0.39616882  0.83834745  0.88224797  1
  O  O183  1  0.88649590  0.37523313  0.38224490  1
  O  O184  1  0.88355553  0.37400035  0.88367775  1
  O  O185  1  0.87791739  0.88177272  0.38434101  1
  O  O186  1  0.85438979  0.88035722  0.87036955  1
  O  O187  1  0.25598709  0.00639421  0.36922405  1
  O  O188  1  0.24660880  0.00859179  0.88047829  1
  O  O189  1  0.24487775  0.50632373  0.36422020  1
  O  O190  1  0.26609354  0.49664504  0.88443284  1
  O  O191  1  0.75339299  0.00221637  0.36866948  1
  O  O192  1  0.75755623  0.00602867  0.86843645  1
  O  O193  1  0.74930468  0.48523146  0.37548070  1
  O  O194  1  0.75049363  0.50583478  0.87672084  1
  O  O195  1  0.24641553  0.49509998  0.13377325  1
  O  O196  1  0.24219569  0.48723335  0.62247430  1
  O  O197  1  0.24349382  1.00572421  0.13001487  1
  O  O198  1  0.23474979  1.00207475  0.61757876  1
  O  O199  1  0.73853516  0.49072494  0.11958561  1
  O  O200  1  0.74280188  0.48917223  0.62455647  1
  O  O201  1  0.74567652  0.99401807  0.12980941  1
  O  O202  1  0.75500629  0.99755710  0.63260895  1
  O  O203  1  -0.00026867  0.37192684  0.26237948  1
  O  O204  1  0.00884548  0.37195961  0.76070283  1
  O  O205  1  0.00796009  0.86095610  0.25360057  1
  O  O206  1  -0.00134202  0.86014197  0.74367255  1
  O  O207  1  0.49136826  0.36677412  0.25716784  1
  O  O208  1  0.49646402  0.36329409  0.75552476  1
  O  O209  1  0.49026864  0.86705753  0.26094291  1
  O  O210  1  0.50158646  0.87751026  0.74364961  1
  O  O211  1  0.49486889  0.13354942  0.24387590  1
  O  O212  1  0.49388078  0.13292695  0.74343699  1
  O  O213  1  0.49176882  0.63237607  0.24433941  1
  O  O214  1  0.49071764  0.61455353  0.73204953  1
  O  O215  1  0.99275061  0.12043131  0.24046179  1
  O  O216  1  0.99652259  0.13093507  0.74622438  1
  O  O217  1  1.00141560  0.63612640  0.24650876  1
  O  O218  1  0.99295922  0.62720903  0.74308528  1
  O  O219  1  0.36378775  0.25070830  -0.00376558  1
  O  O220  1  0.37658197  0.26096030  0.50780438  1
  O  O221  1  0.35970439  0.73941490  0.01053650  1
  O  O222  1  0.36661780  0.75532074  0.50458411  1
  O  O223  1  0.86979447  0.25416402  0.00596353  1
  O  O224  1  0.87105341  0.25716527  0.50891802  1
  O  O225  1  0.86850189  0.74358099  0.01121718  1
  O  O226  1  0.86373683  0.75847339  0.49498850  1
  O  O227  1  0.12729417  0.25364421  0.48528858  1
  O  O228  1  0.13531373  0.24757998  0.98868509  1
  O  O229  1  0.13120024  0.74879548  0.49367848  1
  O  O230  1  0.12810387  0.74103973  0.99615542  1
  O  O231  1  0.62854092  0.24593896  0.48731257  1
  O  O232  1  0.62910113  0.24752534  0.98709325  1
  O  O233  1  0.64320094  0.73843856  0.50237607  1
  O  O234  1  0.63164674  0.74333705  1.00911140  1
  O  O235  1  0.50802306  0.24386109  0.13506926  1
  O  O236  1  0.49588713  0.24691884  0.63165058  1
  O  O237  1  0.49329890  0.74462169  0.13048083  1
  O  O238  1  0.48563714  0.74994232  0.61133810  1
  O  O239  1  0.99516342  0.24093072  0.12419432  1
  O  O240  1  0.99358806  0.25027974  0.62401475  1
  O  O241  1  0.99149179  0.74664471  0.13189209  1
  O  O242  1  1.00653911  0.73866728  0.64046269  1
  O  O243  1  0.00578906  0.25638685  0.37295668  1
  O  O244  1  0.01132665  0.25560346  0.87789665  1
  O  O245  1  0.00922757  0.74837973  0.36960058  1
  O  O246  1  0.00604250  0.74315782  0.86007409  1
  O  O247  1  0.50725758  0.26072211  0.36777619  1
  O  O248  1  0.50551764  0.25525505  0.86865464  1
  O  O249  1  0.49345174  0.76000167  0.36699486  1
  O  O250  1  0.52001869  0.73593721  0.88770437  1
  O  O251  1  0.26008789  0.12765373  0.48423168  1
  O  O252  1  0.24889454  0.12979009  0.99187669  1
  O  O253  1  0.24818616  0.62948827  0.49235768  1
  O  O254  1  0.23686454  0.62855743  1.00633390  1
  O  O255  1  0.74515803  0.12963622  0.49369774  1
  O  O256  1  0.74853783  0.13037764  0.99182256  1
  O  O257  1  0.74839151  0.63656540  0.50015836  1
  O  O258  1  0.75305426  0.63035763  0.99092610  1
  O  O259  1  0.25415057  0.36532251  0.00882796  1
  O  O260  1  0.26010536  0.37436244  0.50528287  1
  O  O261  1  0.25157715  0.86297774  -0.00185161  1
  O  O262  1  0.25714327  0.86582790  0.49957961  1
  O  O263  1  0.75539661  0.36809382  0.00862253  1
  O  O264  1  0.76052690  0.36483504  0.51138898  1
  O  O265  1  0.74777406  0.86711757  0.01373417  1
  O  O266  1  0.75726886  0.86753562  0.50424984  1
  O  O267  1  0.13431276  0.49786186  0.24193575  1
  O  O268  1  0.12315732  0.48775109  0.74329357  1
  O  O269  1  0.12232477  0.97914399  0.25051178  1
  O  O270  1  0.11841391  0.99925294  0.73863310  1
  O  O271  1  0.61214091  0.49929993  0.23389526  1
  O  O272  1  0.62761082  0.50068371  0.73503337  1
  O  O273  1  0.63473995  1.00748422  0.24258313  1
  O  O274  1  0.64159476  1.00548332  0.74813493  1
  O  O275  1  0.37667286  0.01186190  0.25562968  1
  O  O276  1  0.37145572  0.01634921  0.74206624  1
  O  O277  1  0.36853268  0.51498592  0.24680910  1
  O  O278  1  0.37285516  0.50886204  0.75497871  1
  O  O279  1  0.86978076  0.00179831  0.25650599  1
  O  O280  1  0.86785650  -0.00083600  0.76102800  1
  O  O281  1  0.87651628  0.51599606  0.24671969  1
  O  O282  1  0.87206490  0.50687034  0.75520905  1
  O  O283  1  0.11401497  0.37035630  0.37405359  1
  O  O284  1  0.12363245  0.36945583  0.87031420  1
  O  O285  1  0.12540560  0.86139895  0.36710148  1
  O  O286  1  0.12056964  0.85714709  0.87473755  1
  O  O287  1  0.61825630  0.36996342  0.37383499  1
  O  O288  1  0.61221153  0.36866897  0.87807657  1
  O  O289  1  0.61226967  0.88037258  0.37559488  1
  O  O290  1  0.63627041  0.86729546  0.87158891  1
  O  O291  1  0.38879996  0.12269490  0.13251244  1
  O  O292  1  0.38345800  0.13350093  0.62948683  1
  O  O293  1  0.38630575  0.63084179  0.13194806  1
  O  O294  1  0.37382426  0.62950979  0.63297589  1
  O  O295  1  0.88365610  0.12660940  0.12739517  1
  O  O296  1  0.87811365  0.13552511  0.62469657  1
  O  O297  1  0.87546609  0.63414068  0.13682589  1
  O  O298  1  0.88042055  0.61884069  0.63744242  1
  O  O299  1  0.24285259  0.25683654  0.11668802  1
  O  O300  1  0.25403074  0.26073047  0.62206450  1
  O  O301  1  0.25763237  0.74420876  0.11782298  1
  O  O302  1  0.25449615  0.74666724  0.61216650  1
  O  O303  1  0.75296073  0.25335748  0.11861285  1
  O  O304  1  0.75585380  0.25422972  0.62040074  1
  O  O305  1  0.75446731  0.75551187  0.11856654  1
  O  O306  1  0.75469492  0.76413573  0.61631870  1
  O  O307  1  0.24164190  0.24282450  0.37658562  1
  O  O308  1  0.24527716  0.24602303  0.88321950  1
  O  O309  1  0.24552948  0.74219424  0.38421543  1
  O  O310  1  0.23984763  0.74571331  0.88708261  1
  O  O311  1  0.74366726  0.24671854  0.37826827  1
  O  O312  1  0.74348934  0.24616935  0.87719984  1
  O  O313  1  0.74793982  0.75573670  0.38472200  1
  O  O314  1  0.75341193  0.73903473  0.89090748  1
  O  O315  1  0.00016763  0.11430377  0.00587882  1
  O  O316  1  -0.00384270  0.10994975  0.50039209  1
  O  O317  1  0.00830019  0.61540747  0.00305337  1
  O  O318  1  -0.00273724  0.63151153  0.51491123  1
  O  O319  1  0.50089618  0.11708021  0.00689517  1
  O  O320  1  0.50125660  0.12051337  0.50553025  1
  O  O321  1  0.50901113  0.62280429  0.00331760  1
  O  O322  1  0.50927028  0.61956617  0.50963791  1
  O  O323  1  0.49389722  0.38137468  0.49150561  1
  O  O324  1  0.49570720  0.38268177  0.99261907  1
  O  O325  1  0.49060883  0.88469470  0.49113314  1
  O  O326  1  0.50427132  0.88998259  0.99861519  1
  O  O327  1  0.99229914  0.37248928  0.48694426  1
  O  O328  1  0.99888816  0.38043481  0.99595642  1
  O  O329  1  0.99342317  0.88120076  0.49947221  1
  O  O330  1  0.99527949  0.88458062  1.00410941  1
  O  O331  1  0.50283899  0.48895037  0.38272140  1
  O  O332  1  0.49666309  0.49344138  0.87914679  1
  O  O333  1  0.49280116  0.99522113  0.38041595  1
  O  O334  1  0.50863855  1.00138943  0.88697290  1
  O  O335  1  0.99980825  0.48864852  0.37183058  1
  O  O336  1  1.00281845  0.49225578  0.88700430  1
  O  O337  1  0.99763687  0.99730119  0.38532880  1
  O  O338  1  0.98285436  0.99700323  0.88189132  1
  O  O339  1  -0.00290348  0.00331608  0.11239237  1
  O  O340  1  0.00876056  0.00236937  0.61381533  1
  O  O341  1  0.00985546  0.49665588  0.11554942  1
  O  O342  1  0.00883062  0.50873305  0.63016529  1
  O  O343  1  0.50654736  0.00618959  0.12168842  1
  O  O344  1  0.49382904  0.01121406  0.61346965  1
  O  O345  1  0.50130800  0.50840108  0.11578785  1
  O  O346  1  0.50937023  0.49065064  0.61584820  1
  O  O347  1  0.25166289  0.38163786  0.24585843  1
  O  O348  1  0.24358754  0.37083718  0.74201084  1
  O  O349  1  0.23682493  0.87060451  0.25426403  1
  O  O350  1  0.23957989  0.86757706  0.74284476  1
  O  O351  1  0.75417336  0.36582613  0.23503531  1
  O  O352  1  0.75397105  0.37461930  0.73813194  1
  O  O353  1  0.75351051  0.88575344  0.24168149  1
  O  O354  1  0.75274240  0.88622648  0.73052419  1
  O  O355  1  0.25993006  0.12687715  0.25914757  1
  O  O356  1  0.26032823  0.13308592  0.75976737  1
  O  O357  1  0.25579951  0.61861130  0.25662329  1
  O  O358  1  0.25785519  0.62064656  0.74337464  1
  O  O359  1  0.75651470  0.11362212  0.25324385  1
  O  O360  1  0.75455901  0.11447032  0.75307218  1
  O  O361  1  0.75919033  0.62758245  0.24832432  1
  O  O362  1  0.75965169  0.62366230  0.76213504  1
  O  O363  1  0.37184176  0.12049553  0.36724249  1
  O  O364  1  0.36687949  0.12748300  0.86373713  1
  O  O365  1  0.36479932  0.63083998  0.36869847  1
  O  O366  1  0.38083794  0.62026480  0.85206678  1
  O  O367  1  0.86819414  0.11898273  0.37068900  1
  O  O368  1  0.86183732  0.12900008  0.87132750  1
  O  O369  1  0.87860771  0.62254995  0.35818313  1
  O  O370  1  0.86874498  0.61944696  0.86914736  1
  O  O371  1  0.13600584  0.38467368  0.12550793  1
  O  O372  1  0.13056861  0.37963409  0.63207668  1
  O  O373  1  0.12128903  0.87007750  0.13860438  1
  O  O374  1  0.12598616  0.89164743  0.62501841  1
  O  O375  1  0.63359196  0.38229054  0.12082301  1
  O  O376  1  0.63708296  0.37980784  0.61636127  1
  O  O377  1  0.63284866  0.88873515  0.12715847  1
  O  O378  1  0.64532456  0.88231162  0.60696667  1
  O  O379  1  0.12259577  0.25297880  0.26185693  1
  O  O380  1  0.12691244  0.26067651  0.76151963  1
  O  O381  1  0.12054658  0.75456956  0.25548044  1
  O  O382  1  0.11372767  0.74590503  0.75756747  1
  O  O383  1  0.61709642  0.24506867  0.26116530  1
  O  O384  1  0.61742994  0.24555726  0.76117901  1
  O  O385  1  0.60923057  0.74939014  0.24460497  1
  O  O386  1  0.60321235  0.72590279  0.70913051  1
  O  O387  1  0.38623554  0.23834553  0.25467149  1
  O  O388  1  0.38415050  0.24517559  0.74371641  1
  O  O389  1  0.37718157  0.74046417  0.24183176  1
  O  O390  1  0.36913718  0.73714284  0.73628412  1
  O  O391  1  0.87751790  0.23816587  0.24218780  1
  O  O392  1  0.87710499  0.25114284  0.73536873  1
  O  O393  1  0.88145852  0.74167714  0.24654965  1
  O  O394  1  0.88847124  0.73767068  0.75381664  1
  O  O395  1  0.38765951  0.49381130  0.50530018  1
  O  O396  1  0.38808869  0.50509504  0.99204420  1
  O  O397  1  0.38193945  0.99257410  0.49553460  1
  O  O398  1  0.39219032  0.99824283  1.00125093  1
  O  O399  1  0.87183369  0.48828063  0.49861437  1
  O  O400  1  0.88548783  0.49401033  1.00247568  1
  O  O401  1  0.88513633  0.99320499  0.49372750  1
  O  O402  1  0.87977446  0.99921732  0.98327418  1
  O  O403  1  0.10763323  -0.00097676  -0.00289232  1
  O  O404  1  0.11295412  -0.00450147  0.50156111  1
  O  O405  1  0.12153843  0.50415758  0.00540358  1
  O  O406  1  0.12620494  0.49962050  0.51316361  1
  O  O407  1  0.61567503  0.00609786  0.01132871  1
  O  O408  1  0.61193823  0.00955080  0.49327577  1
  O  O409  1  0.61089096  0.49703372  0.00965796  1
  O  O410  1  0.61433067  0.50529220  0.50916807  1
  O  O411  1  0.36258769  0.38013565  0.12282371  1
  O  O412  1  0.36856734  0.37251165  0.61821003  1
  O  O413  1  0.38109266  0.86136313  0.11809150  1
  O  O414  1  0.36995492  0.86700374  0.61298132  1
  O  O415  1  0.86949435  0.36904993  0.12046778  1
  O  O416  1  0.87175541  0.37037853  0.61870342  1
  O  O417  1  0.86679128  0.86125716  0.13260158  1
  O  O418  1  0.86503580  0.88378049  0.60999386  1
  O  O419  1  0.13420065  0.13123446  0.36897464  1
  O  O420  1  0.13348505  0.13156268  0.87377001  1
  O  O421  1  0.13516456  0.63409313  0.37570846  1
  O  O422  1  0.12061995  0.63246258  0.88426114  1
  O  O423  1  0.62997608  0.13345603  0.37931276  1
  O  O424  1  0.63773836  0.13273065  0.87459654  1
  O  O425  1  0.62020584  0.62020180  0.38831635  1
  O  O426  1  0.63120044  0.62017873  0.87862310  1
