# generated using pymatgen
data_V85Zn86O256
_symmetry_space_group_name_H-M   'P 1'
_cell_length_a   16.90242696
_cell_length_b   16.91093584
_cell_length_c   16.90535149
_cell_angle_alpha   90.01167717
_cell_angle_beta   90.01655497
_cell_angle_gamma   89.99565726
_symmetry_Int_Tables_number   1
_chemical_formula_structural   V85Zn86O256
_chemical_formula_sum   'V85 Zn86 O256'
_cell_volume   4832.15533073
_cell_formula_units_Z   1
loop_
 _symmetry_equiv_pos_site_id
 _symmetry_equiv_pos_as_xyz
  1  'x, y, z'
loop_
 _atom_site_type_symbol
 _atom_site_label
 _atom_site_symmetry_multiplicity
 _atom_site_fract_x
 _atom_site_fract_y
 _atom_site_fract_z
 _atom_site_occupancy
  V  V0  1  0.86224704  0.00021025  0.87381388  1
  V  V1  1  0.25017136  0.00302706  0.75400988  1
  V  V2  1  0.12114296  0.12568819  0.49993398  1
  V  V3  1  0.00109752  0.74642760  0.75934374  1
  V  V4  1  0.62200642  -0.00023750  0.12500808  1
  V  V5  1  0.50115921  0.37228856  0.38120925  1
  V  V6  1  0.62339791  0.74718145  0.37544264  1
  V  V7  1  0.24628245  0.87303619  0.12914716  1
  V  V8  1  0.62455798  0.75148908  0.87362440  1
  V  V9  1  0.75642563  0.49564715  0.25186097  1
  V  V10  1  0.49827104  0.11865578  0.61773858  1
  V  V11  1  0.75350455  0.24329785  -0.00010093  1
  V  V12  1  0.24875040  0.12454807  0.37418827  1
  V  V13  1  0.25084412  0.87733400  0.62064740  1
  V  V14  1  0.50169082  0.37594089  0.87549439  1
  V  V15  1  0.62859587  0.88225906  0.75150532  1
  V  V16  1  0.12580497  0.87238606  0.76055163  1
  V  V17  1  0.75649580  0.10736122  0.37294657  1
  V  V18  1  0.24717342  0.36889731  0.12295832  1
  V  V19  1  0.75223582  0.74770910  0.50021721  1
  V  V20  1  0.74786754  0.50410281  0.74265021  1
  V  V21  1  0.62174244  0.24258656  0.36964622  1
  V  V22  1  0.75130696  0.74967489  0.00492966  1
  V  V23  1  0.38248814  0.62384775  0.24419197  1
  V  V24  1  0.37854291  -0.00255928  0.38768900  1
  V  V25  1  0.37568680  0.50309287  0.87577089  1
  V  V26  1  -0.00228394  0.14094977  0.12876471  1
  V  V27  1  0.00574283  0.75467240  0.24853090  1
  V  V28  1  0.87708437  0.74437835  0.63067477  1
  V  V29  1  0.49741454  0.87694153  0.38750813  1
  V  V30  1  0.75483770  0.88148809  0.63023444  1
  V  V31  1  0.12493890  0.75120296  0.37654374  1
  V  V32  1  0.24629718  0.62298808  0.37938094  1
  V  V33  1  0.00134784  0.00031628  0.00098541  1
  V  V34  1  0.62263072  0.11941499  -0.00614699  1
  V  V35  1  -0.00462688  0.00217387  0.49970967  1
  V  V36  1  0.24521266  0.37747335  0.62703300  1
  V  V37  1  0.13099789  0.13182481  -0.00103752  1
  V  V38  1  0.00198589  0.49826639  -0.00568279  1
  V  V39  1  0.75362802  0.62116201  0.37462116  1
  V  V40  1  0.24297324  0.63080055  0.87387827  1
  V  V41  1  0.38024538  0.25089026  0.12653435  1
  V  V42  1  -0.01576289  0.37465079  0.38081649  1
  V  V43  1  0.37096707  0.36963825  -0.00218759  1
  V  V44  1  0.86177000  0.12374402  0.75407140  1
  V  V45  1  0.87566798  0.50080483  0.86909894  1
  V  V46  1  -0.00233410  0.12854523  0.62924863  1
  V  V47  1  0.75159642  0.87976847  0.13169498  1
  V  V48  1  0.61796794  0.62526913  0.00504974  1
  V  V49  1  0.11908994  0.25141107  0.37036628  1
  V  V50  1  0.63212420  0.24849787  0.87304570  1
  V  V51  1  0.24793867  0.49855565  0.25206134  1
  V  V52  1  0.86877328  0.12171360  0.24196291  1
  V  V53  1  0.24589995  0.75328073  -0.00290809  1
  V  V54  1  0.38426202  0.87867202  0.00384862  1
  V  V55  1  0.62313735  0.60897835  0.50212256  1
  V  V56  1  0.24820732  0.75055641  0.50031892  1
  V  V57  1  0.50239152  0.61341866  0.61951980  1
  V  V58  1  0.62418314  0.88090750  0.25288966  1
  V  V59  1  0.38030643  0.49977612  0.38182984  1
  V  V60  1  0.50114179  0.12395259  0.12531577  1
  V  V61  1  0.75527388  0.25224331  0.49666693  1
  V  V62  1  0.38497552  0.00231535  0.87857552  1
  V  V63  1  0.00213742  0.62450483  0.12405257  1
  V  V64  1  0.50221021  0.24984948  0.74800882  1
  V  V65  1  0.62066146  0.50214462  0.12610291  1
  V  V66  1  0.24482490  -0.00470670  0.25229892  1
  V  V67  1  0.24855693  0.25200499  0.50001972  1
  V  V68  1  0.61677454  0.36796032  0.24578049  1
  V  V69  1  0.00992921  0.62700799  0.62430820  1
  V  V70  1  0.75271679  0.62510219  0.87180173  1
  V  V71  1  0.37588663  0.25094025  0.62442374  1
  V  V72  1  0.75513463  0.36874075  0.12380491  1
  V  V73  1  0.87658546  0.37233176  -0.00580219  1
  V  V74  1  0.62651095  0.38083930  0.73873203  1
  V  V75  1  0.62261100  -0.00222825  0.61932315  1
  V  V76  1  0.87882293  0.62119859  0.25456774  1
  V  V77  1  0.37862181  0.12750631  0.25228359  1
  V  V78  1  0.11677027  0.37423035  0.25130035  1
  V  V79  1  -0.00779025  0.50757627  0.49300391  1
  V  V80  1  0.37821282  0.75513303  0.61968956  1
  V  V81  1  0.87669703  0.87657875  0.49496288  1
  V  V82  1  0.37712264  0.62842295  0.74958839  1
  V  V83  1  0.00114576  0.25507845  0.76277575  1
  V  V84  1  0.00254018  0.88142654  0.37005667  1
  Zn  Zn85  1  0.50224587  0.74770056  0.24523507  1
  Zn  Zn86  1  0.38070956  0.74560722  0.12194325  1
  Zn  Zn87  1  0.87354809  0.25592365  0.62263133  1
  Zn  Zn88  1  0.12140324  -0.00115732  0.12994667  1
  Zn  Zn89  1  0.87668228  0.75348600  0.12686472  1
  Zn  Zn90  1  0.87668284  0.87637564  0.00165529  1
  Zn  Zn91  1  0.12409226  0.50210514  0.61942506  1
  Zn  Zn92  1  0.50283887  0.75217553  0.74699097  1
  Zn  Zn93  1  0.24589084  0.50250417  0.74734254  1
  Zn  Zn94  1  0.00228223  0.87426178  0.87877535  1
  Zn  Zn95  1  0.37936391  0.37965147  0.50290547  1
  Zn  Zn96  1  0.25571855  0.12965881  0.88305301  1
  Zn  Zn97  1  0.62270881  0.11845946  0.49467909  1
  Zn  Zn98  1  0.50367695  0.87964820  0.87724892  1
  Zn  Zn99  1  0.12369912  0.00033864  0.62826665  1
  Zn  Zn100  1  0.11506481  0.38414651  0.75496727  1
  Zn  Zn101  1  0.12591819  0.49989013  0.12235347  1
  Zn  Zn102  1  0.49679941  0.50257460  0.00682466  1
  Zn  Zn103  1  0.37493447  0.12626977  0.75270336  1
  Zn  Zn104  1  0.12310882  0.62928350  -0.00389838  1
  Zn  Zn105  1  0.75169924  0.38733676  0.61068168  1
  Zn  Zn106  1  0.13503705  0.26389379  0.88240957  1
  Zn  Zn107  1  0.18750447  0.18773754  0.18656861  1
  Zn  Zn108  1  0.18513115  0.18888271  0.69027545  1
  Zn  Zn109  1  0.18908529  0.68879925  0.18870063  1
  Zn  Zn110  1  0.18689266  0.69031920  0.68975869  1
  Zn  Zn111  1  0.69164242  0.18516029  0.18703821  1
  Zn  Zn112  1  0.68522036  0.18697123  0.68344528  1
  Zn  Zn113  1  0.68760267  0.68748414  0.18921116  1
  Zn  Zn114  1  0.68732370  0.68852399  0.68597488  1
  Zn  Zn115  1  0.31108828  0.31150615  0.31118025  1
  Zn  Zn116  1  0.30837479  0.31139260  0.81150281  1
  Zn  Zn117  1  0.31614656  0.81237470  0.31380394  1
  Zn  Zn118  1  0.31483697  0.81557873  0.81295181  1
  Zn  Zn119  1  0.81108227  0.30046202  0.30677550  1
  Zn  Zn120  1  0.81358707  0.31535360  0.80785154  1
  Zn  Zn121  1  0.81524886  0.81153170  0.31138001  1
  Zn  Zn122  1  0.81437561  0.81450251  0.81338318  1
  Zn  Zn123  1  0.18158624  0.43880389  0.44240279  1
  Zn  Zn124  1  0.18759103  0.43919968  0.93467738  1
  Zn  Zn125  1  0.18444118  0.93718495  0.43822932  1
  Zn  Zn126  1  0.19110765  0.94282404  0.94078990  1
  Zn  Zn127  1  0.68940539  0.43327266  0.42966506  1
  Zn  Zn128  1  0.68818769  0.43689560  0.93567699  1
  Zn  Zn129  1  0.68570919  0.93315125  0.44131866  1
  Zn  Zn130  1  0.68796100  0.93698400  0.94300553  1
  Zn  Zn131  1  0.31330436  0.05824943  0.06535084  1
  Zn  Zn132  1  0.31027661  0.06477997  0.56464708  1
  Zn  Zn133  1  0.30778288  0.55805028  0.06107781  1
  Zn  Zn134  1  0.31268812  0.56514375  0.56139730  1
  Zn  Zn135  1  0.81112509  0.06141788  0.06230937  1
  Zn  Zn136  1  0.81224309  0.06460275  0.56196753  1
  Zn  Zn137  1  0.81284108  0.56131681  0.06430252  1
  Zn  Zn138  1  0.81920894  0.56311023  0.56041510  1
  Zn  Zn139  1  0.43740412  0.43758573  0.19147818  1
  Zn  Zn140  1  0.43407097  0.43712709  0.68910649  1
  Zn  Zn141  1  0.43743323  0.93765922  0.19275049  1
  Zn  Zn142  1  0.43847760  0.93607897  0.69085701  1
  Zn  Zn143  1  0.93794273  0.43524979  0.18356094  1
  Zn  Zn144  1  0.93129107  0.43821190  0.68018793  1
  Zn  Zn145  1  0.93465599  0.94425878  0.18868309  1
  Zn  Zn146  1  0.93865591  0.93845316  0.68982429  1
  Zn  Zn147  1  0.05785602  0.06318957  0.30923491  1
  Zn  Zn148  1  0.06014684  0.06274282  0.81586477  1
  Zn  Zn149  1  0.06347270  0.56091632  0.31589484  1
  Zn  Zn150  1  0.06155642  0.56144888  0.80752996  1
  Zn  Zn151  1  0.56003164  0.05959750  0.31053748  1
  Zn  Zn152  1  0.56460681  0.06381843  0.80640123  1
  Zn  Zn153  1  0.56452386  0.55684134  0.31430044  1
  Zn  Zn154  1  0.56214439  0.56423229  0.81196986  1
  Zn  Zn155  1  0.43880091  0.18881038  0.43805342  1
  Zn  Zn156  1  0.44017537  0.18872762  0.93864101  1
  Zn  Zn157  1  0.43749451  0.68739805  0.43770640  1
  Zn  Zn158  1  0.43688736  0.69202997  0.93964345  1
  Zn  Zn159  1  0.93411193  0.18719660  0.42893482  1
  Zn  Zn160  1  0.93646422  0.18312206  0.93848361  1
  Zn  Zn161  1  0.93826365  0.68876394  0.43718662  1
  Zn  Zn162  1  0.93469012  0.68621294  0.93820298  1
  Zn  Zn163  1  0.06017795  0.31433809  0.05964553  1
  Zn  Zn164  1  0.05846114  0.31505447  0.56079773  1
  Zn  Zn165  1  0.06550984  0.81457806  0.06262636  1
  Zn  Zn166  1  0.06627483  0.81334424  0.56560679  1
  Zn  Zn167  1  0.56143007  0.31072215  0.06048769  1
  Zn  Zn168  1  0.56816118  0.30730905  0.55801182  1
  Zn  Zn169  1  0.56033497  0.80903391  0.06731290  1
  Zn  Zn170  1  0.56533739  0.80707449  0.56332676  1
  O  O171  1  0.11354223  0.12596176  0.11922344  1
  O  O172  1  0.11587609  0.12456161  0.61741209  1
  O  O173  1  0.11300101  0.62361954  0.12655761  1
  O  O174  1  0.11335458  0.63040535  0.62190944  1
  O  O175  1  0.61951750  0.11889027  0.12151429  1
  O  O176  1  0.61780478  0.11374848  0.62447752  1
  O  O177  1  0.63258271  0.61496138  0.11767167  1
  O  O178  1  0.61541128  0.63223514  0.61386815  1
  O  O179  1  0.38341914  0.37977608  0.37337629  1
  O  O180  1  0.37783040  0.38231714  0.88102439  1
  O  O181  1  0.38484907  0.88464266  0.37147359  1
  O  O182  1  0.37766244  0.88363002  0.88376919  1
  O  O183  1  0.88703999  0.37014783  0.36396332  1
  O  O184  1  0.86806660  0.38520886  0.88590335  1
  O  O185  1  0.88462324  0.86808365  0.38755951  1
  O  O186  1  0.87723683  0.88888064  0.87683845  1
  O  O187  1  0.25511639  0.00453565  0.37116550  1
  O  O188  1  0.26002876  0.00585322  0.86889999  1
  O  O189  1  0.25301223  0.50623817  0.37261163  1
  O  O190  1  0.26327180  0.51118851  0.87519849  1
  O  O191  1  0.74442250  0.00912577  0.37740505  1
  O  O192  1  0.76301364  -0.00079625  0.87999688  1
  O  O193  1  0.74776094  0.50369234  0.35967974  1
  O  O194  1  0.75439966  0.50830526  0.86915629  1
  O  O195  1  0.24812262  0.48734221  0.13305410  1
  O  O196  1  0.24911866  0.49174700  0.62143378  1
  O  O197  1  0.24882100  0.99303833  0.13589572  1
  O  O198  1  0.25058740  0.99195471  0.63237305  1
  O  O199  1  0.74186424  0.49198439  0.13263693  1
  O  O200  1  0.75393487  0.50715478  0.63859400  1
  O  O201  1  0.73647943  0.99209123  0.12073983  1
  O  O202  1  0.74478231  0.98763480  0.62008551  1
  O  O203  1  0.01068649  0.38215407  0.25822290  1
  O  O204  1  -0.00553282  0.35700148  0.74404989  1
  O  O205  1  -0.00615261  0.86808273  0.25908591  1
  O  O206  1  0.00969897  0.86912924  0.75159167  1
  O  O207  1  0.51218960  0.37459986  0.25616026  1
  O  O208  1  0.50728841  0.37068882  0.75406981  1
  O  O209  1  0.50982544  0.87221614  0.25926114  1
  O  O210  1  0.51262401  0.87106122  0.75378347  1
  O  O211  1  0.49222722  0.12168160  0.23748478  1
  O  O212  1  0.49985151  0.13426526  0.73786350  1
  O  O213  1  0.48527743  0.62117063  0.25693879  1
  O  O214  1  0.49166654  0.62904977  0.74367136  1
  O  O215  1  0.99682471  0.12382598  0.23336782  1
  O  O216  1  0.99351226  0.13165039  0.74427196  1
  O  O217  1  0.99523492  0.62889651  0.24580143  1
  O  O218  1  1.00145735  0.63621290  0.73979773  1
  O  O219  1  0.37829193  0.26242886  0.00753744  1
  O  O220  1  0.36892131  0.25098374  0.50986659  1
  O  O221  1  0.36612263  0.75947962  0.00148713  1
  O  O222  1  0.36214005  0.74678551  0.50667464  1
  O  O223  1  0.86481676  0.25746621  -0.00939840  1
  O  O224  1  0.85872872  0.24342384  0.49670889  1
  O  O225  1  0.86216266  0.75193065  0.00230215  1
  O  O226  1  0.87243579  0.75803021  0.50765204  1
  O  O227  1  0.12813119  0.24678252  0.48987591  1
  O  O228  1  0.12002977  0.23627527  1.00039712  1
  O  O229  1  0.13810680  0.75359486  0.49356251  1
  O  O230  1  0.14033411  0.74899374  1.00236543  1
  O  O231  1  0.63370389  0.24131988  0.48762077  1
  O  O232  1  0.63074765  0.24262230  0.99227296  1
  O  O233  1  0.63343635  0.74510139  0.48842111  1
  O  O234  1  0.63428776  0.74517946  0.99568584  1
  O  O235  1  0.48818297  0.24494499  0.12545526  1
  O  O236  1  0.49412088  0.24563756  0.62729373  1
  O  O237  1  0.49439766  0.74788498  0.13146421  1
  O  O238  1  0.49132231  0.74340858  0.62463872  1
  O  O239  1  0.99578476  0.23946332  0.12206752  1
  O  O240  1  0.99539454  0.23848128  0.62660268  1
  O  O241  1  1.00023888  0.74485121  0.13207262  1
  O  O242  1  0.99463634  0.74610161  0.62982955  1
  O  O243  1  0.00669763  0.26298774  0.37967616  1
  O  O244  1  0.00124649  0.24567240  0.86424891  1
  O  O245  1  0.00742117  0.75739131  0.37053042  1
  O  O246  1  -0.00643596  0.75170875  0.86388463  1
  O  O247  1  0.51272103  0.25279057  0.37449440  1
  O  O248  1  0.50904164  0.25581840  0.86837546  1
  O  O249  1  0.50814649  0.75490637  0.37146950  1
  O  O250  1  0.51564196  0.75099255  0.87507281  1
  O  O251  1  0.24150248  0.13121962  0.49452012  1
  O  O252  1  0.23371841  0.12097369  1.00735497  1
  O  O253  1  0.25248567  0.63271726  0.48694018  1
  O  O254  1  0.25132663  0.63323482  0.99211959  1
  O  O255  1  0.74763175  0.12738363  0.48595173  1
  O  O256  1  0.74054578  0.13621350  1.00553990  1
  O  O257  1  0.74618800  0.62898411  0.49482006  1
  O  O258  1  0.74197277  0.63141762  0.99598549  1
  O  O259  1  0.25889825  0.38195804  0.01105857  1
  O  O260  1  0.25140286  0.36800497  0.50869723  1
  O  O261  1  0.25830684  0.87053467  0.00668802  1
  O  O262  1  0.24620879  0.87050524  0.51332082  1
  O  O263  1  0.75383073  0.36659487  0.00560799  1
  O  O264  1  0.74340711  0.35767902  0.49518619  1
  O  O265  1  0.74891237  0.86637924  0.01321893  1
  O  O266  1  0.75940133  0.86825609  0.50557867  1
  O  O267  1  0.13088314  0.49196606  0.24886938  1
  O  O268  1  0.12787032  0.50076263  0.73870470  1
  O  O269  1  0.13990348  1.00518242  0.25122999  1
  O  O270  1  0.13189940  0.99479725  0.75027741  1
  O  O271  1  0.63348645  0.49067871  0.24383233  1
  O  O272  1  0.63316241  0.49177906  0.75607420  1
  O  O273  1  0.62470109  0.98770122  0.24361784  1
  O  O274  1  0.62633571  0.98893737  0.74113470  1
  O  O275  1  0.36631136  0.01148302  0.25674783  1
  O  O276  1  0.36710553  -0.00052925  0.75944536  1
  O  O277  1  0.36849395  0.50627974  0.25939167  1
  O  O278  1  0.37239379  0.51045798  0.75781124  1
  O  O279  1  0.88496372  0.02011720  0.25693862  1
  O  O280  1  0.87908859  0.01028343  0.76230701  1
  O  O281  1  0.86784354  0.50759002  0.24281405  1
  O  O282  1  0.86743222  0.49741236  0.76342334  1
  O  O283  1  0.11839980  0.36842416  0.36868322  1
  O  O284  1  0.12583824  0.37632598  0.86846462  1
  O  O285  1  0.11646378  0.86289357  0.37811847  1
  O  O286  1  0.12699083  0.88023035  0.86466146  1
  O  O287  1  0.61904487  0.36568038  0.36498167  1
  O  O288  1  0.61909634  0.36813012  0.86903667  1
  O  O289  1  0.62151613  0.86795799  0.36945322  1
  O  O290  1  0.62781692  0.86978404  0.86964805  1
  O  O291  1  0.38112642  0.13061655  0.12888490  1
  O  O292  1  0.38100708  0.13241841  0.62755285  1
  O  O293  1  0.36839930  0.61831796  0.14171112  1
  O  O294  1  0.37928911  0.63472704  0.63057656  1
  O  O295  1  0.88284308  0.12228507  0.13182657  1
  O  O296  1  0.87929660  0.12545700  0.63800291  1
  O  O297  1  0.88560206  0.62697106  0.13379713  1
  O  O298  1  0.88356520  0.64044945  0.62071559  1
  O  O299  1  0.26126388  0.26133482  0.13052521  1
  O  O300  1  0.25709928  0.25450913  0.62149199  1
  O  O301  1  0.25685155  0.75625455  0.12017218  1
  O  O302  1  0.25551598  0.75563531  0.61832009  1
  O  O303  1  0.74603935  0.25821297  0.11442370  1
  O  O304  1  0.74692618  0.24211895  0.60373007  1
  O  O305  1  0.75092744  0.75651569  0.11959261  1
  O  O306  1  0.75866790  0.75811308  0.62073277  1
  O  O307  1  0.24305248  0.24437958  0.38082661  1
  O  O308  1  0.24673287  0.24064280  0.86818346  1
  O  O309  1  0.24479036  0.74641687  0.38035789  1
  O  O310  1  0.25822159  0.74217295  0.88288596  1
  O  O311  1  0.74088099  0.23994552  0.38056708  1
  O  O312  1  0.73800886  0.25534544  0.88112154  1
  O  O313  1  0.74466297  0.74261730  0.37882418  1
  O  O314  1  0.74312222  0.74551525  0.88190140  1
  O  O315  1  0.00472735  0.12066447  0.01064051  1
  O  O316  1  -0.00079235  0.11910786  0.50417566  1
  O  O317  1  0.00053870  0.62110245  0.00805494  1
  O  O318  1  -0.00328310  0.61582991  0.50415875  1
  O  O319  1  0.50969284  0.13164672  0.01420252  1
  O  O320  1  0.50261101  0.12828206  0.51309702  1
  O  O321  1  0.51399836  0.62373584  -0.00410750  1
  O  O322  1  0.51036680  0.62791582  0.50600396  1
  O  O323  1  0.50115281  0.36953915  0.48584269  1
  O  O324  1  0.49275017  0.37791589  0.99286659  1
  O  O325  1  0.50627180  0.86951192  0.48701498  1
  O  O326  1  0.48828654  0.87218409  0.99871989  1
  O  O327  1  0.99553634  0.38101600  0.48645729  1
  O  O328  1  0.98858769  0.38523089  1.00447173  1
  O  O329  1  0.99547678  0.88165899  0.49605371  1
  O  O330  1  0.99823974  0.88295775  0.99907361  1
  O  O331  1  0.49184914  0.48689461  0.36952623  1
  O  O332  1  0.48921664  0.49657231  0.87601692  1
  O  O333  1  0.49109828  0.99128959  0.37287947  1
  O  O334  1  0.48934510  1.00031926  0.86968900  1
  O  O335  1  1.00059287  0.49009583  0.38326853  1
  O  O336  1  0.98970007  0.51165005  0.88530530  1
  O  O337  1  1.00650982  0.98866855  0.38251888  1
  O  O338  1  0.99254609  1.00042437  0.88777504  1
  O  O339  1  0.00057338  0.00590455  0.11368958  1
  O  O340  1  0.00002786  0.01148816  0.61938498  1
  O  O341  1  -0.00023800  0.50760679  0.11322323  1
  O  O342  1  -0.00332480  0.51200123  0.61766538  1
  O  O343  1  0.51204334  0.00673547  0.12848491  1
  O  O344  1  0.50737152  0.00703357  0.63088377  1
  O  O345  1  0.51560519  0.49330079  0.12644156  1
  O  O346  1  0.49221483  0.51397870  0.62610866  1
  O  O347  1  0.24008531  0.37951259  0.24568165  1
  O  O348  1  0.25407509  0.37948246  0.73483712  1
  O  O349  1  0.25832351  0.88337566  0.24320726  1
  O  O350  1  0.24529550  0.88304343  0.74360349  1
  O  O351  1  0.74620175  0.37763515  0.24238862  1
  O  O352  1  0.73983542  0.38675737  0.75341089  1
  O  O353  1  0.74230774  0.86853768  0.23994287  1
  O  O354  1  0.74409757  0.87068513  0.74008013  1
  O  O355  1  0.25659296  0.11935192  0.25606635  1
  O  O356  1  0.25116258  0.11107965  0.74582797  1
  O  O357  1  0.25618397  0.61928809  0.26062686  1
  O  O358  1  0.26141813  0.62765657  0.75555383  1
  O  O359  1  0.75833931  0.12155851  0.25766461  1
  O  O360  1  0.76295494  0.12915594  0.74808707  1
  O  O361  1  0.75877240  0.61653456  0.25240546  1
  O  O362  1  0.74236590  0.61912946  0.76070073  1
  O  O363  1  0.37186337  0.12106379  0.36841534  1
  O  O364  1  0.37643279  0.11801258  0.87452248  1
  O  O365  1  0.36864518  0.61738180  0.36823847  1
  O  O366  1  0.37356696  0.62106431  0.86821203  1
  O  O367  1  0.86092356  0.11992853  0.36999641  1
  O  O368  1  0.87681491  0.11429181  0.86389205  1
  O  O369  1  0.87089132  0.62874019  0.36263877  1
  O  O370  1  0.85992125  0.61791789  0.88120344  1
  O  O371  1  0.13058554  0.37299719  0.13250462  1
  O  O372  1  0.13287777  0.37224815  0.62921766  1
  O  O373  1  0.14113727  0.87800828  0.12326286  1
  O  O374  1  0.13490765  0.87797006  0.63569983  1
  O  O375  1  0.63368477  0.37806868  0.12892897  1
  O  O376  1  0.63026134  0.37074747  0.63492657  1
  O  O377  1  0.62848843  0.88147869  0.13208323  1
  O  O378  1  0.63326830  0.87742419  0.63119322  1
  O  O379  1  0.12946128  0.25698270  0.26241675  1
  O  O380  1  0.10754678  0.24799217  0.75088119  1
  O  O381  1  0.11306181  0.74773371  0.25706850  1
  O  O382  1  0.11515767  0.75995547  0.74716194  1
  O  O383  1  0.63247787  0.25727747  0.25583143  1
  O  O384  1  0.62300126  0.25672258  0.75546309  1
  O  O385  1  0.62647208  0.75588851  0.26195856  1
  O  O386  1  0.62719312  0.75966824  0.75846823  1
  O  O387  1  0.37097949  0.23629558  0.24387109  1
  O  O388  1  0.38251361  0.25086399  0.73767301  1
  O  O389  1  0.37400184  0.73174990  0.25238261  1
  O  O390  1  0.37741228  0.74368832  0.74241073  1
  O  O391  1  0.87985844  0.22409405  0.25909442  1
  O  O392  1  0.88251482  0.23728203  0.75327989  1
  O  O393  1  0.88795363  0.74164734  0.24910003  1
  O  O394  1  0.88546982  0.75905675  0.74019473  1
  O  O395  1  0.37218856  0.49927105  0.48574436  1
  O  O396  1  0.37774056  0.49174924  0.99428071  1
  O  O397  1  0.37023679  1.00580305  0.48684854  1
  O  O398  1  0.37080611  0.99180590  0.99122365  1
  O  O399  1  0.89052395  0.49766051  0.50056014  1
  O  O400  1  0.87802624  0.49373923  0.99151028  1
  O  O401  1  0.88664212  0.99248139  0.50402036  1
  O  O402  1  0.88018470  1.00226268  0.98928559  1
  O  O403  1  0.11744361  0.01013092  0.00434675  1
  O  O404  1  0.11290667  0.00581011  0.50276395  1
  O  O405  1  0.11541336  0.50560786  0.00175589  1
  O  O406  1  0.10345374  0.49366365  0.50440491  1
  O  O407  1  0.62600772  0.01217433  0.00559345  1
  O  O408  1  0.62517390  -0.00196163  0.51409590  1
  O  O409  1  0.62615265  0.50776215  0.00767808  1
  O  O410  1  0.63192946  0.50977453  0.49450147  1
  O  O411  1  0.37097249  0.36871164  0.12164970  1
  O  O412  1  0.37018463  0.36734188  0.62142067  1
  O  O413  1  0.36692102  0.87849795  0.11865774  1
  O  O414  1  0.36767342  0.86300370  0.63117943  1
  O  O415  1  0.86261909  0.38011706  0.11300511  1
  O  O416  1  0.86045582  0.36755118  0.63278055  1
  O  O417  1  0.86556590  0.87558563  0.12458426  1
  O  O418  1  0.87138194  0.87071479  0.61710747  1
  O  O419  1  0.12546881  0.13301270  0.37895222  1
  O  O420  1  0.12439294  0.12404927  0.89274830  1
  O  O421  1  0.13287257  0.63804304  0.37087425  1
  O  O422  1  0.14004178  0.62290288  0.87278681  1
  O  O423  1  0.63317385  0.12730203  0.37011738  1
  O  O424  1  0.61839928  0.13357660  0.88269103  1
  O  O425  1  0.63062199  0.63000772  0.37917564  1
  O  O426  1  0.63317834  0.63190619  0.88237775  1
