# generated using pymatgen
data_V85Zn86O256
_symmetry_space_group_name_H-M   'P 1'
_cell_length_a   16.92234214
_cell_length_b   16.91994086
_cell_length_c   16.91958249
_cell_angle_alpha   90.02161456
_cell_angle_beta   89.88810010
_cell_angle_gamma   89.98192812
_symmetry_Int_Tables_number   1
_chemical_formula_structural   V85Zn86O256
_chemical_formula_sum   'V85 Zn86 O256'
_cell_volume   4844.49010781
_cell_formula_units_Z   1
loop_
 _symmetry_equiv_pos_site_id
 _symmetry_equiv_pos_as_xyz
  1  'x, y, z'
loop_
 _atom_site_type_symbol
 _atom_site_label
 _atom_site_symmetry_multiplicity
 _atom_site_fract_x
 _atom_site_fract_y
 _atom_site_fract_z
 _atom_site_occupancy
  V  V0  1  0.12798162  0.25011880  0.86218574  1
  V  V1  1  -0.00143845  0.75198114  0.75293009  1
  V  V2  1  0.36864430  0.87596911  0.00037784  1
  V  V3  1  0.50090648  0.62475963  0.12189319  1
  V  V4  1  0.24770692  0.49600911  0.24340859  1
  V  V5  1  0.00577778  0.74595696  0.24033686  1
  V  V6  1  0.36847395  0.12777206  0.75133943  1
  V  V7  1  0.87893134  0.36883575  0.00292985  1
  V  V8  1  0.88088734  0.62210780  0.23913231  1
  V  V9  1  0.87206956  0.49733614  0.87799166  1
  V  V10  1  0.62390199  0.24512636  0.36527193  1
  V  V11  1  0.24893327  0.37076538  0.63061896  1
  V  V12  1  0.62234858  0.49774572  0.62506867  1
  V  V13  1  0.00055409  0.12945385  0.63006476  1
  V  V14  1  0.74231504  -0.00552311  0.75140409  1
  V  V15  1  0.88010418  0.00800271  0.36606087  1
  V  V16  1  0.62543366  0.36515563  0.75509390  1
  V  V17  1  0.74682972  0.50310840  0.75349488  1
  V  V18  1  0.12910281  0.12920683  -0.00281387  1
  V  V19  1  0.75100549  0.75242689  0.49952134  1
  V  V20  1  0.62300389  -0.02124706  0.12846983  1
  V  V21  1  -0.00094314  0.87811858  0.87547657  1
  V  V22  1  0.87011746  0.62591213  0.75720198  1
  V  V23  1  0.37197494  0.49869737  0.37645885  1
  V  V24  1  0.87672545  0.24396165  0.13979889  1
  V  V25  1  0.73243935  0.13213660  0.87378981  1
  V  V26  1  0.00075242  -0.00093737  0.50205526  1
  V  V27  1  0.12690347  0.13056545  0.49751455  1
  V  V28  1  0.50150086  0.36830420  0.87880470  1
  V  V29  1  0.50246328  -0.00192232  0.49852232  1
  V  V30  1  0.25247312  0.25098816  0.50003773  1
  V  V31  1  0.24549864  0.49876493  0.75361050  1
  V  V32  1  0.12633485  0.74829360  0.88109762  1
  V  V33  1  0.37602740  0.00544536  0.37271071  1
  V  V34  1  0.49283766  0.25131760  0.74626255  1
  V  V35  1  0.63033507  0.62432221  -0.00738882  1
  V  V36  1  0.74969976  0.37248759  0.62471501  1
  V  V37  1  0.00054033  0.12850707  0.13970162  1
  V  V38  1  0.12901510  0.63598306  0.49930090  1
  V  V39  1  0.87803512  0.37562458  0.49910001  1
  V  V40  1  0.12422462  0.49711333  0.63630822  1
  V  V41  1  0.24921922  0.87061771  0.62081224  1
  V  V42  1  0.00118731  0.36711290  0.85885196  1
  V  V43  1  0.37542748  0.62389884  0.24985583  1
  V  V44  1  0.25003799  0.13048090  0.37011233  1
  V  V45  1  0.13304805  0.87078745  0.25205665  1
  V  V46  1  0.12529147  0.36224994  0.24366979  1
  V  V47  1  0.87582552  0.13000709  0.75303780  1
  V  V48  1  0.24843666  0.63838193  0.37902838  1
  V  V49  1  0.49508735  0.12896238  0.62188249  1
  V  V50  1  0.87864722  0.24966639  0.62738589  1
  V  V51  1  0.01026179  0.36069340  0.37435566  1
  V  V52  1  -0.00049475  0.00470850  0.00160219  1
  V  V53  1  0.62832190  0.75052413  0.86655236  1
  V  V54  1  0.37146647  0.37151306  0.01155504  1
  V  V55  1  0.50458217  0.75480537  0.24603674  1
  V  V56  1  0.37139954  0.74561660  0.62045315  1
  V  V57  1  0.00547298  0.86466103  0.37738805  1
  V  V58  1  0.00466043  0.50107537  0.49696678  1
  V  V59  1  0.49944941  0.36963495  0.36860001  1
  V  V60  1  0.75501506  0.62211451  0.37148868  1
  V  V61  1  0.86904455  0.87968594  0.01083756  1
  V  V62  1  0.87314654  0.75090717  0.62691230  1
  V  V63  1  0.43209529  0.18750668  0.19057791  1
  V  V64  1  0.61690973  0.13324788  0.01629238  1
  V  V65  1  0.37550524  0.37162564  0.50535320  1
  V  V66  1  0.13012597  -0.00396603  0.12398980  1
  V  V67  1  0.37509317  0.49699816  0.87608990  1
  V  V68  1  0.36832057  0.75479330  0.12373235  1
  V  V69  1  0.62032324  -0.00872002  0.62638705  1
  V  V70  1  0.87160204  0.00433724  0.87665230  1
  V  V71  1  0.50160640  0.87649651  0.37077168  1
  V  V72  1  0.12763522  0.00058297  0.62851693  1
  V  V73  1  0.11698575  0.51239761  0.12310868  1
  V  V74  1  0.36702250  0.00346704  0.87508177  1
  V  V75  1  0.24934092  0.25474880  0.00925057  1
  V  V76  1  0.00147970  0.62385924  0.62957908  1
  V  V77  1  0.74842777  0.24632979  0.49809643  1
  V  V78  1  0.24978106  0.62552026  0.88506625  1
  V  V79  1  0.74563402  0.75529678  0.00453275  1
  V  V80  1  0.62795613  0.49787203  0.12577018  1
  V  V81  1  0.62384672  0.62306223  0.49879219  1
  V  V82  1  0.62438826  0.74865785  0.36955018  1
  V  V83  1  0.25698214  0.00019226  0.24419599  1
  V  V84  1  0.50432214  0.87733795  0.86925698  1
  Zn  Zn85  1  0.50132538  0.75067553  0.74634550  1
  Zn  Zn86  1  0.87990503  0.49851653  0.37146963  1
  Zn  Zn87  1  0.62650328  0.37233926  0.24706390  1
  Zn  Zn88  1  0.36842341  0.87018076  0.49593870  1
  Zn  Zn89  1  0.37819039  0.62674329  0.75180457  1
  Zn  Zn90  1  0.74816164  0.25143925  -0.00033910  1
  Zn  Zn91  1  0.74551003  0.87311566  0.62999303  1
  Zn  Zn92  1  0.75294875  -0.00846285  0.23446116  1
  Zn  Zn93  1  0.24436512  0.75041066  0.00666822  1
  Zn  Zn94  1  0.12690016  0.87685223  0.75178046  1
  Zn  Zn95  1  0.75072354  0.37062929  0.12780822  1
  Zn  Zn96  1  0.49630832  0.00707066  0.00320043  1
  Zn  Zn97  1  0.49877575  0.49880044  0.49984685  1
  Zn  Zn98  1  0.50157871  0.49725801  -0.00063632  1
  Zn  Zn99  1  0.75585080  0.12508301  0.36554073  1
  Zn  Zn100  1  0.49976681  0.62601743  0.62720516  1
  Zn  Zn101  1  0.62527098  0.12356698  0.49731489  1
  Zn  Zn102  1  0.87597482  0.87533627  0.50159136  1
  Zn  Zn103  1  0.87254446  0.75105467  0.12506602  1
  Zn  Zn104  1  0.24940893  0.00255686  0.75126200  1
  Zn  Zn105  1  -0.00157744  0.50784856  0.00808349  1
  Zn  Zn106  1  0.75264040  0.49735402  0.24896743  1
  Zn  Zn107  1  0.19122856  0.18420887  0.18569057  1
  Zn  Zn108  1  0.18948639  0.18904571  0.68405100  1
  Zn  Zn109  1  0.18892974  0.68457352  0.19180988  1
  Zn  Zn110  1  0.18834854  0.68615395  0.69464623  1
  Zn  Zn111  1  0.69797998  0.17916481  0.19175538  1
  Zn  Zn112  1  0.68386598  0.18268392  0.68448490  1
  Zn  Zn113  1  0.68920073  0.68653209  0.18416665  1
  Zn  Zn114  1  0.68615796  0.68588250  0.68673915  1
  Zn  Zn115  1  0.30960605  0.31252074  0.31127063  1
  Zn  Zn116  1  0.31058460  0.31218188  0.81621650  1
  Zn  Zn117  1  0.31745699  0.81588472  0.30903878  1
  Zn  Zn118  1  0.31297897  0.81424749  0.80726902  1
  Zn  Zn119  1  0.81293312  0.31585416  0.31365302  1
  Zn  Zn120  1  0.81145268  0.31152330  0.81403647  1
  Zn  Zn121  1  0.82153496  0.81456778  0.30853612  1
  Zn  Zn122  1  0.81016979  0.81428083  0.82032690  1
  Zn  Zn123  1  0.18663156  0.44170758  0.43816654  1
  Zn  Zn124  1  0.18293853  0.43290512  0.93925137  1
  Zn  Zn125  1  0.18812091  0.93823860  0.43755917  1
  Zn  Zn126  1  0.18857926  0.93703003  0.93835399  1
  Zn  Zn127  1  0.68760180  0.43475953  0.43512606  1
  Zn  Zn128  1  0.68913949  0.43393867  0.94047063  1
  Zn  Zn129  1  0.70840802  0.91756601  0.39390875  1
  Zn  Zn130  1  0.68385502  0.94338139  0.94347963  1
  Zn  Zn131  1  0.31237361  0.06873141  0.06040363  1
  Zn  Zn132  1  0.31552160  0.06128490  0.56195593  1
  Zn  Zn133  1  0.31188627  0.55945864  0.06347576  1
  Zn  Zn134  1  0.30964551  0.56193307  0.56251723  1
  Zn  Zn135  1  0.80555278  0.06674321  0.06576089  1
  Zn  Zn136  1  0.81103069  0.06090175  0.56234345  1
  Zn  Zn137  1  0.80950042  0.56361348  0.05910634  1
  Zn  Zn138  1  0.81296484  0.56246805  0.56397038  1
  Zn  Zn139  1  0.44090734  0.43669169  0.18763925  1
  Zn  Zn140  1  0.43593938  0.43800015  0.68874860  1
  Zn  Zn141  1  0.44078105  0.94185760  0.18347887  1
  Zn  Zn142  1  0.43319180  0.93579584  0.68795838  1
  Zn  Zn143  1  0.94148459  0.43337131  0.18970780  1
  Zn  Zn144  1  0.93714238  0.43784442  0.68823654  1
  Zn  Zn145  1  0.94657749  0.93621343  0.18859831  1
  Zn  Zn146  1  0.93285470  0.94003740  0.68761697  1
  Zn  Zn147  1  0.06803763  0.05874635  0.31505098  1
  Zn  Zn148  1  0.06153410  0.06751166  0.81345159  1
  Zn  Zn149  1  0.06637435  0.56267409  0.31295852  1
  Zn  Zn150  1  0.04326592  0.57904294  0.84897066  1
  Zn  Zn151  1  0.56647138  0.06676958  0.30230407  1
  Zn  Zn152  1  0.55554264  0.06018829  0.81024763  1
  Zn  Zn153  1  0.56051204  0.56042849  0.31090942  1
  Zn  Zn154  1  0.55914726  0.56246644  0.81254840  1
  Zn  Zn155  1  0.43659548  0.18743053  0.43208119  1
  Zn  Zn156  1  0.43583975  0.18961886  0.93723369  1
  Zn  Zn157  1  0.43661582  0.68703496  0.43895982  1
  Zn  Zn158  1  0.43941618  0.68872794  0.93683343  1
  Zn  Zn159  1  0.93978373  0.18763920  0.44132932  1
  Zn  Zn160  1  0.93960588  0.18840190  0.94046455  1
  Zn  Zn161  1  0.93872630  0.68526305  0.43591285  1
  Zn  Zn162  1  0.93305749  0.68861638  0.94317579  1
  Zn  Zn163  1  0.05897561  0.31481939  0.06210275  1
  Zn  Zn164  1  0.06574872  0.31286104  0.56519294  1
  Zn  Zn165  1  0.06176945  0.81573994  0.06290508  1
  Zn  Zn166  1  0.06280523  0.81305306  0.56656592  1
  Zn  Zn167  1  0.55894077  0.30743635  0.06739267  1
  Zn  Zn168  1  0.56177702  0.31096231  0.55938531  1
  Zn  Zn169  1  0.55478002  0.81274377  0.05414832  1
  Zn  Zn170  1  0.55840981  0.81222109  0.55847489  1
  O  O171  1  0.11938852  0.11743775  0.11742951  1
  O  O172  1  0.12285441  0.11962559  0.61711823  1
  O  O173  1  0.12623408  0.61175309  0.12829716  1
  O  O174  1  0.11941495  0.61875267  0.62273015  1
  O  O175  1  0.62368262  0.12598795  0.11638197  1
  O  O176  1  0.61155866  0.11474078  0.62194972  1
  O  O177  1  0.61873733  0.61941594  0.11684119  1
  O  O178  1  0.62559090  0.61573185  0.61607926  1
  O  O179  1  0.37843983  0.37949130  0.38345547  1
  O  O180  1  0.38129794  0.38085564  0.88145976  1
  O  O181  1  0.38311554  0.88491890  0.37616886  1
  O  O182  1  0.38160994  0.88111973  0.87850953  1
  O  O183  1  0.89073404  0.37646037  0.38113933  1
  O  O184  1  0.88195731  0.37534146  0.88086858  1
  O  O185  1  0.89079009  0.88556828  0.38259150  1
  O  O186  1  0.88461643  0.88339503  0.88221293  1
  O  O187  1  0.25836975  0.00672117  0.37011969  1
  O  O188  1  0.26202742  -0.00318654  0.87138410  1
  O  O189  1  0.26002017  0.50398072  0.36847842  1
  O  O190  1  0.25193858  0.50352056  0.87125531  1
  O  O191  1  0.77842364  0.00846612  0.39953524  1
  O  O192  1  0.75120777  0.01080332  0.86941899  1
  O  O193  1  0.75299968  0.51215575  0.37718213  1
  O  O194  1  0.76201653  0.49077087  0.86613330  1
  O  O195  1  0.24284953  0.50299386  0.13819332  1
  O  O196  1  0.24374457  0.49320206  0.63324571  1
  O  O197  1  0.24249259  1.00650384  0.13254758  1
  O  O198  1  0.24199438  0.99538026  0.62550921  1
  O  O199  1  0.73773553  0.50033652  0.12430019  1
  O  O200  1  0.74081350  0.49324984  0.63098221  1
  O  O201  1  0.73180809  0.99788515  0.11834378  1
  O  O202  1  0.73912950  0.99975312  0.63207125  1
  O  O203  1  0.01220845  0.37726680  0.26573815  1
  O  O204  1  -0.00849084  0.36560577  0.75988688  1
  O  O205  1  0.01075834  0.86681964  0.25763408  1
  O  O206  1  -0.00232756  0.87266164  0.75954138  1
  O  O207  1  0.50176250  0.37893106  0.26504059  1
  O  O208  1  0.50500984  0.36833131  0.75376334  1
  O  O209  1  0.49371551  0.86429050  0.25674330  1
  O  O210  1  0.49551911  0.87351464  0.76508249  1
  O  O211  1  0.48764700  0.13262895  0.25716142  1
  O  O212  1  0.49318462  0.13429424  0.74336198  1
  O  O213  1  0.49300139  0.63099683  0.24332829  1
  O  O214  1  0.49677444  0.62883493  0.74558717  1
  O  O215  1  1.01091663  0.12116299  0.23876330  1
  O  O216  1  0.98728813  0.12154701  0.74366160  1
  O  O217  1  0.99378796  0.63561334  0.25968648  1
  O  O218  1  0.98943733  0.63065563  0.75009873  1
  O  O219  1  0.35787017  0.25606187  -0.00936932  1
  O  O220  1  0.36295230  0.25736002  0.49678888  1
  O  O221  1  0.37406124  0.75634020  0.00756600  1
  O  O222  1  0.37651763  0.75081277  0.51403639  1
  O  O223  1  0.87308761  0.25637587  0.00571238  1
  O  O224  1  0.86850889  0.25594886  0.50560295  1
  O  O225  1  0.86588141  0.76000031  -0.00028771  1
  O  O226  1  0.86742245  0.74651155  0.50739774  1
  O  O227  1  0.13863736  0.24189896  0.50554658  1
  O  O228  1  0.13124957  0.24747232  0.99465567  1
  O  O229  1  0.11970296  0.73527834  0.50586627  1
  O  O230  1  0.12610456  0.75826489  0.98656087  1
  O  O231  1  0.63425461  0.24882454  0.49288272  1
  O  O232  1  0.62851058  0.23818773  1.00389236  1
  O  O233  1  0.63081980  0.74082467  0.49398260  1
  O  O234  1  0.62857470  0.74427632  0.99191535  1
  O  O235  1  0.49063846  0.25202957  0.13660586  1
  O  O236  1  0.50303892  0.24222477  0.63325472  1
  O  O237  1  0.49334941  0.74401079  0.12984602  1
  O  O238  1  0.48822891  0.74983497  0.62574754  1
  O  O239  1  0.98904198  0.24100987  0.12074176  1
  O  O240  1  0.99075695  0.24323992  0.61870062  1
  O  O241  1  0.99792139  0.75306434  0.13632022  1
  O  O242  1  0.99348443  0.74510691  0.63431285  1
  O  O243  1  0.00653613  0.26232727  0.38447489  1
  O  O244  1  0.00912035  0.26048442  0.87937928  1
  O  O245  1  -0.00215365  0.76108394  0.36972278  1
  O  O246  1  0.00387011  0.76083116  0.87135773  1
  O  O247  1  0.51054494  0.25851528  0.38260929  1
  O  O248  1  0.49738773  0.26199881  0.86464481  1
  O  O249  1  0.50073494  0.75531748  0.36603519  1
  O  O250  1  0.50690388  0.76106149  0.87319135  1
  O  O251  1  0.24630829  0.13189017  0.49726057  1
  O  O252  1  0.23733704  0.13619950  0.99940341  1
  O  O253  1  0.24077472  0.62003839  0.49165898  1
  O  O254  1  0.25279289  0.62708591  0.98869822  1
  O  O255  1  0.75034746  0.13835976  0.50152184  1
  O  O256  1  0.73574758  0.12555954  0.98760351  1
  O  O257  1  0.74252097  0.63116380  0.49549319  1
  O  O258  1  0.73736124  0.63392107  1.00015730  1
  O  O259  1  0.25575936  0.36367901  -0.00311735  1
  O  O260  1  0.25468109  0.36940605  0.50450644  1
  O  O261  1  0.26323628  0.87055488  -0.00490497  1
  O  O262  1  0.24915101  0.87921646  0.51416358  1
  O  O263  1  0.76356529  0.37176408  0.00295396  1
  O  O264  1  0.75607946  0.36597577  0.50375669  1
  O  O265  1  0.75975348  0.87019610  -0.00821476  1
  O  O266  1  0.75031375  0.85886589  0.49325193  1
  O  O267  1  0.13048107  0.49453856  0.24174896  1
  O  O268  1  0.12979680  0.50475557  0.74026613  1
  O  O269  1  0.13459579  0.99202800  0.24290670  1
  O  O270  1  0.12573700  1.00397009  0.73917970  1
  O  O271  1  0.62715481  0.50034547  0.23948672  1
  O  O272  1  0.63046838  0.49223391  0.74458208  1
  O  O273  1  0.62049772  0.99519726  0.23196336  1
  O  O274  1  0.63021328  1.00500976  0.74031306  1
  O  O275  1  0.36386942  -0.00754158  0.25591430  1
  O  O276  1  0.37546338  0.00924292  0.75725934  1
  O  O277  1  0.36755759  0.50231711  0.25563608  1
  O  O278  1  0.36753340  0.49897634  0.76238030  1
  O  O279  1  0.88100483  -0.00570738  0.26441847  1
  O  O280  1  0.86519939  0.01183714  0.75488972  1
  O  O281  1  0.87652249  0.50766051  0.25175501  1
  O  O282  1  0.86541492  0.50489578  0.75315311  1
  O  O283  1  0.11539794  0.38033767  0.36888442  1
  O  O284  1  0.10985787  0.36636520  0.87502328  1
  O  O285  1  0.11731669  0.88303972  0.36508584  1
  O  O286  1  0.11333422  0.87409638  0.87342050  1
  O  O287  1  0.61539897  0.36789310  0.37591130  1
  O  O288  1  0.61587428  0.38063374  0.86605077  1
  O  O289  1  0.60747005  0.86370937  0.38221201  1
  O  O290  1  0.61084907  0.87003520  0.88259360  1
  O  O291  1  0.38304420  0.12392221  0.12634766  1
  O  O292  1  0.38791373  0.11904481  0.63312336  1
  O  O293  1  0.38267523  0.62899581  0.12881423  1
  O  O294  1  0.37512917  0.63364880  0.62438894  1
  O  O295  1  0.88440896  0.13548117  0.12002557  1
  O  O296  1  0.87840893  0.12919461  0.63329825  1
  O  O297  1  0.87243216  0.62657784  0.13529439  1
  O  O298  1  0.88027378  0.62862792  0.63654503  1
  O  O299  1  0.24446225  0.25037499  0.10840780  1
  O  O300  1  0.24918382  0.26376725  0.61944059  1
  O  O301  1  0.26395436  0.74359381  0.12615656  1
  O  O302  1  0.25945714  0.75531719  0.62967495  1
  O  O303  1  0.76549605  0.24758076  0.12269425  1
  O  O304  1  0.75464263  0.25423708  0.61948232  1
  O  O305  1  0.75078424  0.75030789  0.11058695  1
  O  O306  1  0.75289517  0.75165912  0.61744617  1
  O  O307  1  0.25209292  0.23731935  0.38305475  1
  O  O308  1  0.23197240  0.25712039  0.88173378  1
  O  O309  1  0.25992639  0.73739529  0.37090089  1
  O  O310  1  0.24357850  0.74327613  0.87338675  1
  O  O311  1  0.74567532  0.24760871  0.38281638  1
  O  O312  1  0.75003905  0.23499097  0.87520435  1
  O  O313  1  0.74751422  0.73725897  0.38096398  1
  O  O314  1  0.73825905  0.75440778  0.88616391  1
  O  O315  1  0.01130029  0.12070683  0.00579490  1
  O  O316  1  0.01017589  0.11944337  0.50733363  1
  O  O317  1  0.00625657  0.60872722  -0.04203866  1
  O  O318  1  0.00512915  0.61742662  0.50749557  1
  O  O319  1  0.51499750  0.12686444  -0.00798389  1
  O  O320  1  0.49718348  0.11824560  0.50669709  1
  O  O321  1  0.50931550  0.62391807  0.00617834  1
  O  O322  1  0.51358599  0.62156276  0.50014031  1
  O  O323  1  0.49037230  0.37654721  0.49343318  1
  O  O324  1  0.49240643  0.37265333  0.99252247  1
  O  O325  1  0.49368994  0.88234854  0.49077727  1
  O  O326  1  0.48620517  0.87611773  0.98560250  1
  O  O327  1  1.00145535  0.38192522  0.49243545  1
  O  O328  1  0.98940737  0.38056845  0.99168692  1
  O  O329  1  1.00432135  0.88243273  0.49458035  1
  O  O330  1  0.99268591  0.88380428  0.99339965  1
  O  O331  1  0.48698725  0.49463723  0.37691201  1
  O  O332  1  0.49102196  0.48840355  0.87546475  1
  O  O333  1  0.49562639  0.99494967  0.37753595  1
  O  O334  1  0.49182751  0.98991373  0.87699873  1
  O  O335  1  1.00283085  0.49661841  0.38852031  1
  O  O336  1  0.98358440  0.48102050  0.86440947  1
  O  O337  1  0.99650398  0.99408042  0.38381912  1
  O  O338  1  0.99452304  0.99653714  0.88108025  1
  O  O339  1  0.00808427  0.00760227  0.11939079  1
  O  O340  1  0.00789622  0.00557960  0.62081082  1
  O  O341  1  0.01161546  0.50195935  0.12660908  1
  O  O342  1  0.00655748  0.50256924  0.61964419  1
  O  O343  1  0.51443676  -0.00482545  0.11742344  1
  O  O344  1  0.50218750  0.00303245  0.61849263  1
  O  O345  1  0.50989626  0.50708488  0.12228205  1
  O  O346  1  0.51205544  0.49891620  0.62357522  1
  O  O347  1  0.23425286  0.38416258  0.26015648  1
  O  O348  1  0.25536036  0.38657890  0.74325123  1
  O  O349  1  0.24089937  0.88285802  0.25445054  1
  O  O350  1  0.24706391  0.88079068  0.73702596  1
  O  O351  1  0.74708556  0.38024484  0.24738009  1
  O  O352  1  0.74264285  0.38137743  0.74649144  1
  O  O353  1  0.74393527  0.88928293  0.28646904  1
  O  O354  1  0.75470750  0.89085666  0.75252491  1
  O  O355  1  0.24020747  0.11322413  0.26090747  1
  O  O356  1  0.26477126  0.12577458  0.74343498  1
  O  O357  1  0.25636849  0.61596702  0.25931748  1
  O  O358  1  0.25519619  0.61113999  0.75711729  1
  O  O359  1  0.75161904  0.10535375  0.25458827  1
  O  O360  1  0.75124783  0.11875770  0.75945875  1
  O  O361  1  0.76013295  0.62457884  0.25695410  1
  O  O362  1  0.75404961  0.61074852  0.74479041  1
  O  O363  1  0.36552701  0.11255404  0.37963735  1
  O  O364  1  0.38251677  0.11534800  0.86494091  1
  O  O365  1  0.37115388  0.61621672  0.37134250  1
  O  O366  1  0.36907971  0.61573558  0.87562209  1
  O  O367  1  0.88613528  0.11152778  0.37690289  1
  O  O368  1  0.86821708  0.12176781  0.87030547  1
  O  O369  1  0.86877594  0.62243021  0.36717209  1
  O  O370  1  0.87102931  0.61475742  0.86284010  1
  O  O371  1  0.11698879  0.38027364  0.14119552  1
  O  O372  1  0.13561410  0.38474198  0.62237493  1
  O  O373  1  0.12061925  0.88852703  0.13274697  1
  O  O374  1  0.12950792  0.88369687  0.62852087  1
  O  O375  1  0.62568143  0.38409745  0.12412148  1
  O  O376  1  0.62956607  0.38062427  0.63100242  1
  O  O377  1  0.62363448  0.87945052  0.11664051  1
  O  O378  1  0.62464980  0.88668174  0.61984997  1
  O  O379  1  0.13151152  0.26337486  0.24765495  1
  O  O380  1  0.12690170  0.24520516  0.76282506  1
  O  O381  1  0.12081780  0.75956208  0.24597035  1
  O  O382  1  0.11708296  0.75433466  0.76080703  1
  O  O383  1  0.63263917  0.25053227  0.26233616  1
  O  O384  1  0.61811750  0.26093012  0.74476857  1
  O  O385  1  0.61264367  0.74105715  0.25388448  1
  O  O386  1  0.62636584  0.74861228  0.76214993  1
  O  O387  1  0.36336671  0.24212446  0.24466532  1
  O  O388  1  0.38410261  0.24516025  0.75383135  1
  O  O389  1  0.38427586  0.74490192  0.24220130  1
  O  O390  1  0.37663866  0.74770995  0.73622569  1
  O  O391  1  0.87694015  0.25154693  0.23860840  1
  O  O392  1  0.86646995  0.23740129  0.74395452  1
  O  O393  1  0.88565813  0.74364517  0.24701616  1
  O  O394  1  0.87459451  0.74254373  0.74959693  1
  O  O395  1  0.37394741  0.49211002  0.49222456  1
  O  O396  1  0.37427779  0.49212937  0.98966616  1
  O  O397  1  0.38465921  0.99748494  0.49097158  1
  O  O398  1  0.37509657  0.99547721  0.99238182  1
  O  O399  1  0.88616993  0.49411919  0.50216192  1
  O  O400  1  0.87473744  0.49342314  0.99219693  1
  O  O401  1  0.89283778  1.00009740  0.50445485  1
  O  O402  1  0.87660003  0.99733513  0.99569793  1
  O  O403  1  0.12363307  0.00767882  0.00555605  1
  O  O404  1  0.11804857  0.00640102  0.51024841  1
  O  O405  1  0.12641689  0.49073867  0.02078971  1
  O  O406  1  0.11890860  0.50698257  0.51182216  1
  O  O407  1  0.62040424  0.01350504  0.00821212  1
  O  O408  1  0.60974618  0.00219994  0.50569293  1
  O  O409  1  0.62443118  0.50780775  0.00398846  1
  O  O410  1  0.62628903  0.50517094  0.50795125  1
  O  O411  1  0.37649344  0.38405115  0.11051126  1
  O  O412  1  0.36634167  0.38313459  0.61268569  1
  O  O413  1  0.38117399  0.86570781  0.11490287  1
  O  O414  1  0.36708058  0.86517992  0.62237745  1
  O  O415  1  0.87952422  0.36247560  0.11992690  1
  O  O416  1  0.86959347  0.36994144  0.61998216  1
  O  O417  1  0.87992268  0.87666140  0.11408276  1
  O  O418  1  0.86994489  0.86704316  0.62182080  1
  O  O419  1  0.13466958  0.11625473  0.39021782  1
  O  O420  1  0.11756223  0.14056009  0.88280598  1
  O  O421  1  0.13634422  0.61999529  0.38587192  1
  O  O422  1  0.13936084  0.63761748  0.86498089  1
  O  O423  1  0.62752885  0.13182770  0.37854099  1
  O  O424  1  0.63159207  0.12272734  0.87449815  1
  O  O425  1  0.63131239  0.62774306  0.38060955  1
  O  O426  1  0.61843376  0.63488779  0.88271864  1
