# generated using pymatgen
data_V85Zn86O256
_symmetry_space_group_name_H-M   'P 1'
_cell_length_a   16.94816794
_cell_length_b   16.93548303
_cell_length_c   16.94215701
_cell_angle_alpha   89.91329013
_cell_angle_beta   90.02777484
_cell_angle_gamma   89.99128584
_symmetry_Int_Tables_number   1
_chemical_formula_structural   V85Zn86O256
_chemical_formula_sum   'V85 Zn86 O256'
_cell_volume   4862.82337760
_cell_formula_units_Z   1
loop_
 _symmetry_equiv_pos_site_id
 _symmetry_equiv_pos_as_xyz
  1  'x, y, z'
loop_
 _atom_site_type_symbol
 _atom_site_label
 _atom_site_symmetry_multiplicity
 _atom_site_fract_x
 _atom_site_fract_y
 _atom_site_fract_z
 _atom_site_occupancy
  V  V0  1  0.63489556  0.87377231  0.75373073  1
  V  V1  1  -0.01193140  0.24103406  0.74717728  1
  V  V2  1  0.50095126  0.87442937  0.87499761  1
  V  V3  1  0.62301417  -0.00564512  0.13197946  1
  V  V4  1  0.49645058  0.12680121  0.61958026  1
  V  V5  1  0.87927392  0.35958431  0.50188552  1
  V  V6  1  0.12284783  0.62896858  -0.00575486  1
  V  V7  1  0.49295253  0.38098268  0.87134136  1
  V  V8  1  0.74745529  0.86909997  0.11801701  1
  V  V9  1  0.61757705  0.00024870  0.63405211  1
  V  V10  1  0.76693401  0.50617267  0.75524742  1
  V  V11  1  0.49773402  0.25125199  0.74538539  1
  V  V12  1  0.74838880  0.25292290  -0.00060655  1
  V  V13  1  0.80498404  0.06172018  0.69418068  1
  V  V14  1  0.25039863  0.12466794  0.37862167  1
  V  V15  1  0.76261463  0.36748507  0.62581703  1
  V  V16  1  0.24709245  0.37578596  0.12264600  1
  V  V17  1  0.25405373  0.49841619  0.75476629  1
  V  V18  1  0.63231440  0.50007922  0.61957279  1
  V  V19  1  0.50119506  0.12877292  0.12997041  1
  V  V20  1  0.25501115  0.50248330  0.24887208  1
  V  V21  1  0.75966563  0.62652228  0.87980555  1
  V  V22  1  0.12031621  0.86903006  0.76547630  1
  V  V23  1  0.12472527  0.63446469  0.49401931  1
  V  V24  1  0.50798068  0.26971992  0.25670663  1
  V  V25  1  0.62951824  0.63769702  0.49399525  1
  V  V26  1  0.37564335  0.86852596  0.00728556  1
  V  V27  1  0.12376316  0.24950335  0.87404565  1
  V  V28  1  0.61932886  0.49873590  0.12556639  1
  V  V29  1  0.12367506  0.37439783  0.75073029  1
  V  V30  1  0.50292487  0.86778874  0.36902336  1
  V  V31  1  0.12173949  -0.00093515  0.62700494  1
  V  V32  1  0.00723705  0.26052672  0.25550393  1
  V  V33  1  0.24920775  0.12483618  0.87561801  1
  V  V34  1  0.25268832  0.37125595  0.62483134  1
  V  V35  1  0.00197821  0.62264519  0.12679612  1
  V  V36  1  0.87408528  0.49174083  0.37767305  1
  V  V37  1  0.48730666  0.62806706  0.12672361  1
  V  V38  1  0.48307478  0.74583168  0.24767660  1
  V  V39  1  0.50217942  0.74948116  0.75209462  1
  V  V40  1  0.00891958  0.86692355  0.37272375  1
  V  V41  1  0.25109937  0.74762665  0.00726164  1
  V  V42  1  0.50146170  0.62384795  0.62240561  1
  V  V43  1  0.67471473  0.81959442  0.31008441  1
  V  V44  1  -0.00430360  0.74703682  0.76132657  1
  V  V45  1  -0.00963459  0.37779784  0.87337528  1
  V  V46  1  0.87046362  0.74638139  0.11969883  1
  V  V47  1  0.75911309  0.12117246  0.87374980  1
  V  V48  1  0.87251012  0.62079316  0.25296532  1
  V  V49  1  0.50287329  0.00022769  0.49740507  1
  V  V50  1  0.62520384  0.37800397  0.74583721  1
  V  V51  1  0.62547570  0.12467346  -0.00144248  1
  V  V52  1  0.87551201  0.25371090  0.12484250  1
  V  V53  1  0.12546598  0.12414758  0.49716092  1
  V  V54  1  0.37916398  0.48965499  0.37828197  1
  V  V55  1  -0.00424959  0.49977313  -0.00501881  1
  V  V56  1  0.12388827  0.12387623  0.00269811  1
  V  V57  1  0.37527763  0.25240013  0.12007259  1
  V  V58  1  0.49456238  0.50340419  -0.00573888  1
  V  V59  1  -0.00184031  0.12470178  0.12729598  1
  V  V60  1  0.37656131  0.00091805  0.37098497  1
  V  V61  1  -0.00265093  -0.00214660  0.49796071  1
  V  V62  1  0.67672480  0.20981820  0.43667948  1
  V  V63  1  0.62463896  0.25015056  0.87049906  1
  V  V64  1  0.19170607  0.29888654  0.44259311  1
  V  V65  1  0.74452763  0.37566446  0.13070072  1
  V  V66  1  0.73869211  0.49626971  0.25741858  1
  V  V67  1  -0.00123569  0.49780835  0.49684686  1
  V  V68  1  0.37416903  -0.00023639  0.87620802  1
  V  V69  1  0.49843554  0.48754414  0.49873343  1
  V  V70  1  0.74944894  0.87266976  0.61688924  1
  V  V71  1  0.37194897  0.12492508  0.74915979  1
  V  V72  1  0.24652432  0.63060997  0.87144838  1
  V  V73  1  0.87199786  0.74725292  0.61950537  1
  V  V74  1  -0.00818875  -0.00925859  -0.00376519  1
  V  V75  1  0.37695677  0.61998773  0.75495988  1
  V  V76  1  0.37333327  0.74911929  0.62599410  1
  V  V77  1  0.25726063  0.63321678  0.36842720  1
  V  V78  1  0.74644949  0.01062123  0.25286787  1
  V  V79  1  0.24653268  0.87347289  0.62557530  1
  V  V80  1  0.37537835  0.87228737  0.50053048  1
  V  V81  1  0.50010085  0.00014041  0.00094950  1
  V  V82  1  0.87780221  0.00351173  0.36813624  1
  V  V83  1  0.37073886  0.25107588  0.60974264  1
  V  V84  1  -0.00289602  0.62701539  0.62600807  1
  Zn  Zn85  1  0.86758442  0.87201623  0.49568084  1
  Zn  Zn86  1  0.00808693  0.74197765  0.25498907  1
  Zn  Zn87  1  0.25088238  0.87605164  0.12835593  1
  Zn  Zn88  1  0.87153221  -0.00651513  0.86721216  1
  Zn  Zn89  1  0.86902787  0.38184450  -0.00398326  1
  Zn  Zn90  1  0.13192795  0.86810047  0.24728757  1
  Zn  Zn91  1  0.87398550  0.86328094  -0.01033157  1
  Zn  Zn92  1  0.62778177  0.63128449  0.00023423  1
  Zn  Zn93  1  0.37341243  0.12894793  0.24979308  1
  Zn  Zn94  1  0.12645870  0.50326857  0.62505142  1
  Zn  Zn95  1  0.24628335  -0.00256454  0.75324894  1
  Zn  Zn96  1  0.87196253  0.13299932  0.25592932  1
  Zn  Zn97  1  0.12732381  0.37428117  0.26020248  1
  Zn  Zn98  1  0.24897288  0.25341375  -0.00158692  1
  Zn  Zn99  1  0.24460665  0.00038442  0.24697675  1
  Zn  Zn100  1  0.24578304  0.75175443  0.49681748  1
  Zn  Zn101  1  0.36927812  0.38061745  -0.00881889  1
  Zn  Zn102  1  -0.01193671  0.12498098  0.62766832  1
  Zn  Zn103  1  0.63413629  0.74907710  0.88469462  1
  Zn  Zn104  1  0.12494926  0.49905294  0.12810387  1
  Zn  Zn105  1  0.74700183  0.63944734  0.37817309  1
  Zn  Zn106  1  0.12522541  -0.00588470  0.12792399  1
  Zn  Zn107  1  0.18764754  0.18695083  0.18890596  1
  Zn  Zn108  1  0.18554733  0.18746386  0.68642713  1
  Zn  Zn109  1  0.18486168  0.69006466  0.18875091  1
  Zn  Zn110  1  0.18185274  0.68908291  0.68674036  1
  Zn  Zn111  1  0.68317719  0.18953840  0.19050420  1
  Zn  Zn112  1  0.67236620  0.20176156  0.65588577  1
  Zn  Zn113  1  0.68558493  0.68080308  0.18414782  1
  Zn  Zn114  1  0.69014274  0.68698095  0.68845786  1
  Zn  Zn115  1  0.32246105  0.31566918  0.30391016  1
  Zn  Zn116  1  0.31272219  0.30842191  0.80859208  1
  Zn  Zn117  1  0.31216740  0.81403698  0.31133960  1
  Zn  Zn118  1  0.31112587  0.81116759  0.81515845  1
  Zn  Zn119  1  0.81021872  0.31106337  0.31443667  1
  Zn  Zn120  1  0.80918491  0.31242924  0.80914627  1
  Zn  Zn121  1  0.83644654  0.81722793  0.30505978  1
  Zn  Zn122  1  0.81716549  0.80986114  0.81086099  1
  Zn  Zn123  1  0.18832574  0.46094202  0.43871486  1
  Zn  Zn124  1  0.18297295  0.44189511  0.93630971  1
  Zn  Zn125  1  0.18798642  0.93916015  0.43694552  1
  Zn  Zn126  1  0.18734758  0.93929222  0.94542258  1
  Zn  Zn127  1  0.68709717  0.41831093  0.43744554  1
  Zn  Zn128  1  0.68195609  0.44091173  0.93705109  1
  Zn  Zn129  1  0.70497285  1.00124985  0.45839265  1
  Zn  Zn130  1  0.68979404  0.93782120  0.93742861  1
  Zn  Zn131  1  0.31222922  0.06258381  0.06299271  1
  Zn  Zn132  1  0.31123166  0.05996640  0.55983580  1
  Zn  Zn133  1  0.31318101  0.56165092  0.05951071  1
  Zn  Zn134  1  0.31213242  0.56154571  0.56204602  1
  Zn  Zn135  1  0.81137971  0.06342016  0.06584608  1
  Zn  Zn136  1  0.82814733  0.10452847  0.52033713  1
  Zn  Zn137  1  0.81178130  0.55946569  0.06298791  1
  Zn  Zn138  1  0.81223825  0.56285905  0.56136172  1
  Zn  Zn139  1  0.43125172  0.44154360  0.18496985  1
  Zn  Zn140  1  0.43695238  0.43751326  0.68106037  1
  Zn  Zn141  1  0.43745993  0.93604979  0.19020566  1
  Zn  Zn142  1  0.43527594  0.93582118  0.69126871  1
  Zn  Zn143  1  0.93459662  0.43810696  0.18660539  1
  Zn  Zn144  1  0.94149122  0.43957668  0.68659252  1
  Zn  Zn145  1  0.93810848  0.93637467  0.18575023  1
  Zn  Zn146  1  0.94098104  0.92844836  0.68549712  1
  Zn  Zn147  1  0.06474673  0.06242496  0.30994025  1
  Zn  Zn148  1  0.06015058  0.05959405  0.81530307  1
  Zn  Zn149  1  0.06616341  0.56007409  0.31453648  1
  Zn  Zn150  1  0.06149768  0.56235417  0.81139900  1
  Zn  Zn151  1  0.56594249  0.07340208  0.31570255  1
  Zn  Zn152  1  0.56261512  0.06502991  0.81156743  1
  Zn  Zn153  1  0.55981090  0.56512898  0.31452755  1
  Zn  Zn154  1  0.57062325  0.56353451  0.81213282  1
  Zn  Zn155  1  0.44258039  0.18892811  0.43360753  1
  Zn  Zn156  1  0.43881434  0.18995762  0.93789788  1
  Zn  Zn157  1  0.43846194  0.68429510  0.43712568  1
  Zn  Zn158  1  0.43810233  0.68582316  0.93652804  1
  Zn  Zn159  1  0.94902676  0.18801543  0.43195069  1
  Zn  Zn160  1  0.93709825  0.18881000  0.93909337  1
  Zn  Zn161  1  0.93201271  0.68445641  0.44052667  1
  Zn  Zn162  1  0.93029587  0.68050589  0.93681940  1
  Zn  Zn163  1  0.06282849  0.31301937  0.06216295  1
  Zn  Zn164  1  0.05600960  0.31501025  0.57112814  1
  Zn  Zn165  1  0.06404331  0.80740350  0.06609002  1
  Zn  Zn166  1  0.05883384  0.81271647  0.56242124  1
  Zn  Zn167  1  0.56166872  0.31597893  0.06054970  1
  Zn  Zn168  1  0.58066874  0.31443019  0.53602871  1
  Zn  Zn169  1  0.56344451  0.80920360  0.06490667  1
  Zn  Zn170  1  0.56222601  0.81481575  0.56326780  1
  O  O171  1  0.11648240  0.12684338  0.11640983  1
  O  O172  1  0.12908941  0.11158403  0.61668763  1
  O  O173  1  0.11632492  0.62121666  0.11729642  1
  O  O174  1  0.11453494  0.62543344  0.61691322  1
  O  O175  1  0.61903712  0.11713156  0.11868800  1
  O  O176  1  0.60859256  0.10711397  0.64179979  1
  O  O177  1  0.61778628  0.61155517  0.12333646  1
  O  O178  1  0.62286032  0.61775047  0.61667497  1
  O  O179  1  0.36808692  0.39085997  0.37850365  1
  O  O180  1  0.38899495  0.36885147  0.87096298  1
  O  O181  1  0.38575320  0.88184360  0.37984855  1
  O  O182  1  0.38077577  0.88183449  0.87964246  1
  O  O183  1  0.87044531  0.38440659  0.38526908  1
  O  O184  1  0.88673137  0.36964761  0.87674055  1
  O  O185  1  0.88634555  0.88749110  0.37914394  1
  O  O186  1  0.86509803  0.88114432  0.87919472  1
  O  O187  1  0.26059017  0.00754642  0.37633035  1
  O  O188  1  0.25603861  0.00713362  0.87645521  1
  O  O189  1  0.26206380  0.50936648  0.36907785  1
  O  O190  1  0.24741305  0.50799391  0.86099940  1
  O  O191  1  0.76236287  -0.00930669  0.36137058  1
  O  O192  1  0.74788946  0.01469196  0.87582717  1
  O  O193  1  0.75138763  0.49030346  0.36879610  1
  O  O194  1  0.74405864  0.50390585  0.85998212  1
  O  O195  1  0.25146247  0.49496984  0.13262691  1
  O  O196  1  0.24850858  0.49205898  0.63411137  1
  O  O197  1  0.24655793  0.99935005  0.12654929  1
  O  O198  1  0.24309468  0.98839582  0.62710479  1
  O  O199  1  0.74174695  0.49370776  0.13284936  1
  O  O200  1  0.74760402  0.49683418  0.63566606  1
  O  O201  1  0.74340260  0.99216238  0.13483713  1
  O  O202  1  0.73967225  1.00056235  0.63877868  1
  O  O203  1  0.00480374  0.36548341  0.24264815  1
  O  O204  1  0.00665574  0.36838817  0.75441537  1
  O  O205  1  -0.00406317  0.87263605  0.26542301  1
  O  O206  1  0.01183232  0.86285427  0.74819398  1
  O  O207  1  0.49765561  0.36875671  0.24235318  1
  O  O208  1  0.50479875  0.37265907  0.75178788  1
  O  O209  1  0.49660363  0.86158541  0.25745257  1
  O  O210  1  0.50531108  0.86559004  0.75497926  1
  O  O211  1  0.49841360  0.12998828  0.23705430  1
  O  O212  1  0.49013143  0.12838890  0.74090828  1
  O  O213  1  0.50435485  0.63844730  0.24409144  1
  O  O214  1  0.49424147  0.62932582  0.74505771  1
  O  O215  1  0.99982028  0.13554538  0.23851838  1
  O  O216  1  1.00421275  0.13655481  0.74903558  1
  O  O217  1  0.99172003  0.61754293  0.24365511  1
  O  O218  1  1.00900587  0.63840155  0.74081755  1
  O  O219  1  0.37425885  0.25418406  0.00920941  1
  O  O220  1  0.37654289  0.24463354  0.51100801  1
  O  O221  1  0.36719385  0.75884885  -0.00851640  1
  O  O222  1  0.37551630  0.75503371  0.50876436  1
  O  O223  1  0.86793903  0.25345536  0.01056871  1
  O  O224  1  0.88873120  0.25908008  0.49965728  1
  O  O225  1  0.87678736  0.74602191  0.01499787  1
  O  O226  1  0.87527178  0.75367221  0.51292336  1
  O  O227  1  0.12272793  0.24481788  0.50064872  1
  O  O228  1  0.12292106  0.23878931  0.99276986  1
  O  O229  1  0.12430244  0.73865006  0.50203956  1
  O  O230  1  0.13176843  0.73634344  0.99964051  1
  O  O231  1  0.64557314  0.22276407  0.54231820  1
  O  O232  1  0.62973702  0.24514748  0.99353038  1
  O  O233  1  0.62074829  0.73629008  0.50398146  1
  O  O234  1  0.62358380  0.74619255  0.99825606  1
  O  O235  1  0.49422944  0.24539438  0.12602676  1
  O  O236  1  0.49214028  0.24074738  0.62744480  1
  O  O237  1  0.50193616  0.74384171  0.13964805  1
  O  O238  1  0.49582862  0.74558380  0.63544298  1
  O  O239  1  0.99150742  0.24558535  0.12733419  1
  O  O240  1  1.00161259  0.24437641  0.64189267  1
  O  O241  1  0.99187622  0.73413727  0.12555528  1
  O  O242  1  0.99357506  0.74431177  0.63002042  1
  O  O243  1  -0.00043057  0.25188472  0.35414849  1
  O  O244  1  0.00561428  0.25514265  0.86688369  1
  O  O245  1  -0.01021218  0.76416793  0.37748490  1
  O  O246  1  -0.00767844  0.74234581  0.86016089  1
  O  O247  1  0.48607801  0.25564721  0.35465195  1
  O  O248  1  0.50594965  0.25552443  0.86598325  1
  O  O249  1  0.49616240  0.75649795  0.36375455  1
  O  O250  1  0.49956165  0.75339830  0.86219424  1
  O  O251  1  0.24249409  0.12203629  0.48950343  1
  O  O252  1  0.24009828  0.12752635  0.99334887  1
  O  O253  1  0.24176136  0.62528514  0.49230958  1
  O  O254  1  0.24463270  0.62697683  0.99070203  1
  O  O255  1  0.72918983  0.11451215  0.47834901  1
  O  O256  1  0.74438549  0.13184469  0.99359245  1
  O  O257  1  0.73473935  0.62176262  0.49815120  1
  O  O258  1  0.74883763  0.61296116  0.98394485  1
  O  O259  1  0.25058726  0.37587165  0.00398114  1
  O  O260  1  0.23854308  0.36824186  0.50456789  1
  O  O261  1  0.25827764  0.86382576  -0.00294385  1
  O  O262  1  0.25559658  0.87356412  0.50721564  1
  O  O263  1  0.74818524  0.37164081  0.00806972  1
  O  O264  1  0.76571242  0.38008191  0.51865217  1
  O  O265  1  0.75207835  0.87994858  0.01582415  1
  O  O266  1  0.74748517  0.89609911  0.51625580  1
  O  O267  1  0.13905853  0.49383324  0.25160119  1
  O  O268  1  0.13069704  0.48804091  0.74775496  1
  O  O269  1  0.12525285  0.99264591  0.24731134  1
  O  O270  1  0.12143700  0.98817534  0.74351984  1
  O  O271  1  0.63239837  0.50308948  0.24571205  1
  O  O272  1  0.62649694  0.49435830  0.73393397  1
  O  O273  1  0.63117130  1.00819417  0.24389774  1
  O  O274  1  0.61163241  0.98464793  0.74527763  1
  O  O275  1  0.37877893  0.00485236  0.26309448  1
  O  O276  1  0.37190186  0.00519417  0.75937729  1
  O  O277  1  0.36498446  0.49889585  0.26201071  1
  O  O278  1  0.36675313  0.50845281  0.74287686  1
  O  O279  1  0.86786033  0.00235779  0.25353011  1
  O  O280  1  0.87254812  0.00362915  0.74565112  1
  O  O281  1  0.86583803  0.50459396  0.25748993  1
  O  O282  1  0.86515805  0.49881264  0.75024939  1
  O  O283  1  0.14050277  0.36496202  0.38379319  1
  O  O284  1  0.11734032  0.36967727  0.86772282  1
  O  O285  1  0.11101583  0.87654025  0.37891434  1
  O  O286  1  0.12808626  0.87915114  0.86303464  1
  O  O287  1  0.63638776  0.31669005  0.42973715  1
  O  O288  1  0.61678667  0.36956277  0.86561219  1
  O  O289  1  0.61620957  0.87538562  0.37356312  1
  O  O290  1  0.62066394  0.87216593  0.86870373  1
  O  O291  1  0.38408111  0.13384310  0.12337691  1
  O  O292  1  0.37749178  0.12810815  0.62884631  1
  O  O293  1  0.38796981  0.62009506  0.12427656  1
  O  O294  1  0.37905563  0.63020493  0.63365959  1
  O  O295  1  0.88127861  0.13596379  0.12683695  1
  O  O296  1  0.86443094  0.11561327  0.62749636  1
  O  O297  1  0.87808474  0.62558334  0.13396405  1
  O  O298  1  0.88739531  0.63116363  0.61909019  1
  O  O299  1  0.25751868  0.25656485  0.12298778  1
  O  O300  1  0.25721298  0.25863961  0.62955615  1
  O  O301  1  0.25275268  0.74435402  0.10963351  1
  O  O302  1  0.25188696  0.76068219  0.62431130  1
  O  O303  1  0.75386998  0.25804614  0.12268983  1
  O  O304  1  0.76419742  0.26986929  0.64517017  1
  O  O305  1  0.75688487  0.75744949  0.13514035  1
  O  O306  1  0.75793108  0.75959617  0.62850440  1
  O  O307  1  0.25604930  0.24692891  0.37911449  1
  O  O308  1  0.24292077  0.24291308  0.87532722  1
  O  O309  1  0.25745555  0.73696717  0.37834340  1
  O  O310  1  0.25235938  0.73573828  0.88061647  1
  O  O311  1  0.75840738  0.23539546  0.37989379  1
  O  O312  1  0.74328202  0.24427655  0.87755015  1
  O  O313  1  0.74399998  0.76340883  0.36179388  1
  O  O314  1  0.75133021  0.73030136  0.86332217  1
  O  O315  1  0.00418512  0.12164264  0.00981742  1
  O  O316  1  0.00792667  0.11844507  0.50556471  1
  O  O317  1  0.00555839  0.61983225  0.00397308  1
  O  O318  1  0.00543416  0.61863286  0.50431135  1
  O  O319  1  0.50497645  0.12127912  0.00958359  1
  O  O320  1  0.49320516  0.11591150  0.51194122  1
  O  O321  1  0.50038847  0.61922225  0.00670278  1
  O  O322  1  0.51123976  0.61729183  0.50488365  1
  O  O323  1  0.49863421  0.38833667  0.51210240  1
  O  O324  1  0.49873286  0.38287844  0.98767238  1
  O  O325  1  0.49459244  0.87927446  0.49214456  1
  O  O326  1  0.49334510  0.87916738  0.99376171  1
  O  O327  1  0.99406057  0.38896351  0.50884254  1
  O  O328  1  1.00094040  0.38231863  0.99063708  1
  O  O329  1  0.99745243  0.88291508  0.49142719  1
  O  O330  1  0.99711070  0.88826883  1.00706350  1
  O  O331  1  0.48726348  0.50393715  0.38130819  1
  O  O332  1  0.50698052  0.49184656  0.88002491  1
  O  O333  1  0.49772500  0.99570187  0.38076832  1
  O  O334  1  0.49476532  0.99595343  0.88135869  1
  O  O335  1  0.98890570  0.50432981  0.38526405  1
  O  O336  1  1.00481380  0.48984659  0.88092460  1
  O  O337  1  0.99769024  0.99207481  0.38081539  1
  O  O338  1  0.99311010  1.00756057  0.89264573  1
  O  O339  1  -0.00096757  0.00999831  0.11710953  1
  O  O340  1  0.00576849  0.00123154  0.61761056  1
  O  O341  1  0.00086355  0.50896413  0.11930225  1
  O  O342  1  0.00211555  0.51052997  0.61919641  1
  O  O343  1  0.50582933  0.00686024  0.12302514  1
  O  O344  1  0.50040072  0.00245057  0.61953606  1
  O  O345  1  0.50407483  0.50571521  0.11945911  1
  O  O346  1  0.50837566  0.50662967  0.61822878  1
  O  O347  1  0.24935988  0.38193843  0.24085355  1
  O  O348  1  0.24445137  0.38058687  0.74526908  1
  O  O349  1  0.25245406  0.88084306  0.24731438  1
  O  O350  1  0.23713797  0.87343738  0.74446539  1
  O  O351  1  0.75241202  0.38150765  0.23950279  1
  O  O352  1  0.74723426  0.38846130  0.74486849  1
  O  O353  1  0.74130036  0.87701033  0.24817439  1
  O  O354  1  0.73759561  0.87071734  0.74112389  1
  O  O355  1  0.25111388  0.12630452  0.26522246  1
  O  O356  1  0.25335423  0.12137350  0.75713583  1
  O  O357  1  0.24765927  0.61919754  0.26177427  1
  O  O358  1  0.25418580  0.61968242  0.75259785  1
  O  O359  1  0.75335921  0.11517242  0.24374283  1
  O  O360  1  0.75064989  0.12512123  0.75226311  1
  O  O361  1  0.75566873  0.61492914  0.25567832  1
  O  O362  1  0.74700905  0.61037702  0.75467332  1
  O  O363  1  0.36884431  0.11715266  0.37603720  1
  O  O364  1  0.36984936  0.12077179  0.87148322  1
  O  O365  1  0.36092361  0.61708902  0.38028734  1
  O  O366  1  0.36866148  0.62634298  0.86023979  1
  O  O367  1  0.88580725  0.11071449  0.37312118  1
  O  O368  1  0.86222848  0.12404287  0.87844447  1
  O  O369  1  0.86648883  0.61555745  0.37005906  1
  O  O370  1  0.85993986  0.61788107  0.87288698  1
  O  O371  1  0.13812292  0.37718999  0.12241002  1
  O  O372  1  0.13488517  0.37511019  0.63412059  1
  O  O373  1  0.13067724  0.87566498  0.12388902  1
  O  O374  1  0.12936719  0.88371318  0.62728170  1
  O  O375  1  0.63126085  0.38811889  0.12065568  1
  O  O376  1  0.64217412  0.38168594  0.62548144  1
  O  O377  1  0.62904676  0.88788441  0.12501501  1
  O  O378  1  0.62850331  0.88267318  0.63206138  1
  O  O379  1  0.11163868  0.25509770  0.24356087  1
  O  O380  1  0.12012650  0.25960581  0.75463073  1
  O  O381  1  0.11936739  0.75300465  0.25099296  1
  O  O382  1  0.11427381  0.76189825  0.74809922  1
  O  O383  1  0.60738418  0.25298816  0.24351796  1
  O  O384  1  0.61701973  0.25861355  0.74751489  1
  O  O385  1  0.62163233  0.75470642  0.25308145  1
  O  O386  1  0.61645238  0.75679628  0.74964944  1
  O  O387  1  0.38405343  0.24923753  0.23360099  1
  O  O388  1  0.38033571  0.24233297  0.74069990  1
  O  O389  1  0.38470704  0.74658370  0.24991410  1
  O  O390  1  0.38137930  0.74396324  0.74499446  1
  O  O391  1  0.88358106  0.25306137  0.23903680  1
  O  O392  1  0.89036576  0.25078580  0.75583969  1
  O  O393  1  0.88237781  0.73368387  0.24215360  1
  O  O394  1  0.89048616  0.75471537  0.73700589  1
  O  O395  1  0.38363250  0.50493685  0.48920613  1
  O  O396  1  0.38902692  0.49849728  0.99891466  1
  O  O397  1  0.38433695  0.99370561  0.49162433  1
  O  O398  1  0.38163775  0.99483519  0.99240452  1
  O  O399  1  0.88107914  0.49644078  0.49297828  1
  O  O400  1  0.89080852  0.49907119  1.00420317  1
  O  O401  1  0.88690295  1.00385380  0.49175306  1
  O  O402  1  0.88639702  1.00027208  1.00437043  1
  O  O403  1  0.11223690  0.01054546  0.00032593  1
  O  O404  1  0.11612003  0.00521178  0.50617858  1
  O  O405  1  0.11470244  0.51069040  0.00242250  1
  O  O406  1  0.11440006  0.51190071  0.50504226  1
  O  O407  1  0.61855444  0.00504828  0.00835934  1
  O  O408  1  0.60764184  -0.00660911  0.51546200  1
  O  O409  1  0.61213854  0.50230480  0.00839730  1
  O  O410  1  0.62096863  0.49905321  0.50822437  1
  O  O411  1  0.36361223  0.36994188  0.11961455  1
  O  O412  1  0.36116520  0.36711447  0.62748971  1
  O  O413  1  0.37604401  0.87948072  0.10992498  1
  O  O414  1  0.36565503  0.87027890  0.62319383  1
  O  O415  1  0.86455997  0.37005130  0.12111427  1
  O  O416  1  0.86988202  0.38160677  0.61832263  1
  O  O417  1  0.86553358  0.86260624  0.12836667  1
  O  O418  1  0.86549307  0.86884872  0.62163608  1
  O  O419  1  0.13113956  0.12173583  0.38859444  1
  O  O420  1  0.12940978  0.12839610  0.88131985  1
  O  O421  1  0.14149695  0.61650323  0.38361024  1
  O  O422  1  0.13417598  0.62005324  0.88138026  1
  O  O423  1  0.61164127  0.15146950  0.38480965  1
  O  O424  1  0.62997984  0.13205990  0.87868458  1
  O  O425  1  0.62722239  0.62295794  0.38972601  1
  O  O426  1  0.63756593  0.62672580  0.87639089  1
