# generated using pymatgen
data_V85Zn86O256
_symmetry_space_group_name_H-M   'P 1'
_cell_length_a   16.94664159
_cell_length_b   16.95256266
_cell_length_c   16.94692269
_cell_angle_alpha   90.08996024
_cell_angle_beta   89.95348817
_cell_angle_gamma   89.96803728
_symmetry_Int_Tables_number   1
_chemical_formula_structural   V85Zn86O256
_chemical_formula_sum   'V85 Zn86 O256'
_cell_volume   4868.65616367
_cell_formula_units_Z   1
loop_
 _symmetry_equiv_pos_site_id
 _symmetry_equiv_pos_as_xyz
  1  'x, y, z'
loop_
 _atom_site_type_symbol
 _atom_site_label
 _atom_site_symmetry_multiplicity
 _atom_site_fract_x
 _atom_site_fract_y
 _atom_site_fract_z
 _atom_site_occupancy
  V  V0  1  0.00349881  0.74814519  0.75723648  1
  V  V1  1  0.37579171  0.12281535  0.24810485  1
  V  V2  1  0.24872883  0.87016482  0.12090966  1
  V  V3  1  0.49936993  0.87361931  0.87275803  1
  V  V4  1  0.75964936  0.35970515  0.61870922  1
  V  V5  1  0.62187711  0.87431594  0.74837918  1
  V  V6  1  0.74673343  0.37330330  0.11912247  1
  V  V7  1  0.11923862  0.37667175  0.25305781  1
  V  V8  1  0.62858818  0.50355049  0.12463900  1
  V  V9  1  0.25312913  0.50041937  0.75625994  1
  V  V10  1  0.88162503  0.14309881  0.75560578  1
  V  V11  1  0.12539319  -0.00173598  0.12475307  1
  V  V12  1  0.36738183  0.37351420  -0.00027466  1
  V  V13  1  0.00072043  0.75254943  0.24838919  1
  V  V14  1  0.61767393  0.86304331  0.24484747  1
  V  V15  1  0.62365985  0.00830696  0.11881757  1
  V  V16  1  0.37235226  0.12203681  0.76237138  1
  V  V17  1  0.50090611  0.12241208  0.62344612  1
  V  V18  1  0.87060618  0.24927113  0.11749650  1
  V  V19  1  -0.00315625  0.50481604  -0.00446674  1
  V  V20  1  0.87826102  0.48334249  0.36699309  1
  V  V21  1  0.87862765  0.87697634  -0.01719790  1
  V  V22  1  0.63480755  0.37306831  0.75102088  1
  V  V23  1  -0.00286471  0.36895512  0.87259189  1
  V  V24  1  0.62643361  -0.00001753  0.62383315  1
  V  V25  1  0.37812970  -0.00160803  0.37322494  1
  V  V26  1  0.62916719  0.62616486  -0.00625834  1
  V  V27  1  0.50080568  0.00452814  -0.00639782  1
  V  V28  1  0.50246357  0.49886320  0.50361219  1
  V  V29  1  0.37382277  0.87488223  -0.00521312  1
  V  V30  1  0.37336224  0.37366719  0.50139177  1
  V  V31  1  0.76404841  -0.00012282  0.75518593  1
  V  V32  1  0.37338998  0.63184391  0.25074013  1
  V  V33  1  0.12308925  0.51091005  0.62419109  1
  V  V34  1  0.86180603  0.50998337  0.86990175  1
  V  V35  1  0.14004243  0.25273727  0.88247636  1
  V  V36  1  0.63567238  0.49517867  0.62665814  1
  V  V37  1  0.50377150  0.63368605  0.12589142  1
  V  V38  1  0.75037754  0.74809974  -0.00854893  1
  V  V39  1  0.37612631  0.50422365  0.87672690  1
  V  V40  1  0.86923519  0.11658075  0.25279096  1
  V  V41  1  0.14016690  0.13043343  -0.00177797  1
  V  V42  1  0.24919276  0.88262984  0.63078140  1
  V  V43  1  0.12147639  0.50205872  0.12494886  1
  V  V44  1  0.50054603  0.37438697  0.37494281  1
  V  V45  1  0.24668765  0.37464419  0.62650605  1
  V  V46  1  0.12178125  0.36993346  0.75041357  1
  V  V47  1  0.00029231  0.88746984  0.37438211  1
  V  V48  1  0.86255953  0.62966764  0.25819524  1
  V  V49  1  0.25362328  0.12284900  0.37583356  1
  V  V50  1  0.36597344  0.24927356  0.12147693  1
  V  V51  1  -0.00076727  -0.00395343  -0.01350002  1
  V  V52  1  0.50479424  0.62917884  0.62556615  1
  V  V53  1  0.74642388  0.87503864  0.11979413  1
  V  V54  1  0.37407121  0.87105177  0.49989119  1
  V  V55  1  0.62532095  0.74526615  0.86077493  1
  V  V56  1  0.86641127  0.62251044  0.73601502  1
  V  V57  1  0.75222807  0.12534644  0.88625557  1
  V  V58  1  0.24682698  0.50020087  0.25270359  1
  V  V59  1  0.25313416  0.00287536  0.77246586  1
  V  V60  1  0.13773416  0.62612971  -0.01068036  1
  V  V61  1  0.87232492  0.87671976  0.49437767  1
  V  V62  1  0.62878491  0.24484941  0.88997657  1
  V  V63  1  0.87169559  0.37594937  -0.00117715  1
  V  V64  1  0.36865919  0.74783678  0.11918383  1
  V  V65  1  0.49904526  0.85587073  0.36806812  1
  V  V66  1  0.50221857  0.37399919  0.87458068  1
  V  V67  1  0.38188739  0.62797567  0.75563627  1
  V  V68  1  0.49982379  0.24897043  0.24876186  1
  V  V69  1  0.38039613  0.75307811  0.63324765  1
  V  V70  1  0.36880764  0.49969503  0.37705312  1
  V  V71  1  0.75402433  0.86982549  0.62446797  1
  V  V72  1  0.50305955  0.24706153  0.75107685  1
  V  V73  1  0.00020447  0.12575798  0.11991672  1
  V  V74  1  0.12597065  0.11880850  0.50403947  1
  V  V75  1  0.12496881  0.24965076  0.37202542  1
  V  V76  1  0.37480841  0.24794990  0.62588775  1
  V  V77  1  0.87281503  0.75035311  0.12069391  1
  V  V78  1  0.11967714  0.74753335  0.38647885  1
  V  V79  1  -0.00328256  0.13399814  0.62647824  1
  V  V80  1  -0.00096270  0.25122683  0.25364140  1
  V  V81  1  0.49999264  0.50194161  -0.00060272  1
  V  V82  1  0.24428937  0.62641941  0.38561118  1
  V  V83  1  0.24899519  0.24896769  0.50094459  1
  V  V84  1  0.62804126  0.37418260  0.25205893  1
  Zn  Zn85  1  -0.00188746  0.62799556  0.12260130  1
  Zn  Zn86  1  0.05556125  0.66401977  0.57754144  1
  Zn  Zn87  1  0.24604147  0.37353175  0.12238965  1
  Zn  Zn88  1  0.74328053  0.00139932  0.25137809  1
  Zn  Zn89  1  0.25071896  -0.00359706  0.24859224  1
  Zn  Zn90  1  0.00741724  0.50527238  0.48770406  1
  Zn  Zn91  1  0.63468096  0.62316033  0.47700248  1
  Zn  Zn92  1  0.10804182  0.88395258  0.76346394  1
  Zn  Zn93  1  0.81826804  0.04916520  0.41383837  1
  Zn  Zn94  1  0.12589785  0.00241079  0.63320244  1
  Zn  Zn95  1  0.13596077  0.75852859  0.88133350  1
  Zn  Zn96  1  0.71128820  0.54301609  0.29535769  1
  Zn  Zn97  1  0.23905058  0.74581941  0.51556542  1
  Zn  Zn98  1  0.50201514  0.12725414  0.11716109  1
  Zn  Zn99  1  0.65004503  0.23603287  0.37382327  1
  Zn  Zn100  1  0.50617838  -0.00578921  0.49743407  1
  Zn  Zn101  1  0.12717347  0.87305813  0.25029764  1
  Zn  Zn102  1  0.89651858  0.37673946  0.51121282  1
  Zn  Zn103  1  0.88506181  0.74586355  0.61756652  1
  Zn  Zn104  1  0.74755836  0.74430510  0.48149107  1
  Zn  Zn105  1  -0.00495846  0.00360145  0.50461838  1
  Zn  Zn106  1  0.65371196  0.12274373  0.49446901  1
  Zn  Zn107  1  0.18894028  0.18578192  0.18569517  1
  Zn  Zn108  1  0.18599548  0.18689073  0.69183983  1
  Zn  Zn109  1  0.18566429  0.68584904  0.18864670  1
  Zn  Zn110  1  0.20649212  0.70104128  0.72444478  1
  Zn  Zn111  1  0.68867039  0.18879895  0.18439363  1
  Zn  Zn112  1  0.68932088  0.18505521  0.69220679  1
  Zn  Zn113  1  0.67740339  0.70565567  0.31173302  1
  Zn  Zn114  1  0.71034255  0.66504774  0.63880063  1
  Zn  Zn115  1  0.31012166  0.31250739  0.31095857  1
  Zn  Zn116  1  0.31537042  0.31276469  0.81266528  1
  Zn  Zn117  1  0.30687177  0.80916907  0.31155558  1
  Zn  Zn118  1  0.30963130  0.81336142  0.81749771  1
  Zn  Zn119  1  0.81261458  0.31034861  0.30096226  1
  Zn  Zn120  1  0.80922738  0.31323218  0.81659431  1
  Zn  Zn121  1  0.81516567  0.82844903  0.30766820  1
  Zn  Zn122  1  0.81059161  0.80410517  0.80484687  1
  Zn  Zn123  1  0.17452101  0.43361950  0.44323028  1
  Zn  Zn124  1  0.18626494  0.44126120  0.93593483  1
  Zn  Zn125  1  0.19044237  0.93377094  0.43840806  1
  Zn  Zn126  1  0.18604773  0.93691742  0.94090781  1
  Zn  Zn127  1  0.69252498  0.42981384  0.44086678  1
  Zn  Zn128  1  0.68722105  0.43582410  0.93771260  1
  Zn  Zn129  1  0.68315580  0.92468667  0.43410111  1
  Zn  Zn130  1  0.68746183  0.93912955  0.93492616  1
  Zn  Zn131  1  0.31613416  0.05652916  0.06115687  1
  Zn  Zn132  1  0.31891751  0.06172671  0.56296330  1
  Zn  Zn133  1  0.31041572  0.55937669  0.06466136  1
  Zn  Zn134  1  0.31280302  0.56278738  0.56866520  1
  Zn  Zn135  1  0.81660537  0.05753302  0.06276903  1
  Zn  Zn136  1  0.81992819  0.05855491  0.57932506  1
  Zn  Zn137  1  0.80987832  0.56557509  0.06399486  1
  Zn  Zn138  1  0.81970427  0.55425776  0.55133479  1
  Zn  Zn139  1  0.43731713  0.44007183  0.18596423  1
  Zn  Zn140  1  0.44100608  0.43545242  0.68877472  1
  Zn  Zn141  1  0.43957745  0.93588208  0.18378588  1
  Zn  Zn142  1  0.43674031  0.94003821  0.69223816  1
  Zn  Zn143  1  0.93508819  0.44156595  0.18909671  1
  Zn  Zn144  1  0.94124428  0.44064975  0.68982640  1
  Zn  Zn145  1  0.93902706  0.93507834  0.17972897  1
  Zn  Zn146  1  0.94124548  0.93720462  0.68631325  1
  Zn  Zn147  1  0.06325757  0.06739231  0.30799523  1
  Zn  Zn148  1  0.06792558  0.07073251  0.81332524  1
  Zn  Zn149  1  0.05737677  0.57084679  0.31128709  1
  Zn  Zn150  1  0.05663780  0.56278805  0.80725724  1
  Zn  Zn151  1  0.56322116  0.05360690  0.30753684  1
  Zn  Zn152  1  0.56752918  0.06048693  0.81281619  1
  Zn  Zn153  1  0.54675545  0.56091735  0.30978899  1
  Zn  Zn154  1  0.56551323  0.56042243  0.80813574  1
  Zn  Zn155  1  0.50756451  0.18067353  0.43433308  1
  Zn  Zn156  1  0.43794513  0.19052843  0.93878862  1
  Zn  Zn157  1  0.43352389  0.68470477  0.44440862  1
  Zn  Zn158  1  0.44011395  0.69225747  0.93697788  1
  Zn  Zn159  1  0.81984715  0.22008605  0.46644282  1
  Zn  Zn160  1  0.94002195  0.18723695  0.93666380  1
  Zn  Zn161  1  0.93494430  0.68928901  0.43629826  1
  Zn  Zn162  1  0.93947151  0.68583445  0.93122277  1
  Zn  Zn163  1  0.06012014  0.31475968  0.06127935  1
  Zn  Zn164  1  0.02348370  0.28576454  0.52984513  1
  Zn  Zn165  1  0.06256692  0.81127090  0.05568878  1
  Zn  Zn166  1  0.06007609  0.82735011  0.56944917  1
  Zn  Zn167  1  0.55568205  0.31435968  0.06418893  1
  Zn  Zn168  1  0.56871686  0.30837956  0.56201245  1
  Zn  Zn169  1  0.56207737  0.81136729  0.05904319  1
  Zn  Zn170  1  0.56599129  0.80784642  0.55606666  1
  O  O171  1  0.11869518  0.11919859  0.11951715  1
  O  O172  1  0.12347488  0.12149724  0.61964459  1
  O  O173  1  0.12173646  0.61452422  0.11847433  1
  O  O174  1  0.13977477  0.61256935  0.63955480  1
  O  O175  1  0.62262273  0.11274020  0.12767438  1
  O  O176  1  0.61935078  0.11673937  0.62406359  1
  O  O177  1  0.61512472  0.61688350  0.11431653  1
  O  O178  1  0.61072769  0.60928514  0.63752405  1
  O  O179  1  0.37678435  0.38211908  0.38020192  1
  O  O180  1  0.38241214  0.38077753  0.88210833  1
  O  O181  1  0.37947432  0.87482731  0.37946561  1
  O  O182  1  0.38532931  0.86830626  0.88245746  1
  O  O183  1  0.88605623  0.38591606  0.34928503  1
  O  O184  1  0.87968213  0.38329161  0.87759699  1
  O  O185  1  0.88865159  0.87645478  0.38161129  1
  O  O186  1  0.86762883  0.86935036  0.88464626  1
  O  O187  1  0.26184355  -0.00004612  0.37108045  1
  O  O188  1  0.25522089  0.00157108  0.87053896  1
  O  O189  1  0.24881781  0.50670404  0.37288425  1
  O  O190  1  0.25927171  0.49522884  0.86427977  1
  O  O191  1  0.74730556  -0.01755381  0.36256513  1
  O  O192  1  0.74319593  0.01430593  0.86639439  1
  O  O193  1  0.76771923  0.48938063  0.37487602  1
  O  O194  1  0.76385832  0.49536184  0.87574801  1
  O  O195  1  0.23977381  0.49951568  0.13526421  1
  O  O196  1  0.24872241  0.49134635  0.63493108  1
  O  O197  1  0.24226014  0.99095575  0.12580533  1
  O  O198  1  0.25372812  0.98981084  0.62581120  1
  O  O199  1  0.73578545  0.49454526  0.12056320  1
  O  O200  1  0.73748867  0.48868367  0.62081406  1
  O  O201  1  0.74066732  0.99227280  0.12066538  1
  O  O202  1  0.74429205  0.99084338  0.63612724  1
  O  O203  1  0.01189996  0.36649733  0.23779734  1
  O  O204  1  0.01113442  0.38030394  0.75921159  1
  O  O205  1  -0.00028371  0.86743239  0.25510059  1
  O  O206  1  -0.00759499  0.85705093  0.74773778  1
  O  O207  1  0.50891282  0.36971988  0.25047419  1
  O  O208  1  0.50793870  0.36579387  0.75558188  1
  O  O209  1  0.50043015  0.87305019  0.25962106  1
  O  O210  1  0.51370190  0.88002590  0.75578179  1
  O  O211  1  0.48864775  0.13163350  0.24642583  1
  O  O212  1  0.49536318  0.12633352  0.74268481  1
  O  O213  1  0.48563194  0.62041449  0.23661521  1
  O  O214  1  0.48938578  0.61770557  0.73992718  1
  O  O215  1  0.99470152  0.13027789  0.23519988  1
  O  O216  1  0.98745564  0.12171730  0.74778305  1
  O  O217  1  0.98824966  0.64061023  0.24519799  1
  O  O218  1  0.98857739  0.63600297  0.75196609  1
  O  O219  1  0.38224845  0.26104702  0.00960135  1
  O  O220  1  0.36546506  0.25877352  0.50998108  1
  O  O221  1  0.37664914  0.76018569  0.00738029  1
  O  O222  1  0.37237604  0.75845028  0.51248017  1
  O  O223  1  0.88286499  0.25873055  0.01071167  1
  O  O224  1  0.90921113  0.26531226  0.50703339  1
  O  O225  1  0.87107979  0.75355291  0.00153074  1
  O  O226  1  0.87040321  0.76319004  0.49991768  1
  O  O227  1  0.12837229  0.23607424  0.49175933  1
  O  O228  1  0.12271501  0.24277914  0.99639288  1
  O  O229  1  0.12146757  0.75022504  0.49767184  1
  O  O230  1  0.12130059  0.73083083  0.99866055  1
  O  O231  1  0.60379297  0.23414578  0.48677924  1
  O  O232  1  0.61697787  0.25295213  0.98901133  1
  O  O233  1  0.63261826  0.73467305  0.50814352  1
  O  O234  1  0.63187856  0.74338252  0.99149601  1
  O  O235  1  0.49067858  0.24868578  0.13519545  1
  O  O236  1  0.49634656  0.24088170  0.63188875  1
  O  O237  1  0.48843718  0.73894312  0.11762774  1
  O  O238  1  0.49402731  0.73912659  0.62070679  1
  O  O239  1  0.99512212  0.24208791  0.12834198  1
  O  O240  1  1.01736019  0.23097586  0.63478254  1
  O  O241  1  0.99135879  0.75300437  0.13008082  1
  O  O242  1  1.00034817  0.74938390  0.63100067  1
  O  O243  1  0.01140118  0.24260809  0.35422306  1
  O  O244  1  0.00738615  0.26603430  0.88306641  1
  O  O245  1  0.00563612  0.75849830  0.36701681  1
  O  O246  1  0.00647956  0.74599374  0.86238831  1
  O  O247  1  0.48506029  0.26081188  0.35690461  1
  O  O248  1  0.50804253  0.25462530  0.86975302  1
  O  O249  1  0.49112918  0.75714870  0.37451372  1
  O  O250  1  0.51233398  0.76353343  0.87926731  1
  O  O251  1  0.24753149  0.12936036  0.49586334  1
  O  O252  1  0.23888788  0.12011282  1.00576682  1
  O  O253  1  0.25939008  0.62837990  0.48884860  1
  O  O254  1  0.23622691  0.61720804  0.99977501  1
  O  O255  1  0.76898903  0.12037479  0.49683886  1
  O  O256  1  0.75829432  0.11972724  0.98477629  1
  O  O257  1  0.74366042  0.63225063  0.52724263  1
  O  O258  1  0.73716681  0.63268400  1.00245210  1
  O  O259  1  0.26395325  0.38546016  0.00252837  1
  O  O260  1  0.25112722  0.36978962  0.50909293  1
  O  O261  1  0.25919551  0.87881912  0.01218953  1
  O  O262  1  0.25786817  0.86993717  0.51021880  1
  O  O263  1  0.75483233  0.37777224  0.01095543  1
  O  O264  1  0.75381285  0.36835433  0.51586427  1
  O  O265  1  0.75617044  0.87120894  0.00322083  1
  O  O266  1  0.75633070  0.87456718  0.51018307  1
  O  O267  1  0.12349229  0.49590346  0.24425962  1
  O  O268  1  0.13610851  0.49228616  0.74913679  1
  O  O269  1  0.12591669  0.99842473  0.23571082  1
  O  O270  1  0.14175922  1.00346088  0.75427452  1
  O  O271  1  0.62077923  0.49162540  0.23993901  1
  O  O272  1  0.61782169  0.48369653  0.74023046  1
  O  O273  1  0.62090946  0.98716350  0.23413188  1
  O  O274  1  0.63432171  0.99371915  0.74066091  1
  O  O275  1  0.37533927  0.00677486  0.25322664  1
  O  O276  1  0.36461176  0.00975320  0.74984940  1
  O  O277  1  0.36782246  0.50788105  0.25541429  1
  O  O278  1  0.37332516  0.50158527  0.75822991  1
  O  O279  1  0.87496729  0.01429800  0.23500857  1
  O  O280  1  0.86556877  0.00306813  0.74872410  1
  O  O281  1  0.87474062  0.51881855  0.25285839  1
  O  O282  1  0.88048998  0.51151031  0.76138726  1
  O  O283  1  0.12895092  0.36550342  0.36320663  1
  O  O284  1  0.11766799  0.37300098  0.87095488  1
  O  O285  1  0.12000155  0.86439956  0.37425277  1
  O  O286  1  0.12814481  0.87203081  0.87452383  1
  O  O287  1  0.61838954  0.37524342  0.36546545  1
  O  O288  1  0.62325031  0.36747748  0.86862334  1
  O  O289  1  0.60523301  0.87416299  0.36268754  1
  O  O290  1  0.62135336  0.86829411  0.86638279  1
  O  O291  1  0.37620897  0.13153545  0.13037606  1
  O  O292  1  0.38121941  0.13025673  0.63572821  1
  O  O293  1  0.37852470  0.63016489  0.12877870  1
  O  O294  1  0.38636498  0.63260107  0.62907286  1
  O  O295  1  0.88235411  0.13261070  0.12442082  1
  O  O296  1  0.88881933  0.12709748  0.64008611  1
  O  O297  1  0.87460749  0.63796711  0.12901544  1
  O  O298  1  0.87842043  0.61869038  0.63320559  1
  O  O299  1  0.26209854  0.25375479  0.12807550  1
  O  O300  1  0.25250746  0.25731966  0.62286213  1
  O  O301  1  0.25963512  0.75334205  0.12648398  1
  O  O302  1  0.26022834  0.76454292  0.63333634  1
  O  O303  1  0.75844989  0.25914950  0.12494439  1
  O  O304  1  0.74918273  0.26040218  0.62814254  1
  O  O305  1  0.75817033  0.76003069  0.10575521  1
  O  O306  1  0.76057843  0.76747461  0.63625631  1
  O  O307  1  0.24542301  0.24342903  0.38007249  1
  O  O308  1  0.23976360  0.26143196  0.88079992  1
  O  O309  1  0.23864484  0.74312820  0.37963031  1
  O  O310  1  0.23755111  0.73272483  0.83402615  1
  O  O311  1  0.75938164  0.25406028  0.37844514  1
  O  O312  1  0.74282258  0.23687912  0.87401081  1
  O  O313  1  0.74533350  0.76884910  0.37043488  1
  O  O314  1  0.74151603  0.75305185  0.88437337  1
  O  O315  1  0.00377702  0.11614274  0.00778626  1
  O  O316  1  0.01037979  0.12172976  0.51711784  1
  O  O317  1  0.00175115  0.61375127  0.00109050  1
  O  O318  1  -0.00146330  0.61884711  0.49451830  1
  O  O319  1  0.49302740  0.10908695  -0.00204332  1
  O  O320  1  0.48292625  0.11105774  0.51971646  1
  O  O321  1  0.50794791  0.62140386  0.00600373  1
  O  O322  1  0.50020662  0.61142137  0.50630241  1
  O  O323  1  0.49447445  0.38294701  0.49776425  1
  O  O324  1  0.49083078  0.38321368  0.99519612  1
  O  O325  1  0.49348574  0.87336145  0.48698526  1
  O  O326  1  0.49394139  0.88022492  0.99171296  1
  O  O327  1  1.01440997  0.39301889  0.50274313  1
  O  O328  1  0.99243790  0.38757197  0.99508534  1
  O  O329  1  0.99282078  0.88151426  0.49154493  1
  O  O330  1  0.99406076  0.88788552  1.00190713  1
  O  O331  1  0.48973972  0.49282815  0.38363575  1
  O  O332  1  0.49725912  0.49242455  0.88025239  1
  O  O333  1  0.48669681  0.98794262  0.37449785  1
  O  O334  1  0.50902787  0.98629250  0.88075623  1
  O  O335  1  0.98180921  0.50869665  0.36701568  1
  O  O336  1  0.99166345  0.49190951  0.88125395  1
  O  O337  1  1.00990582  0.98956471  0.37370999  1
  O  O338  1  1.00572359  1.00645892  0.88883127  1
  O  O339  1  0.00832180  0.00664589  0.11733707  1
  O  O340  1  0.00659485  0.01190866  0.62726675  1
  O  O341  1  0.00458143  0.50249455  0.11621404  1
  O  O342  1  0.02200369  0.50320594  0.63374821  1
  O  O343  1  0.50703255  0.00012770  0.11395211  1
  O  O344  1  0.51038343  0.00417172  0.62771685  1
  O  O345  1  0.50817034  0.50725650  0.11853796  1
  O  O346  1  0.50538622  0.50180016  0.61717825  1
  O  O347  1  0.23777381  0.38201584  0.24762120  1
  O  O348  1  0.24825347  0.38222095  0.74456690  1
  O  O349  1  0.24837631  0.87492306  0.23591648  1
  O  O350  1  0.25869053  0.89409633  0.74619578  1
  O  O351  1  0.73508677  0.37240712  0.23626261  1
  O  O352  1  0.73924699  0.37027181  0.74330180  1
  O  O353  1  0.74109019  0.87567298  0.22961940  1
  O  O354  1  0.74196732  0.88287384  0.74808990  1
  O  O355  1  0.26145445  0.12328753  0.25474647  1
  O  O356  1  0.25875399  0.11226635  0.74770645  1
  O  O357  1  0.25426828  0.61918827  0.26036869  1
  O  O358  1  0.27360753  0.60808988  0.73821001  1
  O  O359  1  0.76449941  0.12294624  0.24239765  1
  O  O360  1  0.76514977  0.11946014  0.75366899  1
  O  O361  1  0.76050504  0.63370187  0.24222689  1
  O  O362  1  0.76666762  0.62788500  0.73960336  1
  O  O363  1  0.37166906  0.11286753  0.36632210  1
  O  O364  1  0.37857098  0.13280256  0.86126451  1
  O  O365  1  0.36824741  0.62038291  0.36805446  1
  O  O366  1  0.38622333  0.61725664  0.86775044  1
  O  O367  1  0.88429744  0.12245481  0.35178852  1
  O  O368  1  0.86698077  0.12992734  0.86555240  1
  O  O369  1  0.86789610  0.63026260  0.35943529  1
  O  O370  1  0.87216227  0.61337334  0.86958728  1
  O  O371  1  0.12580414  0.38750386  0.12796044  1
  O  O372  1  0.13942119  0.38592253  0.63692065  1
  O  O373  1  0.13193355  0.88057209  0.12188978  1
  O  O374  1  0.13619353  0.88273911  0.63630590  1
  O  O375  1  0.62792440  0.38142196  0.12816740  1
  O  O376  1  0.63238545  0.37603438  0.63143538  1
  O  O377  1  0.62926247  0.88072727  0.12412980  1
  O  O378  1  0.63052043  0.88031694  0.63146016  1
  O  O379  1  0.12102087  0.25779707  0.24863293  1
  O  O380  1  0.13358093  0.26458012  0.76092629  1
  O  O381  1  0.11485292  0.75119645  0.25598878  1
  O  O382  1  0.10712805  0.75298172  0.74476063  1
  O  O383  1  0.61617423  0.25477673  0.25168839  1
  O  O384  1  0.61948264  0.25473481  0.75770295  1
  O  O385  1  0.61789528  0.76363415  0.23266352  1
  O  O386  1  0.63129766  0.75834745  0.75937527  1
  O  O387  1  0.37861676  0.24374475  0.24161041  1
  O  O388  1  0.38188688  0.24501851  0.74473494  1
  O  O389  1  0.36810833  0.73672324  0.24186724  1
  O  O390  1  0.37983808  0.74261225  0.73994756  1
  O  O391  1  0.88319732  0.24110085  0.23477075  1
  O  O392  1  0.87706138  0.24128574  0.75466974  1
  O  O393  1  0.87885855  0.74678972  0.23992284  1
  O  O394  1  0.88175855  0.73564603  0.74694086  1
  O  O395  1  0.38031505  0.49363647  0.49780228  1
  O  O396  1  0.38102667  0.49613337  0.99597998  1
  O  O397  1  0.37530654  0.98459512  0.49164093  1
  O  O398  1  0.38545934  0.98377705  1.00528288  1
  O  O399  1  0.87860692  0.48887627  0.48056768  1
  O  O400  1  0.87850388  0.49894868  0.99059345  1
  O  O401  1  0.87625050  0.99047025  0.49969850  1
  O  O402  1  0.89045278  0.99177331  1.00210268  1
  O  O403  1  0.11683506  0.00766670  0.00866335  1
  O  O404  1  0.12864647  0.01218246  0.49860565  1
  O  O405  1  0.11671260  0.50556595  0.00653553  1
  O  O406  1  0.13460499  0.50652092  0.52066384  1
  O  O407  1  0.61403444  -0.00775951  0.00749114  1
  O  O408  1  0.62620799  -0.00086108  0.51289538  1
  O  O409  1  0.62037041  0.50701572  0.00283608  1
  O  O410  1  0.61743646  0.49948169  0.50614260  1
  O  O411  1  0.37421974  0.36872929  0.11798774  1
  O  O412  1  0.36550050  0.37018714  0.62333828  1
  O  O413  1  0.36990284  0.86513369  0.11955442  1
  O  O414  1  0.37546957  0.86986189  0.61920861  1
  O  O415  1  0.86516791  0.37109971  0.12269521  1
  O  O416  1  0.86115540  0.38359255  0.63113533  1
  O  O417  1  0.86736731  0.86605871  0.11611066  1
  O  O418  1  0.86865248  0.87798118  0.61430927  1
  O  O419  1  0.13405911  0.12876276  0.37880606  1
  O  O420  1  0.12206192  0.14077748  0.88587309  1
  O  O421  1  0.13219480  0.63694886  0.37078586  1
  O  O422  1  0.12202976  0.61553996  0.88918973  1
  O  O423  1  0.60272041  0.12626504  0.38293532  1
  O  O424  1  0.64014259  0.13285761  0.86938388  1
  O  O425  1  0.63391754  0.61153435  0.35999006  1
  O  O426  1  0.61755409  0.63235817  0.88164737  1
