# generated using pymatgen
data_V85Zn86O256
_symmetry_space_group_name_H-M   'P 1'
_cell_length_a   16.93869051
_cell_length_b   16.94173270
_cell_length_c   16.95120765
_cell_angle_alpha   89.99589884
_cell_angle_beta   90.01219111
_cell_angle_gamma   89.99066823
_symmetry_Int_Tables_number   1
_chemical_formula_structural   V85Zn86O256
_chemical_formula_sum   'V85 Zn86 O256'
_cell_volume   4864.50087257
_cell_formula_units_Z   1
loop_
 _symmetry_equiv_pos_site_id
 _symmetry_equiv_pos_as_xyz
  1  'x, y, z'
loop_
 _atom_site_type_symbol
 _atom_site_label
 _atom_site_symmetry_multiplicity
 _atom_site_fract_x
 _atom_site_fract_y
 _atom_site_fract_z
 _atom_site_occupancy
  V  V0  1  0.74775437  -0.00172879  0.25041434  1
  V  V1  1  -0.00099011  0.49768771  0.49261267  1
  V  V2  1  0.26197991  0.51008880  0.75199313  1
  V  V3  1  0.74789997  0.87199565  0.62530064  1
  V  V4  1  0.00865350  0.74531508  0.25418325  1
  V  V5  1  0.75291699  0.24960396  0.51178564  1
  V  V6  1  0.74920312  0.62304325  0.37594306  1
  V  V7  1  0.12657035  -0.01230341  0.12732805  1
  V  V8  1  0.62179742  0.24675887  0.87512846  1
  V  V9  1  0.62218644  -0.00770992  0.12720339  1
  V  V10  1  0.12463953  0.61637746  -0.00264047  1
  V  V11  1  0.12728374  0.74994833  0.87596990  1
  V  V12  1  0.37253461  0.25246828  0.11151778  1
  V  V13  1  0.75321765  0.11712076  0.87618316  1
  V  V14  1  0.12346139  0.13582135  0.49968611  1
  V  V15  1  0.49475865  0.37764335  0.88560131  1
  V  V16  1  0.37429105  0.00429517  0.37628412  1
  V  V17  1  0.50316786  0.87853764  0.36626021  1
  V  V18  1  0.00112822  0.37684303  0.87592789  1
  V  V19  1  0.49301649  0.61739735  0.62532391  1
  V  V20  1  0.62436224  -0.00088547  0.62569081  1
  V  V21  1  0.00200197  0.00134236  0.00402101  1
  V  V22  1  0.87475604  0.62207131  0.25065802  1
  V  V23  1  0.12366154  0.50346266  0.62571984  1
  V  V24  1  0.38232520  0.38062049  0.50059096  1
  V  V25  1  0.62529572  0.49919890  0.62051110  1
  V  V26  1  0.24995946  0.36778101  0.11604917  1
  V  V27  1  0.37324767  0.74807962  0.62491051  1
  V  V28  1  -0.00659830  0.13001311  0.62619387  1
  V  V29  1  0.74751739  0.74686306  0.49947074  1
  V  V30  1  0.12908598  0.62714015  0.48466105  1
  V  V31  1  0.12807295  0.88389627  0.75077687  1
  V  V32  1  0.50041746  0.00170744  0.50162159  1
  V  V33  1  0.49940362  0.74254845  0.74681300  1
  V  V34  1  0.36167394  0.87701149  0.01130639  1
  V  V35  1  0.25237856  0.37408989  0.62613364  1
  V  V36  1  0.87559442  0.87285256  0.49597231  1
  V  V37  1  0.75586002  0.74924619  -0.00047675  1
  V  V38  1  0.62331212  0.75435696  0.37046390  1
  V  V39  1  0.87981957  0.12608122  0.24883307  1
  V  V40  1  0.62467406  0.37592050  0.75019804  1
  V  V41  1  0.36079518  0.50263789  0.37301360  1
  V  V42  1  0.61489365  0.51374001  0.11268925  1
  V  V43  1  0.50413885  0.38487763  0.37275290  1
  V  V44  1  0.12950243  0.37504456  0.26514915  1
  V  V45  1  0.37971966  0.11215928  0.74621624  1
  V  V46  1  0.87378440  0.74735495  0.62519725  1
  V  V47  1  0.87375348  0.38067967  0.00125185  1
  V  V48  1  0.13156082  0.49794312  0.12954104  1
  V  V49  1  -0.00858111  0.25419630  0.74734235  1
  V  V50  1  0.01119742  0.87067599  0.37359272  1
  V  V51  1  0.87404625  0.24810270  0.12660300  1
  V  V52  1  0.49948314  0.12472752  0.12425707  1
  V  V53  1  0.62774314  0.25521367  0.37195226  1
  V  V54  1  0.36018158  0.61668596  0.24402081  1
  V  V55  1  0.12824253  0.37541865  0.76253763  1
  V  V56  1  0.05071094  0.17267004  0.06909587  1
  V  V57  1  0.49992504  0.73755266  0.24551976  1
  V  V58  1  0.87520112  0.88207922  -0.00143763  1
  V  V59  1  0.87726700  0.50294974  0.87696975  1
  V  V60  1  0.74872805  0.24672215  0.00085249  1
  V  V61  1  0.24513421  0.13197334  0.37588397  1
  V  V62  1  0.49475386  0.87592990  0.87260983  1
  V  V63  1  0.62157055  0.12608502  0.50471448  1
  V  V64  1  0.00494161  0.25367408  0.27216230  1
  V  V65  1  0.75163835  0.12515725  0.37569308  1
  V  V66  1  0.59847912  0.73118757  0.91075044  1
  V  V67  1  0.61084466  0.62112950  0.49682511  1
  V  V68  1  0.74162658  0.49573133  0.24977477  1
  V  V69  1  -0.00429028  0.88397168  0.87312103  1
  V  V70  1  0.24944324  0.87651379  0.62384844  1
  V  V71  1  0.74970548  0.87321338  0.13012235  1
  V  V72  1  0.49530228  -0.00116912  -0.00238276  1
  V  V73  1  0.12869206  0.00685866  0.62596000  1
  V  V74  1  0.73911271  0.37442378  0.12949596  1
  V  V75  1  -0.00099335  0.61487587  0.12110547  1
  V  V76  1  0.00029445  -0.00034369  0.49853571  1
  V  V77  1  0.50381427  0.25608330  0.24972521  1
  V  V78  1  0.62398332  0.86947145  0.75272388  1
  V  V79  1  0.37427708  0.12870758  0.24833704  1
  V  V80  1  0.38582947  0.24292126  0.62255884  1
  V  V81  1  0.88224077  0.36849874  0.50345314  1
  V  V82  1  0.75756222  -0.00482270  0.75483274  1
  V  V83  1  0.74687228  0.62598923  0.87703718  1
  V  V84  1  -0.00014893  0.74806654  0.74992345  1
  Zn  Zn85  1  0.75413233  0.37410874  0.62915215  1
  Zn  Zn86  1  0.25268953  -0.00295686  0.24161253  1
  Zn  Zn87  1  0.37017282  0.87309944  0.49541747  1
  Zn  Zn88  1  0.26034467  0.63004513  0.87435816  1
  Zn  Zn89  1  0.87706162  -0.00259518  0.37127018  1
  Zn  Zn90  1  0.23655070  0.75244239  0.48960099  1
  Zn  Zn91  1  0.24801996  0.25494872  0.49678089  1
  Zn  Zn92  1  -0.00082075  0.62415874  0.62302097  1
  Zn  Zn93  1  0.87851818  0.74889496  0.12681470  1
  Zn  Zn94  1  0.87541371  0.49359095  0.37424932  1
  Zn  Zn95  1  0.38982847  0.50959596  0.89874425  1
  Zn  Zn96  1  0.18853512  0.21998017  0.94077917  1
  Zn  Zn97  1  0.62294719  0.12078043  -0.00164081  1
  Zn  Zn98  1  0.14014617  0.86185168  0.24926667  1
  Zn  Zn99  1  0.24261356  0.11002555  0.86462912  1
  Zn  Zn100  1  0.24009197  0.75633081  0.01542752  1
  Zn  Zn101  1  0.50360232  0.24423093  0.74589909  1
  Zn  Zn102  1  0.36641886  0.74896235  0.13050930  1
  Zn  Zn103  1  0.74998212  0.50074791  0.75111210  1
  Zn  Zn104  1  0.36411810  -0.00496917  0.86888305  1
  Zn  Zn105  1  0.87301710  0.12704295  0.74845078  1
  Zn  Zn106  1  0.87415983  0.62357897  0.74984477  1
  Zn  Zn107  1  0.18897364  0.19143406  0.19497699  1
  Zn  Zn108  1  0.20230262  0.20836661  0.72627292  1
  Zn  Zn109  1  0.18890228  0.68475922  0.18687271  1
  Zn  Zn110  1  0.18666003  0.68955653  0.68323034  1
  Zn  Zn111  1  0.68618394  0.18265222  0.18729926  1
  Zn  Zn112  1  0.68523042  0.18297699  0.69027070  1
  Zn  Zn113  1  0.68652494  0.68642534  0.18642668  1
  Zn  Zn114  1  0.68365625  0.68423782  0.68988954  1
  Zn  Zn115  1  0.31366855  0.31447836  0.30994835  1
  Zn  Zn116  1  0.31735628  0.31158685  0.81096384  1
  Zn  Zn117  1  0.30988905  0.81125595  0.31141349  1
  Zn  Zn118  1  0.31172687  0.81345457  0.80916658  1
  Zn  Zn119  1  0.81514318  0.31446770  0.31660602  1
  Zn  Zn120  1  0.80998073  0.31186119  0.81351978  1
  Zn  Zn121  1  0.81662790  0.80966393  0.31164018  1
  Zn  Zn122  1  0.81272971  0.80990603  0.81569094  1
  Zn  Zn123  1  0.18897338  0.43875200  0.44220818  1
  Zn  Zn124  1  0.22367815  0.45186316  0.95571212  1
  Zn  Zn125  1  0.18857750  0.94366187  0.43731559  1
  Zn  Zn126  1  0.18353584  0.94726967  0.93484964  1
  Zn  Zn127  1  0.69089206  0.43555272  0.44016968  1
  Zn  Zn128  1  0.68678448  0.43650112  0.93789331  1
  Zn  Zn129  1  0.68758332  0.93606676  0.43593719  1
  Zn  Zn130  1  0.68106547  0.93093855  0.93874780  1
  Zn  Zn131  1  0.30137453  0.07245853  0.05130323  1
  Zn  Zn132  1  0.30956115  0.06448917  0.56313181  1
  Zn  Zn133  1  0.30931814  0.56319861  0.06341817  1
  Zn  Zn134  1  0.31208688  0.56063222  0.55892839  1
  Zn  Zn135  1  0.81417488  0.06237983  0.06308211  1
  Zn  Zn136  1  0.81199153  0.05901167  0.56296514  1
  Zn  Zn137  1  0.80744748  0.56171237  0.06224364  1
  Zn  Zn138  1  0.81127811  0.56079931  0.56234446  1
  Zn  Zn139  1  0.43594863  0.43818639  0.18432227  1
  Zn  Zn140  1  0.44180632  0.43474452  0.69156922  1
  Zn  Zn141  1  0.43688843  0.93773107  0.19078925  1
  Zn  Zn142  1  0.44046947  0.93231538  0.68115009  1
  Zn  Zn143  1  0.93845988  0.43536001  0.19093120  1
  Zn  Zn144  1  0.93635949  0.43941318  0.68604345  1
  Zn  Zn145  1  0.94066144  0.93643419  0.18646902  1
  Zn  Zn146  1  0.93891844  0.93692979  0.68400556  1
  Zn  Zn147  1  0.06276598  0.06329662  0.31086931  1
  Zn  Zn148  1  0.06650853  0.07122972  0.81687664  1
  Zn  Zn149  1  0.06295021  0.55703243  0.31185374  1
  Zn  Zn150  1  0.06370478  0.56042185  0.81299231  1
  Zn  Zn151  1  0.56518136  0.06711775  0.31237279  1
  Zn  Zn152  1  0.55959485  0.06351452  0.80753282  1
  Zn  Zn153  1  0.56504448  0.56324293  0.30663553  1
  Zn  Zn154  1  0.56092533  0.55995884  0.81181136  1
  Zn  Zn155  1  0.43896709  0.19091572  0.43807112  1
  Zn  Zn156  1  0.42631869  0.18304624  0.93530542  1
  Zn  Zn157  1  0.40814074  0.70147134  0.42330753  1
  Zn  Zn158  1  0.42881208  0.69073694  0.94364870  1
  Zn  Zn159  1  0.93447954  0.18610739  0.44024194  1
  Zn  Zn160  1  0.93256867  0.19371870  0.92827588  1
  Zn  Zn161  1  0.93995640  0.68396822  0.43677339  1
  Zn  Zn162  1  0.94039175  0.68831145  0.93852690  1
  Zn  Zn163  1  0.05846820  0.34044046  0.06451671  1
  Zn  Zn164  1  0.06230091  0.31309593  0.57000409  1
  Zn  Zn165  1  0.05916777  0.80823643  0.06382905  1
  Zn  Zn166  1  0.06257115  0.81106074  0.56293177  1
  Zn  Zn167  1  0.56179854  0.31196819  0.06137374  1
  Zn  Zn168  1  0.56477087  0.31696586  0.55804053  1
  Zn  Zn169  1  0.55450603  0.80498402  0.06122662  1
  Zn  Zn170  1  0.55792770  0.81149102  0.55798552  1
  O  O171  1  0.11745548  0.12294532  0.12757648  1
  O  O172  1  0.11377379  0.11749423  0.61906641  1
  O  O173  1  0.11905076  0.61398505  0.12227455  1
  O  O174  1  0.12192966  0.61261178  0.62300761  1
  O  O175  1  0.61824294  0.11189335  0.12229589  1
  O  O176  1  0.62986968  0.11718874  0.61189101  1
  O  O177  1  0.62596370  0.61360739  0.12378727  1
  O  O178  1  0.61657210  0.61856821  0.61741614  1
  O  O179  1  0.38185599  0.38455033  0.37830595  1
  O  O180  1  0.39336083  0.37134242  0.86875819  1
  O  O181  1  0.38532290  0.89406076  0.37633118  1
  O  O182  1  0.38386986  0.87435200  0.87935115  1
  O  O183  1  0.86842996  0.37782578  0.39623807  1
  O  O184  1  0.87616200  0.38244101  0.88254138  1
  O  O185  1  0.88154628  0.87509064  0.38273151  1
  O  O186  1  0.88319508  0.87102993  0.88629749  1
  O  O187  1  0.26162013  0.01323271  0.37804439  1
  O  O188  1  0.25094806  -0.00454943  0.86294498  1
  O  O189  1  0.26248129  0.49726673  0.37406455  1
  O  O190  1  0.23905212  0.50626571  0.85398560  1
  O  O191  1  0.75081969  0.00346957  0.36577158  1
  O  O192  1  0.73932920  0.00418735  0.86745073  1
  O  O193  1  0.74844031  0.50497991  0.36665755  1
  O  O194  1  0.75498556  0.50930470  0.87513847  1
  O  O195  1  0.23815398  0.48391657  0.12848257  1
  O  O196  1  0.24655628  0.49293623  0.63262423  1
  O  O197  1  0.22998991  1.01020499  0.11992754  1
  O  O198  1  0.23627899  0.99357201  0.62050368  1
  O  O199  1  0.74466396  0.49165647  0.13122978  1
  O  O200  1  0.73719203  0.50166715  0.62956389  1
  O  O201  1  0.74320130  0.99397105  0.13024650  1
  O  O202  1  0.74383327  0.99124356  0.63231960  1
  O  O203  1  0.00925208  0.36089373  0.24724094  1
  O  O204  1  0.00375521  0.37335167  0.75547222  1
  O  O205  1  -0.00084125  0.86297727  0.25774623  1
  O  O206  1  0.00338023  0.86808275  0.75630388  1
  O  O207  1  0.49504225  0.36209908  0.25638915  1
  O  O208  1  0.51326832  0.36867029  0.75631766  1
  O  O209  1  0.49558155  0.86803233  0.26217481  1
  O  O210  1  0.50458193  0.86917764  0.75551970  1
  O  O211  1  0.49446453  0.13366338  0.24485468  1
  O  O212  1  0.48994669  0.12762337  0.74171400  1
  O  O213  1  0.49571510  0.63510721  0.25035322  1
  O  O214  1  0.50512585  0.63213505  0.73896768  1
  O  O215  1  0.99427756  0.14209498  0.25709292  1
  O  O216  1  0.99707205  0.13479106  0.74402686  1
  O  O217  1  0.99306875  0.62649488  0.24608877  1
  O  O218  1  0.99930223  0.63822661  0.75016029  1
  O  O219  1  0.39001086  0.25697477  0.01425008  1
  O  O220  1  0.37263513  0.25803576  0.50867914  1
  O  O221  1  0.36767124  0.76787893  0.00599440  1
  O  O222  1  0.39883004  0.75957089  0.52265602  1
  O  O223  1  0.86821094  0.25610629  0.00775254  1
  O  O224  1  0.86808960  0.25918602  0.50014338  1
  O  O225  1  0.86937677  0.75978347  0.00208535  1
  O  O226  1  0.86916254  0.75270961  0.50520437  1
  O  O227  1  0.12675727  0.23937199  0.50672142  1
  O  O228  1  0.10419050  0.24239483  1.01574306  1
  O  O229  1  0.12100882  0.73254363  0.50226219  1
  O  O230  1  0.12230178  0.74581675  0.98999266  1
  O  O231  1  0.63185376  0.24313049  0.49464082  1
  O  O232  1  0.63134601  0.24500083  0.99329306  1
  O  O233  1  0.62810888  0.74214279  0.49144160  1
  O  O234  1  0.65182788  0.77498226  1.00143053  1
  O  O235  1  0.49686292  0.24639397  0.13352167  1
  O  O236  1  0.48816157  0.25584607  0.62041729  1
  O  O237  1  0.48998459  0.76161367  0.14542388  1
  O  O238  1  0.49971778  0.74189984  0.63372880  1
  O  O239  1  0.99483956  0.24405618  0.12361039  1
  O  O240  1  0.99675425  0.24019255  0.63050677  1
  O  O241  1  0.99858864  0.73593945  0.13440031  1
  O  O242  1  0.99231534  0.75030079  0.63371369  1
  O  O243  1  -0.00240944  0.25425844  0.37007310  1
  O  O244  1  -0.00506365  0.26719466  0.86590630  1
  O  O245  1  -0.00621697  0.75777504  0.36623387  1
  O  O246  1  0.00751673  0.75938216  0.86848618  1
  O  O247  1  0.50801960  0.25732479  0.36862110  1
  O  O248  1  0.51126363  0.25363162  0.87518099  1
  O  O249  1  0.50363452  0.75778266  0.36602487  1
  O  O250  1  0.49591266  0.75664485  0.85912502  1
  O  O251  1  0.24047134  0.12876829  0.49498312  1
  O  O252  1  0.27428910  0.14786536  0.97584153  1
  O  O253  1  0.23142652  0.62237723  0.50458086  1
  O  O254  1  0.23328128  0.63324833  0.99860569  1
  O  O255  1  0.74603557  0.13016640  0.49501957  1
  O  O256  1  0.74697498  0.12708080  0.99330831  1
  O  O257  1  0.74176241  0.63027322  0.49400410  1
  O  O258  1  0.75517343  0.63666684  0.98987113  1
  O  O259  1  0.22942190  0.35306684  0.01805871  1
  O  O260  1  0.26110655  0.37503136  0.50794276  1
  O  O261  1  0.26010814  0.87839117  -0.00526626  1
  O  O262  1  0.24731140  0.87412021  0.51036891  1
  O  O263  1  0.75810455  0.36736675  0.00699435  1
  O  O264  1  0.75693358  0.36465561  0.50552889  1
  O  O265  1  0.76085586  0.87755199  0.00961154  1
  O  O266  1  0.75495318  0.86695238  0.50379093  1
  O  O267  1  0.11872245  0.48341244  0.24518127  1
  O  O268  1  0.12730028  0.49235907  0.74064555  1
  O  O269  1  0.12258705  0.99933079  0.23496068  1
  O  O270  1  0.11293393  0.98946708  0.74119346  1
  O  O271  1  0.63782750  0.50230995  0.24020141  1
  O  O272  1  0.62735363  0.49168603  0.74297043  1
  O  O273  1  0.63819585  1.00499947  0.24324056  1
  O  O274  1  0.63050011  0.99064965  0.74429488  1
  O  O275  1  0.37779216  0.01438813  0.25669567  1
  O  O276  1  0.38479561  0.00894801  0.74369839  1
  O  O277  1  0.37815446  0.50756823  0.25852626  1
  O  O278  1  0.36225447  0.49605493  0.75028840  1
  O  O279  1  0.86563847  0.00572558  0.24705171  1
  O  O280  1  0.86037929  -0.00499096  0.74711883  1
  O  O281  1  0.86850222  0.50774473  0.25165137  1
  O  O282  1  0.87112629  0.50154514  0.76204678  1
  O  O283  1  0.13043797  0.37716984  0.36448536  1
  O  O284  1  0.11609450  0.38206043  0.86575828  1
  O  O285  1  0.11407326  0.87847794  0.37463369  1
  O  O286  1  0.11646049  0.86985850  0.86671317  1
  O  O287  1  0.61976449  0.36272566  0.38192095  1
  O  O288  1  0.62147623  0.36660537  0.86848180  1
  O  O289  1  0.62043192  0.86196070  0.37670719  1
  O  O290  1  0.60843779  0.85912908  0.87627587  1
  O  O291  1  0.37930126  0.13157820  0.13183075  1
  O  O292  1  0.37701638  0.13844661  0.62228058  1
  O  O293  1  0.37228287  0.62157102  0.13912851  1
  O  O294  1  0.38638821  0.62906213  0.61823779  1
  O  O295  1  0.86784890  0.14020356  0.13167765  1
  O  O296  1  0.88888305  0.11492099  0.62744775  1
  O  O297  1  0.88214147  0.62185691  0.13120256  1
  O  O298  1  0.87621869  0.63382144  0.62733312  1
  O  O299  1  0.25996630  0.25601885  0.13195142  1
  O  O300  1  0.26101448  0.26552069  0.62819263  1
  O  O301  1  0.25221204  0.75337010  0.12852162  1
  O  O302  1  0.25770765  0.75588566  0.61775033  1
  O  O303  1  0.75553327  0.25592558  0.12411590  1
  O  O304  1  0.74589775  0.24732409  0.61417361  1
  O  O305  1  0.75426323  0.75771278  0.12141608  1
  O  O306  1  0.75343459  0.75289907  0.62076009  1
  O  O307  1  0.25901836  0.23621688  0.37704014  1
  O  O308  1  0.23347736  0.24541858  0.83765922  1
  O  O309  1  0.30307498  0.74763354  0.40077175  1
  O  O310  1  0.23483569  0.75010791  0.87050893  1
  O  O311  1  0.74342065  0.24580117  0.38208540  1
  O  O312  1  0.73953396  0.24226426  0.87977466  1
  O  O313  1  0.74063728  0.74484434  0.37675996  1
  O  O314  1  0.74619793  0.74345886  0.88468071  1
  O  O315  1  -0.00937541  0.11993243  0.00097697  1
  O  O316  1  0.00453473  0.12106229  0.50598793  1
  O  O317  1  0.01047719  0.62879425  0.01028089  1
  O  O318  1  0.00909118  0.61593350  0.50188421  1
  O  O319  1  0.49741812  0.11430388  0.00488945  1
  O  O320  1  0.51116383  0.11654123  0.49223779  1
  O  O321  1  0.53133710  0.70277219  -0.00957375  1
  O  O322  1  0.50957893  0.62872428  0.50656937  1
  O  O323  1  0.48958605  0.37113871  0.48834444  1
  O  O324  1  0.50572505  0.37320798  0.98399732  1
  O  O325  1  0.50238787  0.88541772  0.48563612  1
  O  O326  1  0.48893101  0.88101746  0.99264237  1
  O  O327  1  0.98975362  0.37919256  0.50587263  1
  O  O328  1  0.98316636  0.37547506  0.99093048  1
  O  O329  1  0.99554816  0.87725819  0.49285354  1
  O  O330  1  0.99384923  0.88107421  0.99458060  1
  O  O331  1  0.50400580  0.48619042  0.36703455  1
  O  O332  1  0.50159768  0.48415729  0.87268303  1
  O  O333  1  0.49899280  0.99707751  0.37971056  1
  O  O334  1  0.49938444  0.99155250  0.88181863  1
  O  O335  1  0.99787350  0.49933337  0.38866465  1
  O  O336  1  0.99005437  0.48907543  0.87050388  1
  O  O337  1  0.99806412  0.99149783  0.38044955  1
  O  O338  1  1.00312565  0.98887247  0.88257248  1
  O  O339  1  0.01036335  0.00170572  0.11753650  1
  O  O340  1  0.00884455  0.00332049  0.61811931  1
  O  O341  1  0.00853091  0.50803214  0.12979132  1
  O  O342  1  0.00844767  0.50076665  0.61607920  1
  O  O343  1  0.50590232  0.00208986  0.12036920  1
  O  O344  1  0.50812381  -0.00778496  0.60852945  1
  O  O345  1  0.51674884  0.49237351  0.12685948  1
  O  O346  1  0.51075703  0.50712159  0.63028462  1
  O  O347  1  0.23340938  0.36472935  0.24388019  1
  O  O348  1  0.24360096  0.38633124  0.74338831  1
  O  O349  1  0.24961165  0.88525845  0.25959683  1
  O  O350  1  0.23842069  0.86873258  0.73547157  1
  O  O351  1  0.75867253  0.38348815  0.24133786  1
  O  O352  1  0.73796586  0.37481327  0.74869831  1
  O  O353  1  0.75713499  0.88089809  0.23803491  1
  O  O354  1  0.74332585  0.87716289  0.74840028  1
  O  O355  1  0.25767096  0.12165214  0.25766821  1
  O  O356  1  0.27450365  0.12140104  0.73576441  1
  O  O357  1  0.26218663  0.62249381  0.25460771  1
  O  O358  1  0.24751716  0.61288534  0.74494324  1
  O  O359  1  0.75723308  0.11809655  0.25543658  1
  O  O360  1  0.75030414  0.11272899  0.75622074  1
  O  O361  1  0.75704813  0.61808620  0.25405276  1
  O  O362  1  0.75193622  0.62723415  0.76484437  1
  O  O363  1  0.37363380  0.11995886  0.36884197  1
  O  O364  1  0.38016536  0.11908233  0.85349900  1
  O  O365  1  0.38663292  0.60482069  0.36425488  1
  O  O366  1  0.37370480  0.62094465  0.88152658  1
  O  O367  1  0.86812769  0.12195024  0.36897204  1
  O  O368  1  0.85758803  0.12780160  0.87066235  1
  O  O369  1  0.86754810  0.62057014  0.36787760  1
  O  O370  1  0.86986312  0.61865019  0.87594096  1
  O  O371  1  0.13145762  0.37951760  0.13790348  1
  O  O372  1  0.13533364  0.38697255  0.62641907  1
  O  O373  1  0.11966118  0.88442451  0.12906910  1
  O  O374  1  0.12836221  0.88182062  0.63077294  1
  O  O375  1  0.63749726  0.37436509  0.12390636  1
  O  O376  1  0.62610565  0.38254278  0.63039427  1
  O  O377  1  0.63237311  0.88573046  0.12224694  1
  O  O378  1  0.63064790  0.87713621  0.62863816  1
  O  O379  1  0.11179957  0.25810780  0.25201687  1
  O  O380  1  0.10707884  0.27029549  0.73353329  1
  O  O381  1  0.11260524  0.74527012  0.25188250  1
  O  O382  1  0.11641921  0.75966883  0.75209667  1
  O  O383  1  0.61744207  0.24250232  0.26050103  1
  O  O384  1  0.62453494  0.25472834  0.75725414  1
  O  O385  1  0.61271177  0.74336122  0.25796453  1
  O  O386  1  0.61430576  0.75544826  0.75072474  1
  O  O387  1  0.38389492  0.24077020  0.24727941  1
  O  O388  1  0.38183315  0.24534953  0.73317453  1
  O  O389  1  0.38419071  0.73207255  0.25376538  1
  O  O390  1  0.38403821  0.75548916  0.73520016  1
  O  O391  1  0.88725940  0.25096802  0.24485212  1
  O  O392  1  0.88543072  0.25161817  0.75046947  1
  O  O393  1  0.88084232  0.73459140  0.24857335  1
  O  O394  1  0.88293633  0.75091719  0.74378964  1
  O  O395  1  0.37468292  0.49342934  0.48571144  1
  O  O396  1  0.33052278  0.48276912  0.99064376  1
  O  O397  1  0.38411336  1.00278156  0.49365729  1
  O  O398  1  0.38157607  0.99232494  0.99710840  1
  O  O399  1  0.88266885  0.49261261  0.49956106  1
  O  O400  1  0.86708653  0.49198555  0.98947384  1
  O  O401  1  0.88146855  0.98996550  0.49883012  1
  O  O402  1  0.88680358  0.99175103  1.00699522  1
  O  O403  1  0.11110983  -0.00457598  0.01143085  1
  O  O404  1  0.11825756  0.00959004  0.50773769  1
  O  O405  1  0.12986400  0.50586173  0.01105668  1
  O  O406  1  0.11858761  0.50608644  0.50567472  1
  O  O407  1  0.61135349  -0.00267782  0.00695621  1
  O  O408  1  0.62103301  0.00748953  0.50194145  1
  O  O409  1  0.63143699  0.49876368  0.01408834  1
  O  O410  1  0.62877022  0.50838571  0.50761687  1
  O  O411  1  0.35788641  0.36771301  0.13320489  1
  O  O412  1  0.37358952  0.37194723  0.61713688  1
  O  O413  1  0.37450271  0.88219161  0.11235399  1
  O  O414  1  0.36374024  0.87068261  0.62207358  1
  O  O415  1  0.87026679  0.36687708  0.11908451  1
  O  O416  1  0.87001788  0.38132889  0.61009604  1
  O  O417  1  0.86925315  0.87221662  0.11683629  1
  O  O418  1  0.86921473  0.86639339  0.61691900  1
  O  O419  1  0.13363364  0.11887661  0.38575628  1
  O  O420  1  0.12946622  0.13032211  0.88300742  1
  O  O421  1  0.12447170  0.62057082  0.38587842  1
  O  O422  1  0.12136845  0.63249069  0.88276453  1
  O  O423  1  0.63118601  0.13444986  0.38455394  1
  O  O424  1  0.63202118  0.13088600  0.87450182  1
  O  O425  1  0.62745426  0.63244206  0.38078608  1
  O  O426  1  0.62984468  0.63429360  0.87333542  1
