# generated using pymatgen
data_V85Zn86O256
_symmetry_space_group_name_H-M   'P 1'
_cell_length_a   16.97260642
_cell_length_b   16.96676182
_cell_length_c   16.94734107
_cell_angle_alpha   90.06503310
_cell_angle_beta   90.04230943
_cell_angle_gamma   89.93873119
_symmetry_Int_Tables_number   1
_chemical_formula_structural   V85Zn86O256
_chemical_formula_sum   'V85 Zn86 O256'
_cell_volume   4880.32143802
_cell_formula_units_Z   1
loop_
 _symmetry_equiv_pos_site_id
 _symmetry_equiv_pos_as_xyz
  1  'x, y, z'
loop_
 _atom_site_type_symbol
 _atom_site_label
 _atom_site_symmetry_multiplicity
 _atom_site_fract_x
 _atom_site_fract_y
 _atom_site_fract_z
 _atom_site_occupancy
  V  V0  1  0.37268872  0.37328705  -0.00186124  1
  V  V1  1  0.25229223  0.49788087  0.24881811  1
  V  V2  1  0.50169921  0.49839114  -0.00212424  1
  V  V3  1  0.62515048  0.11280132  -0.00317116  1
  V  V4  1  0.62558183  0.37331025  0.75377468  1
  V  V5  1  0.86719032  0.12464124  0.26505341  1
  V  V6  1  0.37375680  0.89247242  -0.00996767  1
  V  V7  1  -0.00312274  -0.01190388  0.50508508  1
  V  V8  1  0.90060269  0.14473340  0.71366061  1
  V  V9  1  0.37522782  0.37695828  0.49972424  1
  V  V10  1  0.87491565  0.37821333  -0.00504745  1
  V  V11  1  -0.00819408  0.87084660  0.37136346  1
  V  V12  1  0.24532663  0.87370546  0.63754097  1
  V  V13  1  0.74960446  0.36416231  0.62603362  1
  V  V14  1  0.50679010  0.87026008  0.37620427  1
  V  V15  1  0.75333891  0.75356685  0.00334558  1
  V  V16  1  0.75209645  0.37388301  0.12308062  1
  V  V17  1  0.11307356  0.00416134  0.12832873  1
  V  V18  1  0.37001309  0.87224300  0.50042380  1
  V  V19  1  0.50133287  0.62539215  0.12331895  1
  V  V20  1  0.88392021  0.87982383  -0.00598661  1
  V  V21  1  0.24801066  0.50213545  0.75031767  1
  V  V22  1  0.24957251  0.37548598  0.62539682  1
  V  V23  1  0.87005110  0.75580891  0.63078839  1
  V  V24  1  0.37602955  0.12416518  0.24855447  1
  V  V25  1  0.37761910  0.24769326  0.63175778  1
  V  V26  1  0.51529225  0.88666180  0.87766413  1
  V  V27  1  0.12932959  0.25137298  0.88135071  1
  V  V28  1  0.87991552  0.62209373  0.76301982  1
  V  V29  1  0.88021041  0.23972580  0.12345944  1
  V  V30  1  0.24920002  0.36997160  0.12191869  1
  V  V31  1  0.62588070  0.50093534  0.62803767  1
  V  V32  1  0.89354162  0.74733085  0.13185487  1
  V  V33  1  0.50571076  0.37302794  0.37349509  1
  V  V34  1  -0.00140616  0.62358195  0.63353212  1
  V  V35  1  0.25574258  0.12397293  0.88514681  1
  V  V36  1  0.37450587  0.50119023  0.37414148  1
  V  V37  1  0.62607927  0.24485931  0.87522777  1
  V  V38  1  -0.00625804  0.37412638  0.37678869  1
  V  V39  1  -0.00768017  0.37550915  0.87081386  1
  V  V40  1  0.11739958  0.50369306  0.11907918  1
  V  V41  1  0.12595565  -0.00050572  0.62926856  1
  V  V42  1  0.37578277  0.62674164  0.24827008  1
  V  V43  1  0.75090976  0.23985160  -0.00036046  1
  V  V44  1  0.49970040  0.50093511  0.50081437  1
  V  V45  1  0.12557099  0.37160326  0.24986961  1
  V  V46  1  -0.01347226  0.50088768  0.50173205  1
  V  V47  1  0.12624402  0.76708464  0.88015334  1
  V  V48  1  0.09449620  0.14186204  0.51612859  1
  V  V49  1  0.51264099  0.74884433  0.76203176  1
  V  V50  1  0.37202557  0.75094849  0.11052576  1
  V  V51  1  0.37516992  -0.00467753  0.37644731  1
  V  V52  1  0.24357817  0.62733520  0.88550933  1
  V  V53  1  0.00191776  0.24001431  0.24947939  1
  V  V54  1  0.12144926  0.36722429  0.75075658  1
  V  V55  1  0.50096271  0.11474638  0.11995651  1
  V  V56  1  0.11795256  0.13087904  0.00632302  1
  V  V57  1  0.37437260  0.11210326  0.75366085  1
  V  V58  1  0.73445236  0.25168314  0.47559026  1
  V  V59  1  0.75621919  0.49626321  0.75809969  1
  V  V60  1  0.25725994  0.24499346  0.49966503  1
  V  V61  1  0.50918364  0.24906169  0.24957223  1
  V  V62  1  0.74933950  0.75382512  0.50220711  1
  V  V63  1  0.50252657  0.62606262  0.62778519  1
  V  V64  1  0.62444409  0.62914263  0.49172746  1
  V  V65  1  0.24963458  -0.00275347  0.24712267  1
  V  V66  1  0.37352233  0.74926628  0.63145405  1
  V  V67  1  0.62904164  0.49887408  0.12552760  1
  V  V68  1  0.12022521  0.62759655  0.50144721  1
  V  V69  1  0.76249740  0.50279482  0.25124588  1
  V  V70  1  0.06655162  0.70551233  0.31628554  1
  V  V71  1  0.12406757  0.87457526  0.25613512  1
  V  V72  1  0.24509983  0.74990389  0.49923220  1
  V  V73  1  0.86778819  0.37185268  0.50150457  1
  V  V74  1  0.76015283  0.62326150  0.37526402  1
  V  V75  1  0.12915023  0.25108795  0.37566864  1
  V  V76  1  0.62603125  0.87309388  0.24909753  1
  V  V77  1  0.00394946  0.76848390  0.75726108  1
  V  V78  1  0.50239775  0.74766419  0.25249652  1
  V  V79  1  0.62779467  0.63287296  -0.00440468  1
  V  V80  1  0.37579669  0.24884900  0.12008598  1
  V  V81  1  0.60953197  0.12632000  0.48716029  1
  V  V82  1  0.74897476  0.63270694  0.86990296  1
  V  V83  1  0.24806430  0.62883200  0.37515782  1
  V  V84  1  0.24926471  0.12281405  0.37865130  1
  Zn  Zn85  1  0.11424221  0.63681092  0.00482081  1
  Zn  Zn86  1  0.66676242  -0.03919016  0.66270053  1
  Zn  Zn87  1  0.74041675  0.00708903  0.25950557  1
  Zn  Zn88  1  0.75577330  0.04753615  0.77816321  1
  Zn  Zn89  1  0.49712325  0.25097667  0.75450473  1
  Zn  Zn90  1  0.37284984  0.50050873  0.87503670  1
  Zn  Zn91  1  0.12198358  0.49766312  0.62492556  1
  Zn  Zn92  1  0.49815314  0.37560630  0.87413148  1
  Zn  Zn93  1  0.75326745  0.87691053  0.12753027  1
  Zn  Zn94  1  0.87102496  -0.00315596  0.37967326  1
  Zn  Zn95  1  0.63216052  0.37143196  0.25292270  1
  Zn  Zn96  1  0.50714854  0.11513410  0.63271773  1
  Zn  Zn97  1  0.24486933  -0.00365893  0.75902143  1
  Zn  Zn98  1  0.88150864  0.02917231  0.86775535  1
  Zn  Zn99  1  0.49769313  -0.00640172  0.51444507  1
  Zn  Zn100  1  -0.01036264  0.50701979  -0.00537111  1
  Zn  Zn101  1  0.82253649  0.91612964  0.56191309  1
  Zn  Zn102  1  0.24681049  0.87121931  0.11793970  1
  Zn  Zn103  1  0.00240669  -0.00068186  -0.00870210  1
  Zn  Zn104  1  0.37202304  0.62378837  0.75330785  1
  Zn  Zn105  1  0.62687439  -0.00440315  0.12470195  1
  Zn  Zn106  1  0.89059219  0.62635623  0.24808932  1
  Zn  Zn107  1  0.19025807  0.18657662  0.18657888  1
  Zn  Zn108  1  0.18958885  0.18502593  0.69186183  1
  Zn  Zn109  1  0.19433975  0.68474029  0.18056016  1
  Zn  Zn110  1  0.18235422  0.68871692  0.69223010  1
  Zn  Zn111  1  0.68887607  0.18494609  0.18440701  1
  Zn  Zn112  1  0.67860247  0.17317159  0.68514836  1
  Zn  Zn113  1  0.68974893  0.68849994  0.18739930  1
  Zn  Zn114  1  0.68669208  0.79882457  0.69162110  1
  Zn  Zn115  1  0.31884293  0.31167094  0.30993752  1
  Zn  Zn116  1  0.30832991  0.31046237  0.81504067  1
  Zn  Zn117  1  0.31207118  0.81010061  0.30991321  1
  Zn  Zn118  1  0.31419365  0.81002491  0.81818565  1
  Zn  Zn119  1  0.81794273  0.31687078  0.31001600  1
  Zn  Zn120  1  0.81962243  0.24000263  0.81244605  1
  Zn  Zn121  1  0.80907102  0.80446393  0.31503816  1
  Zn  Zn122  1  0.80533994  0.82663715  0.81455769  1
  Zn  Zn123  1  0.18527121  0.44035152  0.43982783  1
  Zn  Zn124  1  0.18863591  0.43673464  0.93692353  1
  Zn  Zn125  1  0.18146560  0.93828675  0.44170690  1
  Zn  Zn126  1  0.19041510  0.94362059  0.94376086  1
  Zn  Zn127  1  0.68633816  0.44310837  0.43576373  1
  Zn  Zn128  1  0.69178204  0.43564286  0.93652800  1
  Zn  Zn129  1  0.70066683  0.96015975  0.45818220  1
  Zn  Zn130  1  0.69887158  0.93797539  0.93069881  1
  Zn  Zn131  1  0.30871008  0.06165616  0.06241732  1
  Zn  Zn132  1  0.31467267  0.05983559  0.56743485  1
  Zn  Zn133  1  0.31071236  0.55981001  0.06153158  1
  Zn  Zn134  1  0.31092886  0.56352118  0.56481863  1
  Zn  Zn135  1  0.81060766  0.05707711  0.07207028  1
  Zn  Zn136  1  0.79617159  0.09009457  0.56911993  1
  Zn  Zn137  1  0.81620996  0.56750777  0.06345743  1
  Zn  Zn138  1  0.80936588  0.56697800  0.57185167  1
  Zn  Zn139  1  0.43967596  0.43644854  0.18579887  1
  Zn  Zn140  1  0.43624768  0.43658539  0.68978625  1
  Zn  Zn141  1  0.43684499  0.93257103  0.18591330  1
  Zn  Zn142  1  0.44434831  0.93095369  0.69284138  1
  Zn  Zn143  1  0.93720832  0.43045424  0.18515504  1
  Zn  Zn144  1  0.93372982  0.43107216  0.68904793  1
  Zn  Zn145  1  0.93600524  0.93448336  0.18940832  1
  Zn  Zn146  1  0.93648117  0.95052401  0.69899024  1
  Zn  Zn147  1  0.06135498  0.06147719  0.32382190  1
  Zn  Zn148  1  0.05566310  0.06961191  0.81108477  1
  Zn  Zn149  1  0.06375378  0.54259835  0.31407756  1
  Zn  Zn150  1  0.06559628  0.55781339  0.81788034  1
  Zn  Zn151  1  0.56098728  0.06027576  0.31689027  1
  Zn  Zn152  1  0.56715042  0.06393663  0.80501508  1
  Zn  Zn153  1  0.56566910  0.55958992  0.31141781  1
  Zn  Zn154  1  0.56506535  0.56436659  0.81319737  1
  Zn  Zn155  1  0.43804056  0.18790210  0.43322326  1
  Zn  Zn156  1  0.44165951  0.18638553  0.93745299  1
  Zn  Zn157  1  0.43465926  0.68861085  0.43896048  1
  Zn  Zn158  1  0.43528328  0.68249083  0.93516110  1
  Zn  Zn159  1  0.93576250  0.19215857  0.45923031  1
  Zn  Zn160  1  0.94630775  0.19105918  0.93492470  1
  Zn  Zn161  1  0.92789158  0.68536465  0.44491355  1
  Zn  Zn162  1  0.94083962  0.69189127  0.94131430  1
  Zn  Zn163  1  0.06015960  0.31268244  0.06018317  1
  Zn  Zn164  1  0.06300611  0.31501919  0.56251889  1
  Zn  Zn165  1  0.06440430  0.81697988  0.06490369  1
  Zn  Zn166  1  0.06129758  0.81175830  0.56788359  1
  Zn  Zn167  1  0.56359522  0.30946230  0.06210899  1
  Zn  Zn168  1  0.56417739  0.30878394  0.56565408  1
  Zn  Zn169  1  0.55933048  0.81499976  0.05879749  1
  Zn  Zn170  1  0.55913429  0.81092060  0.56017708  1
  O  O171  1  0.13436131  0.11695219  0.11773143  1
  O  O172  1  0.13637443  0.12047368  0.61128507  1
  O  O173  1  0.13368763  0.60753184  0.12232564  1
  O  O174  1  0.11229619  0.62299078  0.62054602  1
  O  O175  1  0.61600136  0.12304480  0.11755070  1
  O  O176  1  0.61157459  0.15461326  0.59525013  1
  O  O177  1  0.62136784  0.61672245  0.11707194  1
  O  O178  1  0.60864067  0.61726494  0.61614864  1
  O  O179  1  0.38151220  0.38376153  0.37881007  1
  O  O180  1  0.37543865  0.37679139  0.88477378  1
  O  O181  1  0.37690232  0.87992642  0.37890070  1
  O  O182  1  0.38046720  0.87321780  0.88701611  1
  O  O183  1  0.88361025  0.37554230  0.38582838  1
  O  O184  1  0.88597910  0.35962789  0.88432595  1
  O  O185  1  0.88915725  0.86867025  0.36731739  1
  O  O186  1  0.87738171  0.86734484  0.89470000  1
  O  O187  1  0.25654164  0.00140851  0.36766982  1
  O  O188  1  0.24332858  0.01943747  0.87452121  1
  O  O189  1  0.25349637  0.50644609  0.36913884  1
  O  O190  1  0.24770241  0.51065738  0.86863221  1
  O  O191  1  0.75929226  -0.00909668  0.36947813  1
  O  O192  1  0.77041508  0.00270480  0.87821074  1
  O  O193  1  0.74530414  0.50682149  0.36085164  1
  O  O194  1  0.74761726  0.50528192  0.86308930  1
  O  O195  1  0.24571597  0.48799494  0.13001556  1
  O  O196  1  0.24581801  0.49453104  0.63167608  1
  O  O197  1  0.24547592  0.99829992  0.13813764  1
  O  O198  1  0.24394174  0.98894620  0.62592293  1
  O  O199  1  0.74418288  0.49710043  0.12927064  1
  O  O200  1  0.74186412  0.49664003  0.63568598  1
  O  O201  1  0.74558370  0.99410237  0.14172847  1
  O  O202  1  0.74134210  0.99354424  0.57604131  1
  O  O203  1  0.00399049  0.36782286  0.26035488  1
  O  O204  1  0.01060169  0.37882755  0.75606123  1
  O  O205  1  0.01051900  0.87352198  0.25855379  1
  O  O206  1  -0.00137353  0.86612671  0.75132021  1
  O  O207  1  0.50070586  0.36752156  0.25508775  1
  O  O208  1  0.51081594  0.37475291  0.75268959  1
  O  O209  1  0.50314714  0.86509035  0.25512004  1
  O  O210  1  0.49423749  0.85774025  0.76774231  1
  O  O211  1  0.49318048  0.13191602  0.24361302  1
  O  O212  1  0.48717339  0.13223711  0.75175606  1
  O  O213  1  0.49529071  0.62842991  0.24431387  1
  O  O214  1  0.49521095  0.63058204  0.74475447  1
  O  O215  1  0.99753231  0.13758227  0.25946261  1
  O  O216  1  0.99980984  0.13015042  0.73160815  1
  O  O217  1  1.00912530  0.63153719  0.26638360  1
  O  O218  1  0.99575255  0.62142992  0.74696432  1
  O  O219  1  0.38175048  0.25805124  0.01245171  1
  O  O220  1  0.36980269  0.25692683  0.50469214  1
  O  O221  1  0.37748069  0.74975171  0.00933987  1
  O  O222  1  0.36726959  0.75147585  0.51324328  1
  O  O223  1  0.86957531  0.25394870  0.00834506  1
  O  O224  1  0.85157957  0.26281395  0.49298984  1
  O  O225  1  0.87147110  0.75808732  0.01102662  1
  O  O226  1  0.86400722  0.74414357  0.51704055  1
  O  O227  1  0.14681555  0.25015620  0.49421543  1
  O  O228  1  0.12825388  0.24424192  0.99652749  1
  O  O229  1  0.12781946  0.73509263  0.50698456  1
  O  O230  1  0.12285941  0.75404401  0.98577083  1
  O  O231  1  0.63092834  0.26237993  0.48647834  1
  O  O232  1  0.63362344  0.24383449  0.99595402  1
  O  O233  1  0.63225734  0.73553970  0.50786826  1
  O  O234  1  0.63207166  0.73751357  1.00645205  1
  O  O235  1  0.49285343  0.24366464  0.13153620  1
  O  O236  1  0.48301411  0.25577787  0.62724971  1
  O  O237  1  0.48969906  0.74276911  0.12881428  1
  O  O238  1  0.49018496  0.74195955  0.63480184  1
  O  O239  1  0.99241376  0.25778585  0.13828790  1
  O  O240  1  1.01807611  0.21442543  0.54778372  1
  O  O241  1  0.99251021  0.75015618  0.12653210  1
  O  O242  1  0.99758653  0.74215583  0.63958041  1
  O  O243  1  0.00729578  0.26039834  0.37330286  1
  O  O244  1  0.02006169  0.26425175  0.88039930  1
  O  O245  1  0.00203089  0.75281540  0.38460412  1
  O  O246  1  0.01299705  0.75054886  0.86502846  1
  O  O247  1  0.48633980  0.26312431  0.36108028  1
  O  O248  1  0.51341252  0.25656369  0.87792733  1
  O  O249  1  0.48908904  0.75729286  0.36433156  1
  O  O250  1  0.49810381  0.74549076  0.86398068  1
  O  O251  1  0.26055449  0.13406804  0.49334784  1
  O  O252  1  0.24422399  0.12450242  0.99015412  1
  O  O253  1  0.23866219  0.62665026  0.49544833  1
  O  O254  1  0.24330089  0.62035408  0.98812045  1
  O  O255  1  0.73028445  0.14610956  0.48979889  1
  O  O256  1  0.74375215  0.13542728  1.01093578  1
  O  O257  1  0.74277070  0.62593128  0.49452520  1
  O  O258  1  0.74558118  0.62857328  0.99086252  1
  O  O259  1  0.26373367  0.38033714  0.00828407  1
  O  O260  1  0.25631911  0.37036313  0.50422457  1
  O  O261  1  0.26770642  0.87988994  0.00187070  1
  O  O262  1  0.25287747  0.86794995  0.50615450  1
  O  O263  1  0.75618282  0.36452838  0.00424893  1
  O  O264  1  0.75222877  0.37621173  0.50325373  1
  O  O265  1  0.75981706  0.86653097  0.00448279  1
  O  O266  1  0.74555410  0.85606130  0.49329513  1
  O  O267  1  0.13301051  0.49018609  0.23923067  1
  O  O268  1  0.13521801  0.48930989  0.74849973  1
  O  O269  1  0.13162758  0.99628673  0.24889057  1
  O  O270  1  0.12645123  1.01165685  0.73248297  1
  O  O271  1  0.63077989  0.49910206  0.23530823  1
  O  O272  1  0.63065907  0.49339318  0.74666325  1
  O  O273  1  0.61984730  0.98736235  0.25075411  1
  O  O274  1  0.65031683  1.05190405  0.72919511  1
  O  O275  1  0.36703691  0.00118258  0.25478310  1
  O  O276  1  0.36950311  0.01039412  0.74863506  1
  O  O277  1  0.37129178  0.50644782  0.25197149  1
  O  O278  1  0.36086668  0.49958422  0.75239360  1
  O  O279  1  0.88284157  0.01997522  0.25192026  1
  O  O280  1  0.87313926  0.03072015  0.74150845  1
  O  O281  1  0.86612424  0.50590097  0.23926007  1
  O  O282  1  0.86664283  0.50858650  0.74503699  1
  O  O283  1  0.12099455  0.36951590  0.37002251  1
  O  O284  1  0.12520323  0.36894461  0.86848426  1
  O  O285  1  0.12120731  0.87569812  0.36256634  1
  O  O286  1  0.13657355  0.86514685  0.87567685  1
  O  O287  1  0.60860209  0.38704506  0.36957271  1
  O  O288  1  0.62523694  0.37110423  0.86532487  1
  O  O289  1  0.60750477  0.87596191  0.36992395  1
  O  O290  1  0.61377485  0.87205824  0.88520886  1
  O  O291  1  0.37921287  0.13180712  0.12729913  1
  O  O292  1  0.37295943  0.13318749  0.63708436  1
  O  O293  1  0.37889961  0.63298076  0.12609589  1
  O  O294  1  0.38465630  0.63077828  0.62507903  1
  O  O295  1  0.87370978  0.13703850  0.13590424  1
  O  O296  1  0.88711695  0.13353833  0.61182580  1
  O  O297  1  0.87508735  0.64124595  0.12697455  1
  O  O298  1  0.88497600  0.63268354  0.63727172  1
  O  O299  1  0.25943166  0.26251007  0.13131222  1
  O  O300  1  0.25950438  0.25407455  0.61755493  1
  O  O301  1  0.26787596  0.75329140  0.12805432  1
  O  O302  1  0.25373985  0.75373154  0.62249767  1
  O  O303  1  0.75766611  0.25521951  0.11917711  1
  O  O304  1  0.73866146  0.26593275  0.61037566  1
  O  O305  1  0.75255727  0.74957173  0.11243687  1
  O  O306  1  0.76101145  0.74288278  0.61994645  1
  O  O307  1  0.25127347  0.24503983  0.38019600  1
  O  O308  1  0.23962605  0.23975038  0.87534078  1
  O  O309  1  0.25694452  0.74032056  0.38468648  1
  O  O310  1  0.23621322  0.73767647  0.86653846  1
  O  O311  1  0.74222449  0.26475670  0.37762181  1
  O  O312  1  0.73608637  0.25488841  0.88765581  1
  O  O313  1  0.75182474  0.73460260  0.38713709  1
  O  O314  1  0.75606088  0.74134013  0.88840734  1
  O  O315  1  0.01483826  0.12735082  0.00387691  1
  O  O316  1  0.00181782  0.09501148  0.47600987  1
  O  O317  1  0.00363014  0.61780804  -0.00534778  1
  O  O318  1  0.00176795  0.61853314  0.50838828  1
  O  O319  1  0.51119585  0.12949369  0.00941296  1
  O  O320  1  0.49947947  0.12458923  0.50192475  1
  O  O321  1  0.50847852  0.61819522  0.00312583  1
  O  O322  1  0.50497760  0.62187365  0.50489048  1
  O  O323  1  0.49376605  0.38010064  0.49273323  1
  O  O324  1  0.49136895  0.38270289  1.00242843  1
  O  O325  1  0.48802670  0.87087388  0.49083113  1
  O  O326  1  0.48933459  0.86947035  0.98498827  1
  O  O327  1  0.98970202  0.38182326  0.49783690  1
  O  O328  1  0.99013273  0.37760931  0.99362518  1
  O  O329  1  1.01395640  0.88203689  0.48811425  1
  O  O330  1  0.98778042  0.87773792  1.00525743  1
  O  O331  1  0.49241213  0.49561109  0.37933824  1
  O  O332  1  0.49894739  0.49983229  0.88765684  1
  O  O333  1  0.48370142  0.98908492  0.37242854  1
  O  O334  1  0.50844126  0.98531768  0.86482631  1
  O  O335  1  1.00351427  0.48358725  0.38747299  1
  O  O336  1  1.00641006  0.48086568  0.87796899  1
  O  O337  1  0.99722406  0.98391425  0.38060649  1
  O  O338  1  0.99247824  1.00807588  0.87807564  1
  O  O339  1  0.01208634  -0.00069420  0.12786275  1
  O  O340  1  0.00919455  -0.01164229  0.61137310  1
  O  O341  1  0.01613274  0.49167989  0.12680495  1
  O  O342  1  -0.00016237  0.50650461  0.61887127  1
  O  O343  1  0.49857658  0.01272065  0.12997505  1
  O  O344  1  0.49743884  0.00155128  0.62773792  1
  O  O345  1  0.50689630  0.50487386  0.11589306  1
  O  O346  1  0.50189908  0.50663255  0.62102439  1
  O  O347  1  0.24712677  0.37892607  0.24373923  1
  O  O348  1  0.24318079  0.38138841  0.74494112  1
  O  O349  1  0.24463433  0.88257956  0.24843242  1
  O  O350  1  0.25571557  0.87583434  0.74080172  1
  O  O351  1  0.75148960  0.38457230  0.24225861  1
  O  O352  1  0.74101887  0.38219608  0.74131345  1
  O  O353  1  0.73003492  0.86025017  0.25189720  1
  O  O354  1  0.74670096  0.88168161  0.73981451  1
  O  O355  1  0.25579986  0.11732621  0.25749199  1
  O  O356  1  0.25778005  0.12488853  0.76338346  1
  O  O357  1  0.25676953  0.61881261  0.25525542  1
  O  O358  1  0.24767860  0.61586275  0.75581523  1
  O  O359  1  0.76383355  0.12988411  0.25313136  1
  O  O360  1  0.77709303  0.15422818  0.73567448  1
  O  O361  1  0.74756156  0.61833865  0.25966885  1
  O  O362  1  0.76039094  0.61747827  0.76258387  1
  O  O363  1  0.37048216  0.11501948  0.36702094  1
  O  O364  1  0.36266109  0.13365412  0.87129727  1
  O  O365  1  0.36962895  0.61859981  0.36954781  1
  O  O366  1  0.35857091  0.62258111  0.87373566  1
  O  O367  1  0.87909498  0.13046505  0.36561335  1
  O  O368  1  0.87967385  0.14792722  0.85899786  1
  O  O369  1  0.86431124  0.62234700  0.37145110  1
  O  O370  1  0.87027062  0.62898162  0.86732545  1
  O  O371  1  0.13367677  0.37789093  0.12986316  1
  O  O372  1  0.12946456  0.37392713  0.63168573  1
  O  O373  1  0.12857155  0.88376238  0.13664982  1
  O  O374  1  0.13608516  0.88334939  0.62057618  1
  O  O375  1  0.63323510  0.38260067  0.12415249  1
  O  O376  1  0.62842629  0.38131001  0.63435823  1
  O  O377  1  0.62027245  0.87592550  0.13450200  1
  O  O378  1  0.61368832  0.86763065  0.63612650  1
  O  O379  1  0.12022163  0.25303811  0.25489020  1
  O  O380  1  0.13233560  0.26168359  0.75741300  1
  O  O381  1  0.13118502  0.75562381  0.24882046  1
  O  O382  1  0.11060818  0.74948116  0.75915523  1
  O  O383  1  0.61243843  0.25232711  0.24217974  1
  O  O384  1  0.62368989  0.25654594  0.75862094  1
  O  O385  1  0.60795286  0.75135490  0.24393258  1
  O  O386  1  0.60984918  0.73656057  0.75257080  1
  O  O387  1  0.38252158  0.24514074  0.23742592  1
  O  O388  1  0.37330889  0.24626165  0.74380810  1
  O  O389  1  0.38366549  0.74497795  0.23943302  1
  O  O390  1  0.37771724  0.74568030  0.74055079  1
  O  O391  1  0.88312936  0.24222519  0.24634430  1
  O  O392  1  0.89618198  0.24766351  0.72955439  1
  O  O393  1  0.87250858  0.74598202  0.23593486  1
  O  O394  1  0.88887088  0.74185365  0.75019519  1
  O  O395  1  0.37997198  0.49662412  0.49556267  1
  O  O396  1  0.38475453  0.49233797  1.00115833  1
  O  O397  1  0.37332375  0.99108359  0.49151354  1
  O  O398  1  0.37867548  0.99071653  1.00257318  1
  O  O399  1  0.88274713  0.49883850  0.50472579  1
  O  O400  1  0.87077498  0.48245879  1.00702868  1
  O  O401  1  0.89201834  0.98974266  0.50011141  1
  O  O402  1  0.87839187  0.98596929  1.01143068  1
  O  O403  1  0.12399977  0.00853798  0.01239380  1
  O  O404  1  0.11743975  0.01081021  0.50906090  1
  O  O405  1  0.12551770  0.49313789  0.01552439  1
  O  O406  1  0.11494341  0.51204768  0.50164974  1
  O  O407  1  0.63350185  0.01089169  0.00155093  1
  O  O408  1  0.60929541  0.02108936  0.48702107  1
  O  O409  1  0.62127792  0.50417974  0.00842366  1
  O  O410  1  0.61725640  0.50607604  0.50805414  1
  O  O411  1  0.36951501  0.36855752  0.11996045  1
  O  O412  1  0.36743891  0.36962230  0.62032829  1
  O  O413  1  0.37983484  0.86416890  0.11111980  1
  O  O414  1  0.36778838  0.86478577  0.62131396  1
  O  O415  1  0.86978211  0.36284578  0.11867111  1
  O  O416  1  0.86374676  0.38112390  0.61120220  1
  O  O417  1  0.87406353  0.86192791  0.12259886  1
  O  O418  1  0.88743731  0.86048523  0.63402485  1
  O  O419  1  0.13003363  0.13405369  0.39053161  1
  O  O420  1  0.13232251  0.13462199  0.88427776  1
  O  O421  1  0.12502595  0.63009604  0.37811892  1
  O  O422  1  0.13469700  0.63063219  0.87628319  1
  O  O423  1  0.60488430  0.14043945  0.38590524  1
  O  O424  1  0.62033404  0.13381470  0.88531964  1
  O  O425  1  0.63073402  0.61630043  0.38760188  1
  O  O426  1  0.63612721  0.61980361  0.88520082  1
