# generated using pymatgen
data_V85Zn86O256
_symmetry_space_group_name_H-M   'P 1'
_cell_length_a   16.91535113
_cell_length_b   16.91457839
_cell_length_c   16.91434251
_cell_angle_alpha   89.93854911
_cell_angle_beta   90.00924635
_cell_angle_gamma   90.09019155
_symmetry_Int_Tables_number   1
_chemical_formula_structural   V85Zn86O256
_chemical_formula_sum   'V85 Zn86 O256'
_cell_volume   4839.45573514
_cell_formula_units_Z   1
loop_
 _symmetry_equiv_pos_site_id
 _symmetry_equiv_pos_as_xyz
  1  'x, y, z'
loop_
 _atom_site_type_symbol
 _atom_site_label
 _atom_site_symmetry_multiplicity
 _atom_site_fract_x
 _atom_site_fract_y
 _atom_site_fract_z
 _atom_site_occupancy
  V  V0  1  0.49833195  -0.00609244  0.50828148  1
  V  V1  1  0.75162042  0.36813570  0.63144655  1
  V  V2  1  0.38010210  0.74533945  0.13792478  1
  V  V3  1  -0.00335393  0.87613666  0.37473042  1
  V  V4  1  0.62784547  0.75215011  0.88322284  1
  V  V5  1  0.86150930  0.74643878  0.12016287  1
  V  V6  1  0.38287873  0.50002721  0.86507260  1
  V  V7  1  0.25263589  0.62354175  0.37250765  1
  V  V8  1  0.50498751  0.12547654  0.11854705  1
  V  V9  1  0.25636688  0.50316606  0.24621488  1
  V  V10  1  0.00257969  0.62386057  0.11028061  1
  V  V11  1  0.74866276  0.11711513  0.37133030  1
  V  V12  1  -0.00392731  0.13078939  0.62424701  1
  V  V13  1  0.00304095  0.25580679  0.74896826  1
  V  V14  1  0.49447099  0.87672922  0.87134316  1
  V  V15  1  0.50124920  0.24992071  0.24708361  1
  V  V16  1  0.24880358  0.87442037  0.12425860  1
  V  V17  1  0.25945617  0.62963015  0.86271113  1
  V  V18  1  0.25202882  0.36975615  0.11411094  1
  V  V19  1  0.62643811  0.12046394  0.50746870  1
  V  V20  1  -0.00180796  0.25012907  0.24763702  1
  V  V21  1  0.25057167  0.37031365  0.63248414  1
  V  V22  1  0.25653052  -0.00057234  0.75352309  1
  V  V23  1  0.50031918  0.12727745  0.62684857  1
  V  V24  1  0.25030549  0.12629886  0.37717272  1
  V  V25  1  0.62175096  0.87760765  0.25434097  1
  V  V26  1  0.12107098  0.74692671  0.37510231  1
  V  V27  1  0.86878452  0.00785774  0.87416246  1
  V  V28  1  0.49804088  0.25821859  0.75179024  1
  V  V29  1  0.86977449  0.50366551  0.85602871  1
  V  V30  1  0.74958955  0.49419851  0.25037534  1
  V  V31  1  -0.00316387  0.74818338  0.24653433  1
  V  V32  1  0.86582020  0.87256121  -0.00230197  1
  V  V33  1  0.37597856  -0.00473851  0.38198687  1
  V  V34  1  0.00497916  0.50046394  0.50168730  1
  V  V35  1  0.74746411  0.87396483  0.62375115  1
  V  V36  1  0.75572875  0.63171466  0.86958951  1
  V  V37  1  -0.00011781  0.37514227  0.37437419  1
  V  V38  1  0.12484867  0.74497969  0.87964034  1
  V  V39  1  0.74827165  0.87510100  0.13122505  1
  V  V40  1  0.87486274  0.49802788  0.37637727  1
  V  V41  1  0.87557269  0.36522474  0.50561934  1
  V  V42  1  0.87498306  0.38738696  0.00002610  1
  V  V43  1  0.12731655  0.25132474  0.37656223  1
  V  V44  1  0.37413905  0.87740578  -0.00296159  1
  V  V45  1  0.49582543  0.86453636  0.37717693  1
  V  V46  1  0.12391592  0.50618941  0.10941622  1
  V  V47  1  0.87105055  0.11785526  0.24804119  1
  V  V48  1  0.25558363  0.75785345  0.49905082  1
  V  V49  1  0.24942093  -0.00143217  0.24945884  1
  V  V50  1  0.25808764  0.12580979  0.87913418  1
  V  V51  1  0.62362007  0.23297867  0.87910644  1
  V  V52  1  0.13071206  0.25481659  0.87467187  1
  V  V53  1  -0.00389988  0.74287242  0.74946051  1
  V  V54  1  0.12526423  0.87484430  0.74976564  1
  V  V55  1  0.37355229  0.12854036  0.74547351  1
  V  V56  1  0.62849863  0.00172569  0.12729679  1
  V  V57  1  0.74471462  0.00519736  0.74829919  1
  V  V58  1  0.50222281  0.49649641  0.50698295  1
  V  V59  1  -0.00086191  0.00179739  -0.00184255  1
  V  V60  1  0.62654623  0.24904738  0.37623091  1
  V  V61  1  -0.00123199  0.87632149  0.87473366  1
  V  V62  1  0.75078840  0.62902763  0.38084114  1
  V  V63  1  0.00079770  0.12586432  0.12346456  1
  V  V64  1  0.62239704  0.87881581  0.74646188  1
  V  V65  1  0.62476893  0.49930814  0.12394564  1
  V  V66  1  0.87009023  0.74187340  0.62718919  1
  V  V67  1  0.62841396  0.37798231  0.76230276  1
  V  V68  1  0.49773974  0.73457462  0.74675066  1
  V  V69  1  0.13006209  0.12967156  -0.00065625  1
  V  V70  1  0.63034788  0.49961618  0.63151118  1
  V  V71  1  0.87182314  0.13227475  0.74926315  1
  V  V72  1  0.75246779  0.23654134  -0.00678069  1
  V  V73  1  0.00484329  0.38471537  0.87563372  1
  V  V74  1  0.86982461  0.87108518  0.50065776  1
  V  V75  1  0.24886574  0.74146004  0.00151728  1
  V  V76  1  0.62607585  0.75091397  0.38268840  1
  V  V77  1  0.12634296  0.37903031  0.24687381  1
  V  V78  1  0.50386264  0.00066085  -0.00357177  1
  V  V79  1  0.37927603  0.50086752  0.37509374  1
  V  V80  1  0.62659119  0.62588740  0.50732638  1
  V  V81  1  0.12297414  0.00055867  0.62512267  1
  V  V82  1  0.49891580  0.49677445  -0.00041891  1
  V  V83  1  0.37639139  0.12504619  0.24816173  1
  V  V84  1  0.87256883  0.62440150  0.24807446  1
  Zn  Zn85  1  0.12300268  0.62416322  0.50405940  1
  Zn  Zn86  1  0.24826868  0.49981907  0.74971976  1
  Zn  Zn87  1  0.12198138  0.87516468  0.24754986  1
  Zn  Zn88  1  -0.00301185  0.00085651  0.50044812  1
  Zn  Zn89  1  0.62914912  0.62677542  0.00049612  1
  Zn  Zn90  1  0.87356003  0.25033884  0.12126148  1
  Zn  Zn91  1  0.12313798  0.49841655  0.64478761  1
  Zn  Zn92  1  0.75061728  0.37136785  0.12250341  1
  Zn  Zn93  1  0.12314520  0.12567727  0.50081952  1
  Zn  Zn94  1  0.12567260  0.00026537  0.12287992  1
  Zn  Zn95  1  0.37654720  0.74633982  0.63224167  1
  Zn  Zn96  1  0.86901600  -0.00473841  0.37204014  1
  Zn  Zn97  1  0.37154931  0.24703073  0.11570032  1
  Zn  Zn98  1  0.62635076  0.37222540  0.24931059  1
  Zn  Zn99  1  0.37801069  0.36794810  -0.01061362  1
  Zn  Zn100  1  -0.00333300  0.62081278  0.62808834  1
  Zn  Zn101  1  0.37755868  0.36839847  0.50664591  1
  Zn  Zn102  1  0.49884910  0.37145500  0.37644507  1
  Zn  Zn103  1  0.25577156  0.87911656  0.61746665  1
  Zn  Zn104  1  0.26019948  0.24984566  0.50664101  1
  Zn  Zn105  1  0.75427901  0.24396625  0.50478999  1
  Zn  Zn106  1  0.49178449  0.62276206  0.13427518  1
  Zn  Zn107  1  0.18585121  0.18857139  0.18919592  1
  Zn  Zn108  1  0.18487339  0.19017690  0.68915496  1
  Zn  Zn109  1  0.18673199  0.68643363  0.18890344  1
  Zn  Zn110  1  0.18125393  0.68501392  0.68354856  1
  Zn  Zn111  1  0.68886138  0.18787604  0.18413817  1
  Zn  Zn112  1  0.68482397  0.18926655  0.68878177  1
  Zn  Zn113  1  0.65241733  0.67174171  0.20948530  1
  Zn  Zn114  1  0.68602727  0.68917240  0.69365040  1
  Zn  Zn115  1  0.31534345  0.31509837  0.31038319  1
  Zn  Zn116  1  0.31350626  0.31402393  0.81154666  1
  Zn  Zn117  1  0.31100242  0.81317387  0.31563060  1
  Zn  Zn118  1  0.31548480  0.81273523  0.80858854  1
  Zn  Zn119  1  0.81310029  0.30675174  0.31533679  1
  Zn  Zn120  1  0.81153371  0.31261135  0.81575533  1
  Zn  Zn121  1  0.80761079  0.81019897  0.31020152  1
  Zn  Zn122  1  0.81085176  0.81391492  0.81022394  1
  Zn  Zn123  1  0.19264993  0.43460610  0.44199925  1
  Zn  Zn124  1  0.18972909  0.44471405  0.92859601  1
  Zn  Zn125  1  0.18007387  0.93838713  0.43567932  1
  Zn  Zn126  1  0.18731247  0.93921301  0.93619463  1
  Zn  Zn127  1  0.68917088  0.43479064  0.44066843  1
  Zn  Zn128  1  0.69248553  0.43971125  0.93788030  1
  Zn  Zn129  1  0.68532013  0.93974423  0.44283069  1
  Zn  Zn130  1  0.68619730  0.94021359  0.93651302  1
  Zn  Zn131  1  0.31700521  0.06178006  0.06064030  1
  Zn  Zn132  1  0.31297712  0.06459349  0.56410702  1
  Zn  Zn133  1  0.31519406  0.56192274  0.05819925  1
  Zn  Zn134  1  0.31112058  0.56291047  0.56859430  1
  Zn  Zn135  1  0.81187691  0.06104580  0.06434944  1
  Zn  Zn136  1  0.81384568  0.05789764  0.56420473  1
  Zn  Zn137  1  0.80475813  0.56502996  0.05986730  1
  Zn  Zn138  1  0.81155980  0.55523195  0.56415214  1
  Zn  Zn139  1  0.43699936  0.43604517  0.18683051  1
  Zn  Zn140  1  0.43706615  0.43812758  0.68554971  1
  Zn  Zn141  1  0.43784849  0.93486147  0.18947624  1
  Zn  Zn142  1  0.43195950  0.93330203  0.68287521  1
  Zn  Zn143  1  0.93831378  0.43977624  0.18270155  1
  Zn  Zn144  1  0.93959512  0.43290327  0.68535841  1
  Zn  Zn145  1  0.93682884  0.93771968  0.18550482  1
  Zn  Zn146  1  0.93567872  0.93739895  0.68799697  1
  Zn  Zn147  1  0.06244991  0.06145260  0.31099677  1
  Zn  Zn148  1  0.06340863  0.06581491  0.81166024  1
  Zn  Zn149  1  0.06319485  0.56240034  0.30719841  1
  Zn  Zn150  1  0.06390533  0.56435820  0.81772255  1
  Zn  Zn151  1  0.56226001  0.06031585  0.31349143  1
  Zn  Zn152  1  0.55949455  0.06044610  0.81141506  1
  Zn  Zn153  1  0.55826484  0.56357023  0.31290481  1
  Zn  Zn154  1  0.56902609  0.56215013  0.81621271  1
  Zn  Zn155  1  0.43963425  0.18480686  0.43781378  1
  Zn  Zn156  1  0.43774246  0.18989038  0.93682239  1
  Zn  Zn157  1  0.42116119  0.66637875  0.47541630  1
  Zn  Zn158  1  0.44110806  0.68542034  0.94348822  1
  Zn  Zn159  1  0.93805524  0.18515208  0.43512167  1
  Zn  Zn160  1  0.93912582  0.19166774  0.93478461  1
  Zn  Zn161  1  0.93425779  0.68880113  0.44105201  1
  Zn  Zn162  1  0.93295982  0.68796970  0.93517040  1
  Zn  Zn163  1  0.06278038  0.31467185  0.05843444  1
  Zn  Zn164  1  0.07005465  0.31530983  0.56452582  1
  Zn  Zn165  1  0.05942887  0.81171624  0.06117437  1
  Zn  Zn166  1  0.06081243  0.81200370  0.56225964  1
  Zn  Zn167  1  0.56505361  0.31501156  0.05846164  1
  Zn  Zn168  1  0.56390269  0.31142753  0.56579452  1
  Zn  Zn169  1  0.56062050  0.81374704  0.06340290  1
  Zn  Zn170  1  0.56287032  0.81167121  0.56447371  1
  O  O171  1  0.12124695  0.12442848  0.11669806  1
  O  O172  1  0.11413240  0.11844531  0.62609977  1
  O  O173  1  0.11538153  0.61874613  0.12842886  1
  O  O174  1  0.11584434  0.61804714  0.62083485  1
  O  O175  1  0.61491059  0.11494932  0.12982167  1
  O  O176  1  0.61671624  0.12542460  0.61817852  1
  O  O177  1  0.64388050  0.60565480  0.11589946  1
  O  O178  1  0.63738743  0.61608192  0.61738537  1
  O  O179  1  0.37659265  0.38944657  0.37316668  1
  O  O180  1  0.36897670  0.39504564  0.87405781  1
  O  O181  1  0.38141376  0.88724004  0.36945885  1
  O  O182  1  0.38508825  0.87201068  0.88251154  1
  O  O183  1  0.88087274  0.37845375  0.38116615  1
  O  O184  1  0.87859418  0.38726341  0.87997859  1
  O  O185  1  0.87794009  0.87283183  0.38082770  1
  O  O186  1  0.87715449  0.88305499  0.88169736  1
  O  O187  1  0.25420350  0.00465133  0.36984044  1
  O  O188  1  0.24225148  0.01211307  0.86420580  1
  O  O189  1  0.25507832  0.50603983  0.36841830  1
  O  O190  1  0.26345541  0.51399465  0.87482814  1
  O  O191  1  0.74807240  0.01252879  0.37671319  1
  O  O192  1  0.75905907  -0.00384446  0.86453673  1
  O  O193  1  0.75551977  0.50331052  0.36914411  1
  O  O194  1  0.76463975  0.50644619  0.87293509  1
  O  O195  1  0.24498331  0.49702382  0.13032840  1
  O  O196  1  0.24682197  0.49442924  0.62866660  1
  O  O197  1  0.25128274  0.99255113  0.13213123  1
  O  O198  1  0.24030948  1.00160278  0.63263172  1
  O  O199  1  0.74920572  0.49397632  0.13502351  1
  O  O200  1  0.73849840  0.48609259  0.62145629  1
  O  O201  1  0.73624487  0.99362283  0.12039679  1
  O  O202  1  0.75597411  0.98753794  0.63829513  1
  O  O203  1  0.00519348  0.37056223  0.25339326  1
  O  O204  1  -0.00645154  0.36369135  0.76000451  1
  O  O205  1  -0.00257706  0.86664950  0.25520141  1
  O  O206  1  0.00657246  0.87044128  0.75651664  1
  O  O207  1  0.50130014  0.36038643  0.25018098  1
  O  O208  1  0.50928502  0.36321905  0.74419699  1
  O  O209  1  0.50839144  0.87944041  0.26346713  1
  O  O210  1  0.50645947  0.87765970  0.75812066  1
  O  O211  1  0.49718598  0.13210057  0.24330357  1
  O  O212  1  0.49284454  0.12871789  0.74498940  1
  O  O213  1  0.54138384  0.63910088  0.23474387  1
  O  O214  1  0.50766283  0.63669672  0.75259642  1
  O  O215  1  0.99551007  0.13021805  0.24352342  1
  O  O216  1  0.99274473  0.13340039  0.74481761  1
  O  O217  1  0.99022096  0.63186834  0.24407442  1
  O  O218  1  0.99981775  0.63996467  0.75371547  1
  O  O219  1  0.37775110  0.25529854  0.00258270  1
  O  O220  1  0.37301521  0.25446257  0.48904602  1
  O  O221  1  0.36739093  0.76138717  0.00643793  1
  O  O222  1  0.35377741  0.76207406  0.47880715  1
  O  O223  1  0.86357485  0.25667871  -0.00535241  1
  O  O224  1  0.87590158  0.26154093  0.49508857  1
  O  O225  1  0.87789126  0.76119330  0.00719300  1
  O  O226  1  0.87677855  0.76269525  0.51003057  1
  O  O227  1  0.12724213  0.24816146  0.48468605  1
  O  O228  1  0.12091997  0.23724613  0.99165354  1
  O  O229  1  0.12554977  0.74892524  0.48618449  1
  O  O230  1  0.13590330  0.76111745  0.99084163  1
  O  O231  1  0.62351291  0.23719386  0.49280800  1
  O  O232  1  0.63508463  0.25391717  0.98644281  1
  O  O233  1  0.62423513  0.74177031  0.49316757  1
  O  O234  1  0.62219006  0.75411097  0.98734575  1
  O  O235  1  0.50520952  0.24065569  0.12947482  1
  O  O236  1  0.50654459  0.23702163  0.63690589  1
  O  O237  1  0.48234365  0.75430156  0.12231515  1
  O  O238  1  0.50588401  0.75266231  0.64432856  1
  O  O239  1  0.99998185  0.24405245  0.13027444  1
  O  O240  1  1.00722168  0.24384471  0.63496872  1
  O  O241  1  0.99103862  0.74528465  0.12989362  1
  O  O242  1  0.99087367  0.75002146  0.63354897  1
  O  O243  1  0.00755230  0.25412667  0.36759572  1
  O  O244  1  0.00842199  0.25938642  0.86867730  1
  O  O245  1  0.00162764  0.75727493  0.36896584  1
  O  O246  1  0.00590191  0.75631229  0.87085169  1
  O  O247  1  0.50995653  0.24566984  0.36410999  1
  O  O248  1  0.51537992  0.24560191  0.86829686  1
  O  O249  1  0.50651044  0.76315622  0.38686770  1
  O  O250  1  0.50714114  0.75773295  0.86958210  1
  O  O251  1  0.24736436  0.12578542  0.48715619  1
  O  O252  1  0.24329910  0.11808353  0.99148007  1
  O  O253  1  0.24260788  0.63543181  0.48496032  1
  O  O254  1  0.25317929  0.63907393  0.99346328  1
  O  O255  1  0.74325550  0.12333947  0.49660328  1
  O  O256  1  0.75505256  0.13733470  0.99849325  1
  O  O257  1  0.74246724  0.61454890  0.48823602  1
  O  O258  1  0.74794798  0.62018911  0.97904400  1
  O  O259  1  0.24928991  0.38232157  0.01280794  1
  O  O260  1  0.25519685  0.37171405  0.51011809  1
  O  O261  1  0.25674098  0.87229166  0.00554269  1
  O  O262  1  0.23799961  0.86160445  0.49750727  1
  O  O263  1  0.76414708  0.36839734  -0.00221686  1
  O  O264  1  0.75960222  0.37088456  0.50723471  1
  O  O265  1  0.75970425  0.88123135  0.00997885  1
  O  O266  1  0.75469185  0.87918620  0.51187061  1
  O  O267  1  0.13625548  0.49476398  0.24385815  1
  O  O268  1  0.13267811  0.50086187  0.76013713  1
  O  O269  1  0.13779497  0.99865219  0.24736176  1
  O  O270  1  0.13088766  0.99639697  0.74247767  1
  O  O271  1  0.63509869  0.49369261  0.24563954  1
  O  O272  1  0.62036234  0.49006367  0.74379689  1
  O  O273  1  0.62171883  0.98915909  0.24263399  1
  O  O274  1  0.63427718  0.99318281  0.75496482  1
  O  O275  1  0.36535988  0.00385564  0.25552756  1
  O  O276  1  0.36228017  0.00775535  0.74768671  1
  O  O277  1  0.36359002  0.49923864  0.25435115  1
  O  O278  1  0.37740328  0.50458587  0.76196638  1
  O  O279  1  0.87863027  0.01318289  0.25098743  1
  O  O280  1  0.86895373  0.00824443  0.75695676  1
  O  O281  1  0.86885595  0.50496048  0.25460674  1
  O  O282  1  0.87613803  0.49969095  0.75782985  1
  O  O283  1  0.12174566  0.36845788  0.36799280  1
  O  O284  1  0.11583855  0.36761791  0.88568200  1
  O  O285  1  0.11337714  0.86737943  0.37035504  1
  O  O286  1  0.11956658  0.86880872  0.86919134  1
  O  O287  1  0.62612974  0.35936219  0.37499319  1
  O  O288  1  0.63109663  0.37105112  0.86489594  1
  O  O289  1  0.61965698  0.87207503  0.37367857  1
  O  O290  1  0.61918236  0.87065187  0.86694282  1
  O  O291  1  0.38713400  0.12357806  0.13071592  1
  O  O292  1  0.38034112  0.12552150  0.63791556  1
  O  O293  1  0.37242295  0.64064634  0.12375407  1
  O  O294  1  0.38484729  0.64378529  0.58437443  1
  O  O295  1  0.88135302  0.12720891  0.13057497  1
  O  O296  1  0.88711817  0.12066653  0.63363416  1
  O  O297  1  0.87748454  0.63123933  0.12670040  1
  O  O298  1  0.87211450  0.63804342  0.61939843  1
  O  O299  1  0.24733611  0.26624745  0.12954476  1
  O  O300  1  0.24307685  0.26223679  0.62396702  1
  O  O301  1  0.25438240  0.75635640  0.11923153  1
  O  O302  1  0.24525809  0.74825472  0.60621167  1
  O  O303  1  0.75005831  0.25172262  0.10842712  1
  O  O304  1  0.74433804  0.26206174  0.62160604  1
  O  O305  1  0.75922696  0.75681607  0.12850533  1
  O  O306  1  0.75678554  0.76350850  0.63571532  1
  O  O307  1  0.24264758  0.24095613  0.36746155  1
  O  O308  1  0.23864158  0.24298674  0.86899255  1
  O  O309  1  0.23864662  0.74475195  0.37581631  1
  O  O310  1  0.24585134  0.74841907  0.88155422  1
  O  O311  1  0.74274547  0.23742220  0.37949507  1
  O  O312  1  0.74009471  0.25014673  0.88466199  1
  O  O313  1  0.74382175  0.73948376  0.37666144  1
  O  O314  1  0.74515894  0.74220501  0.87195518  1
  O  O315  1  0.00585259  0.12163365  0.00389311  1
  O  O316  1  0.00060451  0.12289470  0.50892495  1
  O  O317  1  -0.00221570  0.63135485  0.01102252  1
  O  O318  1  -0.00233636  0.61378397  0.49968951  1
  O  O319  1  0.49613842  0.11364468  0.00760445  1
  O  O320  1  0.50592856  0.11755692  0.50858184  1
  O  O321  1  0.50623548  0.61464000  0.01002453  1
  O  O322  1  0.52065152  0.60959632  0.49174621  1
  O  O323  1  0.50296299  0.38375534  0.49771441  1
  O  O324  1  0.49741561  0.39107641  1.00592181  1
  O  O325  1  0.50661227  0.88772841  0.49590267  1
  O  O326  1  0.49300583  0.87915821  0.99216160  1
  O  O327  1  0.99450245  0.37883238  0.49478965  1
  O  O328  1  0.98437102  0.36708349  0.98851007  1
  O  O329  1  0.99163039  0.87548175  0.49084634  1
  O  O330  1  0.98885979  0.88222656  0.99561221  1
  O  O331  1  0.49506632  0.49647716  0.37935131  1
  O  O332  1  0.48977921  0.50745060  0.88228095  1
  O  O333  1  0.49180593  0.99487280  0.38412698  1
  O  O334  1  0.50432731  0.99008159  0.88443529  1
  O  O335  1  0.99278848  0.49354905  0.37663719  1
  O  O336  1  0.98764068  0.49172210  0.87317886  1
  O  O337  1  0.99871077  0.98636991  0.37385815  1
  O  O338  1  0.99219704  0.99553828  0.87765331  1
  O  O339  1  0.00234155  0.00693773  0.11745295  1
  O  O340  1  0.00728117  0.00770354  0.62752784  1
  O  O341  1  0.01114185  0.51148613  0.12971080  1
  O  O342  1  0.00059107  0.49954352  0.61530359  1
  O  O343  1  0.50812295  0.00380234  0.12032717  1
  O  O344  1  0.49353130  0.01160459  0.61864636  1
  O  O345  1  0.50809602  0.50209412  0.12257406  1
  O  O346  1  0.51462867  0.49482405  0.61701179  1
  O  O347  1  0.24428754  0.38370712  0.24100702  1
  O  O348  1  0.25263665  0.37646074  0.73796614  1
  O  O349  1  0.24803786  0.88212618  0.24240766  1
  O  O350  1  0.24148960  0.88377930  0.75293105  1
  O  O351  1  0.75343698  0.38347517  0.25054950  1
  O  O352  1  0.74241462  0.36949099  0.74367221  1
  O  O353  1  0.74596299  0.87814748  0.23773033  1
  O  O354  1  0.74132935  0.88348077  0.74637821  1
  O  O355  1  0.25379614  0.11821194  0.25734425  1
  O  O356  1  0.25641830  0.12110764  0.75484529  1
  O  O357  1  0.24549782  0.61776539  0.26201811  1
  O  O358  1  0.25264871  0.63399943  0.76027839  1
  O  O359  1  0.75939054  0.13078162  0.25723301  1
  O  O360  1  0.75897814  0.11758049  0.74181373  1
  O  O361  1  0.75149297  0.61357847  0.26141886  1
  O  O362  1  0.74345681  0.62300495  0.76854838  1
  O  O363  1  0.36875028  0.11351830  0.36788083  1
  O  O364  1  0.36343782  0.12717128  0.86621283  1
  O  O365  1  0.36674060  0.61233569  0.38094166  1
  O  O366  1  0.36922156  0.61701449  0.88176819  1
  O  O367  1  0.86710212  0.12220352  0.36754767  1
  O  O368  1  0.88109208  0.11461566  0.86676806  1
  O  O369  1  0.86770850  0.62046948  0.37081604  1
  O  O370  1  0.86911964  0.61445184  0.87435483  1
  O  O371  1  0.13262409  0.38283712  0.12697285  1
  O  O372  1  0.14134711  0.38380545  0.61876456  1
  O  O373  1  0.13657546  0.87619663  0.12467042  1
  O  O374  1  0.12625789  0.88260490  0.63274262  1
  O  O375  1  0.63037018  0.38499180  0.12702424  1
  O  O376  1  0.63268537  0.37945134  0.63486735  1
  O  O377  1  0.62948593  0.87727858  0.13409971  1
  O  O378  1  0.63171926  0.87197864  0.63801568  1
  O  O379  1  0.11808488  0.25626640  0.25791178  1
  O  O380  1  0.11331331  0.24475880  0.76239848  1
  O  O381  1  0.11664514  0.75142421  0.25878825  1
  O  O382  1  0.11843903  0.75815884  0.75643813  1
  O  O383  1  0.61980943  0.24908865  0.25682809  1
  O  O384  1  0.62076270  0.25417713  0.76319191  1
  O  O385  1  0.63405348  0.76873998  0.26910196  1
  O  O386  1  0.61642183  0.75944703  0.76162344  1
  O  O387  1  0.38354684  0.24273845  0.24460907  1
  O  O388  1  0.38773932  0.24199173  0.75881155  1
  O  O389  1  0.36921050  0.75405922  0.23623668  1
  O  O390  1  0.39304829  0.74771293  0.75483352  1
  O  O391  1  0.88325307  0.24048356  0.24795467  1
  O  O392  1  0.88218537  0.23792688  0.75925326  1
  O  O393  1  0.87687659  0.74368942  0.24073069  1
  O  O394  1  0.88463107  0.75966470  0.74042672  1
  O  O395  1  0.38799595  0.49651325  0.49254390  1
  O  O396  1  0.38324682  0.49766462  0.99174090  1
  O  O397  1  0.38299650  1.00526851  0.49220527  1
  O  O398  1  0.38648673  0.98514480  1.00714613  1
  O  O399  1  0.88375572  0.48942170  0.49437747  1
  O  O400  1  0.87309336  0.48895623  0.99660730  1
  O  O401  1  0.87711848  0.98608326  0.49686502  1
  O  O402  1  0.87784921  0.99579456  0.99193978  1
  O  O403  1  0.11808454  0.01126053  -0.00114863  1
  O  O404  1  0.12133742  0.00219698  0.51274299  1
  O  O405  1  0.12841800  0.50148354  0.01016630  1
  O  O406  1  0.10940807  0.49968559  0.48944258  1
  O  O407  1  0.61240734  -0.00906237  0.01048449  1
  O  O408  1  0.61401686  0.01290123  0.49686857  1
  O  O409  1  0.61903289  0.49786304  0.00543058  1
  O  O410  1  0.62239023  0.50352756  0.50778519  1
  O  O411  1  0.35862255  0.37569590  0.12546361  1
  O  O412  1  0.35994869  0.38071417  0.62388403  1
  O  O413  1  0.36496808  0.86835281  0.12049084  1
  O  O414  1  0.36697168  0.86157849  0.62935832  1
  O  O415  1  0.87659805  0.37212850  0.11124476  1
  O  O416  1  0.86563065  0.37778166  0.61689635  1
  O  O417  1  0.86679108  0.87018207  0.11893030  1
  O  O418  1  0.86823817  0.86897366  0.61898477  1
  O  O419  1  0.13288406  0.13158583  0.37367578  1
  O  O420  1  0.13302480  0.13261255  0.88105933  1
  O  O421  1  0.12889945  0.63278978  0.37404525  1
  O  O422  1  0.13382254  0.64109429  0.87606556  1
  O  O423  1  0.63013084  0.13097295  0.38031840  1
  O  O424  1  0.62663067  0.13443276  0.87324344  1
  O  O425  1  0.63298630  0.63438789  0.38214762  1
  O  O426  1  0.63440363  0.63525921  0.87829683  1
