# generated using pymatgen
data_V85Zn86O256
_symmetry_space_group_name_H-M   'P 1'
_cell_length_a   16.96433259
_cell_length_b   16.97022405
_cell_length_c   16.94952600
_cell_angle_alpha   89.95383191
_cell_angle_beta   89.95307114
_cell_angle_gamma   90.06529607
_symmetry_Int_Tables_number   1
_chemical_formula_structural   V85Zn86O256
_chemical_formula_sum   'V85 Zn86 O256'
_cell_volume   4879.56764451
_cell_formula_units_Z   1
loop_
 _symmetry_equiv_pos_site_id
 _symmetry_equiv_pos_as_xyz
  1  'x, y, z'
loop_
 _atom_site_type_symbol
 _atom_site_label
 _atom_site_symmetry_multiplicity
 _atom_site_fract_x
 _atom_site_fract_y
 _atom_site_fract_z
 _atom_site_occupancy
  V  V0  1  0.24935390  0.37296938  0.62075418  1
  V  V1  1  0.00444655  0.50642538  -0.00027274  1
  V  V2  1  0.37560557  0.24991382  0.12889231  1
  V  V3  1  0.61700288  0.86202491  0.24606175  1
  V  V4  1  0.50159445  -0.00152150  -0.00515808  1
  V  V5  1  0.25273922  0.87163233  0.62663518  1
  V  V6  1  0.24738770  0.49828813  0.75041421  1
  V  V7  1  0.39565169  0.37531190  0.50106340  1
  V  V8  1  0.62540316  0.75526039  0.86393529  1
  V  V9  1  0.12914815  0.25323298  0.37593479  1
  V  V10  1  0.50253752  0.49881683  -0.00348896  1
  V  V11  1  0.25248310  0.62132771  0.37804891  1
  V  V12  1  0.62622630  0.62474399  -0.00334834  1
  V  V13  1  0.74380898  0.49419644  0.74948298  1
  V  V14  1  0.25438757  0.00375871  0.74865473  1
  V  V15  1  0.61693166  0.48924672  0.62225898  1
  V  V16  1  0.37591238  0.00905125  0.87086825  1
  V  V17  1  0.75692525  0.37255581  0.61786289  1
  V  V18  1  -0.00418753  0.37508810  0.38687458  1
  V  V19  1  0.86715910  0.12658804  0.26472290  1
  V  V20  1  0.12276413  0.74341661  0.87670153  1
  V  V21  1  0.86881906  0.74989873  0.61000510  1
  V  V22  1  0.74496074  0.37891876  0.12855987  1
  V  V23  1  0.12604632  0.74379590  0.36793635  1
  V  V24  1  0.49883872  0.62286839  0.61794192  1
  V  V25  1  0.76561866  -0.00184255  0.74765494  1
  V  V26  1  0.39103309  0.49778221  0.38112831  1
  V  V27  1  0.74878391  0.50220973  0.25422031  1
  V  V28  1  -0.00685842  0.62325245  0.63303076  1
  V  V29  1  0.87101394  0.25123736  0.12778025  1
  V  V30  1  0.37588455  0.87429074  -0.00404942  1
  V  V31  1  0.74870466  0.25097443  0.00010206  1
  V  V32  1  0.50323762  0.63025509  0.12580133  1
  V  V33  1  0.25465656  0.74747768  0.50729697  1
  V  V34  1  0.12678114  0.50611981  0.12143125  1
  V  V35  1  -0.00699954  0.13075695  0.62202105  1
  V  V36  1  0.62629783  -0.00116533  0.12539823  1
  V  V37  1  0.73890910  0.86501798  0.62051430  1
  V  V38  1  0.12410521  0.62173720  0.50589858  1
  V  V39  1  0.24323956  0.12996749  0.87099100  1
  V  V40  1  0.37848964  0.74961420  0.12515086  1
  V  V41  1  0.49617101  0.12031740  0.60085776  1
  V  V42  1  0.12938785  0.87150732  0.24926378  1
  V  V43  1  0.37293018  0.62846635  0.74552030  1
  V  V44  1  0.12082284  0.00016509  0.62480793  1
  V  V45  1  0.49888164  0.12707259  0.12593520  1
  V  V46  1  0.37589357  0.49947715  0.87360303  1
  V  V47  1  0.75175577  0.75013242  -0.00336464  1
  V  V48  1  0.00064266  0.25321608  0.25064141  1
  V  V49  1  0.62000766  0.74724483  0.39126763  1
  V  V50  1  0.12388068  0.36015197  0.75218876  1
  V  V51  1  0.74921399  0.24372219  0.48461255  1
  V  V52  1  0.87403406  0.88333042  -0.00354520  1
  V  V53  1  0.37929128  0.37338083  -0.00227163  1
  V  V54  1  0.87163337  0.49838435  0.38487181  1
  V  V55  1  0.25324043  0.00028532  0.26297706  1
  V  V56  1  0.87602637  0.50583925  0.86858469  1
  V  V57  1  0.75394539  0.62803865  0.86495899  1
  V  V58  1  0.62748071  0.25005988  0.86986336  1
  V  V59  1  0.00438839  0.37504135  0.87084827  1
  V  V60  1  0.50115417  0.87611070  0.86570176  1
  V  V61  1  0.38112823  0.62947600  0.25251695  1
  V  V62  1  0.49509027  0.87559720  0.37301424  1
  V  V63  1  -0.04242608  0.80687035  0.30738540  1
  V  V64  1  0.50592481  0.37455945  0.86286064  1
  V  V65  1  0.25116051  0.37695960  0.12347235  1
  V  V66  1  0.88045760  0.75418750  0.12387353  1
  V  V67  1  -0.05825533  0.19356065  0.79978947  1
  V  V68  1  0.63025842  0.12293385  -0.00198324  1
  V  V69  1  -0.00097057  0.88160293  0.87194836  1
  V  V70  1  0.49570228  0.23074114  0.75243658  1
  V  V71  1  0.12455228  0.12532459  0.50105712  1
  V  V72  1  0.37298818  0.88167003  0.49897860  1
  V  V73  1  0.55941607  0.32499210  0.30191971  1
  V  V74  1  0.25433621  0.87838828  0.12286147  1
  V  V75  1  0.62557957  0.00882456  0.62505431  1
  V  V76  1  0.00274930  -0.00319835  0.01044212  1
  V  V77  1  0.87631178  0.37977221  0.00047532  1
  V  V78  1  0.25107722  0.49983203  0.25324791  1
  V  V79  1  0.24645371  0.74313321  -0.00140335  1
  V  V80  1  -0.01229529  0.74995521  0.75419691  1
  V  V81  1  0.74881948  0.87473011  0.12301763  1
  V  V82  1  0.24153101  0.25166215  -0.00422134  1
  V  V83  1  0.49633646  0.75225874  0.74206674  1
  V  V84  1  0.00295620  0.62871519  0.13009365  1
  Zn  Zn85  1  0.62986076  0.61873143  0.50186468  1
  Zn  Zn86  1  0.37555888  0.12842680  0.25386601  1
  Zn  Zn87  1  0.76194987  0.12019408  0.86646940  1
  Zn  Zn88  1  0.75595125  0.63431135  0.38188937  1
  Zn  Zn89  1  0.95299787  -0.05429487  0.43959191  1
  Zn  Zn90  1  0.70447862  0.09895589  0.40265710  1
  Zn  Zn91  1  0.25501990  0.25183970  0.49945714  1
  Zn  Zn92  1  0.38447144  0.01021635  0.37994048  1
  Zn  Zn93  1  0.37435027  0.24421141  0.62675430  1
  Zn  Zn94  1  0.13087563  0.00668399  0.12612122  1
  Zn  Zn95  1  0.87727075  0.62757169  0.25338732  1
  Zn  Zn96  1  0.75001823  -0.00079895  0.26356419  1
  Zn  Zn97  1  0.62314116  0.50087431  0.13200841  1
  Zn  Zn98  1  0.12524159  0.87183831  0.75001906  1
  Zn  Zn99  1  0.24631659  0.62199789  0.87798624  1
  Zn  Zn100  1  0.12100158  0.49754361  0.62797289  1
  Zn  Zn101  1  0.87990889  0.25531403  0.62227114  1
  Zn  Zn102  1  0.25432899  0.12833354  0.37651926  1
  Zn  Zn103  1  -0.00508648  0.49543797  0.50770187  1
  Zn  Zn104  1  0.12456628  0.12626548  0.00059902  1
  Zn  Zn105  1  0.12387335  0.37779179  0.25088366  1
  Zn  Zn106  1  0.00468115  0.12806848  0.12771070  1
  Zn  Zn107  1  0.18882293  0.18702524  0.18756785  1
  Zn  Zn108  1  0.18916048  0.18600499  0.68674350  1
  Zn  Zn109  1  0.19208745  0.68472295  0.18459447  1
  Zn  Zn110  1  0.18352189  0.68792936  0.69118912  1
  Zn  Zn111  1  0.66704269  0.18745068  0.24678698  1
  Zn  Zn112  1  0.68838502  0.18419586  0.68751192  1
  Zn  Zn113  1  0.69263908  0.68434046  0.18917090  1
  Zn  Zn114  1  0.68503254  0.68193460  0.68409681  1
  Zn  Zn115  1  0.32043613  0.31675122  0.31499744  1
  Zn  Zn116  1  0.31559935  0.31119405  0.80996566  1
  Zn  Zn117  1  0.31146054  0.81004849  0.31464962  1
  Zn  Zn118  1  0.31316307  0.81349901  0.81172511  1
  Zn  Zn119  1  0.81134388  0.31886616  0.31340133  1
  Zn  Zn120  1  0.80774553  0.31951022  0.81462107  1
  Zn  Zn121  1  0.79424552  0.81912210  0.31578798  1
  Zn  Zn122  1  0.81354170  0.82186281  0.80627687  1
  Zn  Zn123  1  0.18636373  0.43763908  0.43776949  1
  Zn  Zn124  1  0.18639008  0.43676990  0.93700169  1
  Zn  Zn125  1  0.14481032  0.91637024  0.45563351  1
  Zn  Zn126  1  0.18558207  0.93499533  0.93609273  1
  Zn  Zn127  1  0.68222284  0.43290453  0.43875428  1
  Zn  Zn128  1  0.68771692  0.43710520  0.93781952  1
  Zn  Zn129  1  0.68348170  0.92931102  0.44303709  1
  Zn  Zn130  1  0.69122591  0.93878164  0.92774245  1
  Zn  Zn131  1  0.31233955  0.06378895  0.05826571  1
  Zn  Zn132  1  0.30852458  0.06403791  0.56028235  1
  Zn  Zn133  1  0.31613550  0.56297411  0.06190991  1
  Zn  Zn134  1  0.31460372  0.55668005  0.56444081  1
  Zn  Zn135  1  0.81271498  0.06444675  0.06803567  1
  Zn  Zn136  1  0.81178623  0.05742935  0.55031615  1
  Zn  Zn137  1  0.81496987  0.56548951  0.06186327  1
  Zn  Zn138  1  0.80785329  0.56562113  0.56202357  1
  Zn  Zn139  1  0.43485350  0.44484834  0.18348046  1
  Zn  Zn140  1  0.43584185  0.43470328  0.68744996  1
  Zn  Zn141  1  0.43868308  0.93970389  0.18901616  1
  Zn  Zn142  1  0.43646649  0.94154543  0.68335105  1
  Zn  Zn143  1  0.93405896  0.43855222  0.19318952  1
  Zn  Zn144  1  0.93583312  0.43812805  0.69193677  1
  Zn  Zn145  1  0.96183232  0.96670505  0.22791244  1
  Zn  Zn146  1  0.91744087  0.95401875  0.63072242  1
  Zn  Zn147  1  0.06475103  0.06622227  0.31831981  1
  Zn  Zn148  1  0.06734743  0.05506845  0.81434273  1
  Zn  Zn149  1  0.06066993  0.55982922  0.31315377  1
  Zn  Zn150  1  0.06478745  0.56317769  0.81092401  1
  Zn  Zn151  1  0.55777049  0.05482763  0.30894380  1
  Zn  Zn152  1  0.57442651  0.05776453  0.80778034  1
  Zn  Zn153  1  0.56472424  0.56207488  0.31064530  1
  Zn  Zn154  1  0.56372781  0.56508979  0.80723612  1
  Zn  Zn155  1  0.44275532  0.19870569  0.42749188  1
  Zn  Zn156  1  0.43661156  0.18791060  0.94168507  1
  Zn  Zn157  1  0.43863511  0.69409673  0.43708659  1
  Zn  Zn158  1  0.43710426  0.68778910  0.93273560  1
  Zn  Zn159  1  0.93453046  0.19189897  0.44479618  1
  Zn  Zn160  1  0.93822854  0.18692503  0.95862779  1
  Zn  Zn161  1  0.93652235  0.67821966  0.44390888  1
  Zn  Zn162  1  0.93817739  0.68767612  0.94042025  1
  Zn  Zn163  1  0.06325136  0.31888907  0.06461446  1
  Zn  Zn164  1  0.06488269  0.30822775  0.56544401  1
  Zn  Zn165  1  0.06530368  0.81355962  0.06302393  1
  Zn  Zn166  1  0.05788597  0.80916650  0.56450559  1
  Zn  Zn167  1  0.56678614  0.30959549  0.07263953  1
  Zn  Zn168  1  0.57110324  0.30528065  0.56964341  1
  Zn  Zn169  1  0.56297887  0.81115565  0.05554241  1
  Zn  Zn170  1  0.55711519  0.82031551  0.56513416  1
  O  O171  1  0.12269369  0.12449582  0.12006439  1
  O  O172  1  0.12087861  0.12110105  0.61927548  1
  O  O173  1  0.12027385  0.61442265  0.12578906  1
  O  O174  1  0.11702437  0.62349063  0.62009129  1
  O  O175  1  0.61778294  0.11555152  0.11266212  1
  O  O176  1  0.61434320  0.11580250  0.62503569  1
  O  O177  1  0.61984440  0.62622699  0.11475975  1
  O  O178  1  0.61521320  0.61316439  0.62391043  1
  O  O179  1  0.37385471  0.38410074  0.39140930  1
  O  O180  1  0.38516858  0.38020844  0.87871691  1
  O  O181  1  0.37983238  0.87246420  0.38115682  1
  O  O182  1  0.38019027  0.88472170  0.87862920  1
  O  O183  1  0.88583549  0.38390690  0.37244432  1
  O  O184  1  0.88543602  0.38409284  0.87909014  1
  O  O185  1  0.88955797  0.85877037  0.36627090  1
  O  O186  1  0.88505066  0.86749641  0.88734885  1
  O  O187  1  0.24816359  -0.00228227  0.36393848  1
  O  O188  1  0.25699973  0.00473588  0.86930893  1
  O  O189  1  0.25640963  0.50413731  0.36846666  1
  O  O190  1  0.25587063  0.50075715  0.86901458  1
  O  O191  1  0.74316569  -0.00315955  0.37768644  1
  O  O192  1  0.75314759  0.00066976  0.85619836  1
  O  O193  1  0.75701020  0.49489839  0.36957188  1
  O  O194  1  0.75539585  0.50662213  0.86946792  1
  O  O195  1  0.24533690  0.49890182  0.12994380  1
  O  O196  1  0.24729324  0.49085282  0.63456964  1
  O  O197  1  0.25400026  0.98696008  0.12609396  1
  O  O198  1  0.24398100  0.99591489  0.63323068  1
  O  O199  1  0.75432648  0.49609232  0.13216545  1
  O  O200  1  0.74300580  0.49116065  0.63178247  1
  O  O201  1  0.73594229  0.99391729  0.11897401  1
  O  O202  1  0.74050391  0.99172075  0.62895793  1
  O  O203  1  -0.00015488  0.36475066  0.25770968  1
  O  O204  1  0.01070811  0.38086022  0.75883475  1
  O  O205  1  0.01398421  0.86117181  0.23499696  1
  O  O206  1  0.00166873  0.86544385  0.76332951  1
  O  O207  1  0.50515130  0.39657241  0.25382262  1
  O  O208  1  0.50007959  0.36837564  0.76066861  1
  O  O209  1  0.50555125  0.87405881  0.25612307  1
  O  O210  1  0.48999698  0.86525862  0.75402441  1
  O  O211  1  0.49305299  0.11280581  0.22786450  1
  O  O212  1  0.49757649  0.13121694  0.75712946  1
  O  O213  1  0.49279658  0.62062485  0.23784319  1
  O  O214  1  0.49109925  0.63145602  0.74344384  1
  O  O215  1  0.98877038  0.13986396  0.24863771  1
  O  O216  1  1.00476705  0.12989664  0.74801124  1
  O  O217  1  0.99821195  0.61805758  0.23381412  1
  O  O218  1  1.00465181  0.63228755  0.73977226  1
  O  O219  1  0.36595441  0.25658520  0.00647302  1
  O  O220  1  0.37479655  0.26564944  0.50075710  1
  O  O221  1  0.36963237  0.75615627  0.00166162  1
  O  O222  1  0.35832401  0.75648224  0.49593284  1
  O  O223  1  0.86915511  0.26045844  0.00815900  1
  O  O224  1  0.85790148  0.25125713  0.50665651  1
  O  O225  1  0.86922153  0.75671059  0.00575289  1
  O  O226  1  0.87855816  0.75166763  0.51189252  1
  O  O227  1  0.12938924  0.24572936  0.49090515  1
  O  O228  1  0.13834708  0.25523580  1.00213827  1
  O  O229  1  0.13355346  0.73552957  0.49160647  1
  O  O230  1  0.13596143  0.75458866  0.99234802  1
  O  O231  1  0.65075155  0.25641617  0.50742304  1
  O  O232  1  0.63018001  0.24094060  0.99370349  1
  O  O233  1  0.61842477  0.75125656  0.49205122  1
  O  O234  1  0.63085640  0.74055759  0.98878064  1
  O  O235  1  0.48763976  0.23836925  0.11086599  1
  O  O236  1  0.50528533  0.23266371  0.63593058  1
  O  O237  1  0.49435693  0.73744387  0.11441092  1
  O  O238  1  0.50407484  0.74181756  0.63700497  1
  O  O239  1  0.99246578  0.25610714  0.13348131  1
  O  O240  1  0.99857738  0.24101094  0.62814274  1
  O  O241  1  0.99315367  0.74003564  0.11437347  1
  O  O242  1  0.98854438  0.74619848  0.63329316  1
  O  O243  1  0.00777926  0.25716888  0.37087749  1
  O  O244  1  -0.00912589  0.25460436  0.86953264  1
  O  O245  1  0.01020980  0.73777364  0.37048589  1
  O  O246  1  0.00535998  0.75415143  0.87289393  1
  O  O247  1  0.49542844  0.26389418  0.35257218  1
  O  O248  1  0.50431195  0.25352801  0.86823214  1
  O  O249  1  0.50955072  0.75956209  0.37347714  1
  O  O250  1  0.50673503  0.75463438  0.86480885  1
  O  O251  1  0.23981571  0.13329510  0.49815129  1
  O  O252  1  0.24889530  0.13513100  0.99195859  1
  O  O253  1  0.24553920  0.62804418  0.49980949  1
  O  O254  1  0.25770831  0.63886577  0.99840229  1
  O  O255  1  0.74912022  0.13657893  0.50009720  1
  O  O256  1  0.74522735  0.12952028  0.99478747  1
  O  O257  1  0.74331103  0.62370704  0.49402906  1
  O  O258  1  0.74356015  0.62991069  0.99002556  1
  O  O259  1  0.25789563  0.37053629  0.00259779  1
  O  O260  1  0.24826122  0.37555502  0.51341386  1
  O  O261  1  0.25596160  0.86744046  0.00592303  1
  O  O262  1  0.24693048  0.86409140  0.50723960  1
  O  O263  1  0.76006148  0.37299169  0.00244405  1
  O  O264  1  0.75076089  0.37215165  0.51523302  1
  O  O265  1  0.75661851  0.87062133  0.00105962  1
  O  O266  1  0.74706058  0.86984152  0.52147941  1
  O  O267  1  0.13496281  0.50024440  0.24333198  1
  O  O268  1  0.13785713  0.49379423  0.75251648  1
  O  O269  1  0.13622869  0.98782306  0.24502721  1
  O  O270  1  0.13891871  0.99501174  0.74607794  1
  O  O271  1  0.64257803  0.50897471  0.24751973  1
  O  O272  1  0.63386533  0.50494014  0.73887473  1
  O  O273  1  0.62425736  0.98678261  0.23607097  1
  O  O274  1  0.62943908  0.99459737  0.73234112  1
  O  O275  1  0.36556190  0.00081261  0.25255806  1
  O  O276  1  0.36344662  -0.00412173  0.75724417  1
  O  O277  1  0.36896742  0.51059295  0.25747185  1
  O  O278  1  0.36441582  0.50235354  0.75476685  1
  O  O279  1  0.86460154  0.02468681  0.23418606  1
  O  O280  1  0.86354228  -0.00394485  0.73257148  1
  O  O281  1  0.86600768  0.50283138  0.26002839  1
  O  O282  1  0.86745961  0.50057284  0.76395024  1
  O  O283  1  0.11760761  0.36993284  0.37163102  1
  O  O284  1  0.11159322  0.37788299  0.87079361  1
  O  O285  1  0.13665479  0.85879434  0.35583751  1
  O  O286  1  0.11600820  0.86337984  0.87502404  1
  O  O287  1  0.62519267  0.37017637  0.36525406  1
  O  O288  1  0.61704215  0.36240426  0.88282904  1
  O  O289  1  0.61569635  0.86351387  0.36694447  1
  O  O290  1  0.61732258  0.86331701  0.87867213  1
  O  O291  1  0.38117433  0.13404770  0.11929870  1
  O  O292  1  0.39126722  0.12559958  0.61583665  1
  O  O293  1  0.38339508  0.62883118  0.13183947  1
  O  O294  1  0.38178150  0.61565578  0.63820570  1
  O  O295  1  0.87900858  0.14377099  0.12226399  1
  O  O296  1  0.89133646  0.12543828  0.62129244  1
  O  O297  1  0.88192343  0.63836771  0.12618815  1
  O  O298  1  0.88037894  0.63764571  0.62484896  1
  O  O299  1  0.25534751  0.25819162  0.11651823  1
  O  O300  1  0.25574534  0.25925211  0.62603604  1
  O  O301  1  0.25773210  0.75727859  0.11743523  1
  O  O302  1  0.24255011  0.75826191  0.61895812  1
  O  O303  1  0.75810419  0.26315529  0.11709537  1
  O  O304  1  0.75006410  0.26749320  0.63520756  1
  O  O305  1  0.75812349  0.75363276  0.11726843  1
  O  O306  1  0.75862460  0.75356580  0.63363935  1
  O  O307  1  0.23788178  0.25494507  0.37175845  1
  O  O308  1  0.25986285  0.24071021  0.88206633  1
  O  O309  1  0.24263680  0.73953254  0.38253010  1
  O  O310  1  0.24211365  0.75001976  0.88181050  1
  O  O311  1  0.75272237  0.25097702  0.38325752  1
  O  O312  1  0.74271560  0.24744065  0.87929654  1
  O  O313  1  0.72485289  0.75014508  0.37001341  1
  O  O314  1  0.74391117  0.74551140  0.87408388  1
  O  O315  1  0.00438686  0.11108287  0.00399317  1
  O  O316  1  0.01396454  0.13132118  0.50720144  1
  O  O317  1  -0.00444856  0.61198240  0.01010296  1
  O  O318  1  0.00842701  0.62325892  0.51534550  1
  O  O319  1  0.50768172  0.11693981  0.00344440  1
  O  O320  1  0.50238279  0.13050001  0.50321485  1
  O  O321  1  0.50821344  0.62125984  0.00075807  1
  O  O322  1  0.49590721  0.63111180  0.51609131  1
  O  O323  1  0.49329605  0.37172247  0.51198793  1
  O  O324  1  0.49700748  0.38014766  0.99340875  1
  O  O325  1  0.48192910  0.86608614  0.49240560  1
  O  O326  1  0.49529349  0.87941298  0.98795540  1
  O  O327  1  1.00696571  0.37650423  0.49074575  1
  O  O328  1  0.99621380  0.38572915  0.99328883  1
  O  O329  1  1.03749150  0.87941333  0.48303022  1
  O  O330  1  0.99325388  0.88063583  0.99705910  1
  O  O331  1  0.48929673  0.50956586  0.37866540  1
  O  O332  1  0.49902733  0.49205920  0.87603457  1
  O  O333  1  0.49918543  0.98214455  0.37398333  1
  O  O334  1  0.49470223  0.99601292  0.87433759  1
  O  O335  1  0.99297062  0.49109414  0.37701621  1
  O  O336  1  0.99489539  0.49685640  0.88021539  1
  O  O337  1  0.99409231  0.98508698  0.33968585  1
  O  O338  1  1.00615379  0.98676669  0.88702078  1
  O  O339  1  0.00407631  -0.00102981  0.11979825  1
  O  O340  1  0.01798291  0.01104852  0.63919458  1
  O  O341  1  0.00715832  0.50278619  0.11862925  1
  O  O342  1  0.00003765  0.50848744  0.62707181  1
  O  O343  1  0.50916565  0.00100391  0.11330260  1
  O  O344  1  0.50620116  0.01526746  0.62760637  1
  O  O345  1  0.50208423  0.51357662  0.11390803  1
  O  O346  1  0.51138348  0.50495481  0.63529762  1
  O  O347  1  0.25388088  0.38865441  0.24455785  1
  O  O348  1  0.24644249  0.38068468  0.74389293  1
  O  O349  1  0.24906708  0.87914477  0.24095698  1
  O  O350  1  0.24938672  0.88043562  0.74237079  1
  O  O351  1  0.75656663  0.38535349  0.23690770  1
  O  O352  1  0.74947306  0.38911782  0.74590514  1
  O  O353  1  0.73898316  0.87984710  0.23733154  1
  O  O354  1  0.75024337  0.88765869  0.74017986  1
  O  O355  1  0.25206427  0.11323768  0.25080749  1
  O  O356  1  0.25013959  0.11669487  0.75756767  1
  O  O357  1  0.25825196  0.61441078  0.25360010  1
  O  O358  1  0.25595237  0.61711084  0.75107015  1
  O  O359  1  0.76359519  0.12925737  0.24388201  1
  O  O360  1  0.74573939  0.10699434  0.74901550  1
  O  O361  1  0.75707550  0.61860131  0.25717229  1
  O  O362  1  0.74678293  0.61615538  0.76091235  1
  O  O363  1  0.37251900  0.12608090  0.37245153  1
  O  O364  1  0.36747161  0.11236106  0.88220395  1
  O  O365  1  0.37131975  0.62120567  0.37018392  1
  O  O366  1  0.37451462  0.61656297  0.86337964  1
  O  O367  1  0.87715308  0.12869372  0.36362422  1
  O  O368  1  0.88461267  0.13744290  0.86435489  1
  O  O369  1  0.87637565  0.61518638  0.37184326  1
  O  O370  1  0.86514622  0.61804063  0.88272166  1
  O  O371  1  0.13281893  0.38823852  0.12886634  1
  O  O372  1  0.13206407  0.37631904  0.63448354  1
  O  O373  1  0.13944628  0.86932484  0.13417405  1
  O  O374  1  0.13539833  0.88342015  0.62763320  1
  O  O375  1  0.64224203  0.38732462  0.10565558  1
  O  O376  1  0.63313460  0.38560966  0.62984771  1
  O  O377  1  0.62610506  0.87903898  0.12579475  1
  O  O378  1  0.63577440  0.86889757  0.63311259  1
  O  O379  1  0.11658839  0.25231741  0.25671326  1
  O  O380  1  0.13271945  0.26151872  0.75404275  1
  O  O381  1  0.13401178  0.74996852  0.25959752  1
  O  O382  1  0.11448052  0.75194133  0.75938544  1
  O  O383  1  0.60838629  0.27632494  0.22197384  1
  O  O384  1  0.61453650  0.24248418  0.76342353  1
  O  O385  1  0.62466476  0.76054099  0.24388715  1
  O  O386  1  0.61516192  0.74111427  0.75907349  1
  O  O387  1  0.36682685  0.25034436  0.23267132  1
  O  O388  1  0.39284130  0.25365300  0.74632460  1
  O  O389  1  0.36778277  0.73549773  0.24438454  1
  O  O390  1  0.38231109  0.73866563  0.75574650  1
  O  O391  1  0.87898020  0.24569212  0.24482701  1
  O  O392  1  0.87611356  0.25129457  0.74715505  1
  O  O393  1  0.88149926  0.75515577  0.24544206  1
  O  O394  1  0.88607305  0.74685760  0.75425971  1
  O  O395  1  0.37341357  0.48620972  0.49424617  1
  O  O396  1  0.38217837  0.49521762  0.99278709  1
  O  O397  1  0.36178225  0.98502338  0.49475824  1
  O  O398  1  0.38054530  0.99349386  0.99097788  1
  O  O399  1  0.87692079  0.50287864  0.48902526  1
  O  O400  1  0.88222511  0.49746848  0.99102324  1
  O  O401  1  0.89160789  0.98687446  0.52354943  1
  O  O402  1  0.88226622  0.98940406  1.00820275  1
  O  O403  1  0.11690884  -0.00399957  0.00614184  1
  O  O404  1  0.13618688  0.01429317  0.51363571  1
  O  O405  1  0.11695062  0.49704324  0.00819711  1
  O  O406  1  0.12387052  0.51242454  0.50212550  1
  O  O407  1  0.62228166  0.00535027  -0.00012882  1
  O  O408  1  0.62008092  -0.01861800  0.52660884  1
  O  O409  1  0.62208851  0.51460284  -0.00452470  1
  O  O410  1  0.62475038  0.49717978  0.51797850  1
  O  O411  1  0.37078783  0.37158357  0.11746269  1
  O  O412  1  0.36875143  0.37473892  0.61453235  1
  O  O413  1  0.37176555  0.86861901  0.11910333  1
  O  O414  1  0.36079000  0.87978326  0.61661038  1
  O  O415  1  0.87013087  0.36978135  0.12054845  1
  O  O416  1  0.86032935  0.37838625  0.62958608  1
  O  O417  1  0.86884813  0.86296627  0.11435242  1
  O  O418  1  0.86252619  0.85310476  0.63400982  1
  O  O419  1  0.12754657  0.13522308  0.38223600  1
  O  O420  1  0.13977522  0.11999866  0.87952717  1
  O  O421  1  0.13115224  0.62662170  0.38099785  1
  O  O422  1  0.12606773  0.63800290  0.87411230  1
  O  O423  1  0.62301824  0.13797143  0.34071945  1
  O  O424  1  0.62587570  0.13042619  0.88605073  1
  O  O425  1  0.61552326  0.64011082  0.37936916  1
  O  O426  1  0.63162524  0.63268169  0.87925594  1
