# generated using pymatgen
data_V85Zn86O256
_symmetry_space_group_name_H-M   'P 1'
_cell_length_a   16.91439885
_cell_length_b   16.91532354
_cell_length_c   16.92058894
_cell_angle_alpha   90.02041803
_cell_angle_beta   90.02701159
_cell_angle_gamma   89.98877370
_symmetry_Int_Tables_number   1
_chemical_formula_structural   V85Zn86O256
_chemical_formula_sum   'V85 Zn86 O256'
_cell_volume   4841.19155217
_cell_formula_units_Z   1
loop_
 _symmetry_equiv_pos_site_id
 _symmetry_equiv_pos_as_xyz
  1  'x, y, z'
loop_
 _atom_site_type_symbol
 _atom_site_label
 _atom_site_symmetry_multiplicity
 _atom_site_fract_x
 _atom_site_fract_y
 _atom_site_fract_z
 _atom_site_occupancy
  V  V0  1  0.50135558  -0.00094779  0.00187917  1
  V  V1  1  0.37815388  0.62285867  0.75323488  1
  V  V2  1  0.00099100  0.12556995  0.12371016  1
  V  V3  1  0.87941661  0.74427113  0.12428229  1
  V  V4  1  0.49560176  0.12101920  0.13595697  1
  V  V5  1  0.74791593  0.75330415  0.00631084  1
  V  V6  1  0.35819250  0.37018420  0.50481491  1
  V  V7  1  -0.01010363  0.25164175  0.24276947  1
  V  V8  1  0.12418559  -0.00077839  0.61685024  1
  V  V9  1  0.87164946  0.62764271  0.74219673  1
  V  V10  1  0.49110723  0.49507505  0.00340667  1
  V  V11  1  0.50121472  0.75289919  0.25460011  1
  V  V12  1  0.75189315  0.25420511  0.01472119  1
  V  V13  1  0.63986954  -0.00439290  0.12504185  1
  V  V14  1  0.61766257  0.36892250  0.74959106  1
  V  V15  1  -0.00100017  0.87389516  0.87356029  1
  V  V16  1  0.74809045  0.62423048  0.87506257  1
  V  V17  1  0.75471917  0.12933905  0.87260034  1
  V  V18  1  0.62912940  0.37501815  0.24628329  1
  V  V19  1  0.62269920  0.62162330  0.00423981  1
  V  V20  1  0.25187071  -0.00264223  0.74836576  1
  V  V21  1  0.12041137  0.24883309  0.87763820  1
  V  V22  1  0.26013370  0.25606601  -0.00288416  1
  V  V23  1  0.00129253  0.51022075  0.00194604  1
  V  V24  1  0.62016325  0.24836459  0.87404313  1
  V  V25  1  0.87662443  0.25004497  0.64007525  1
  V  V26  1  0.25021984  0.87145328  0.62007070  1
  V  V27  1  0.25008457  0.50908656  0.25119647  1
  V  V28  1  -0.00592235  0.75057278  0.74071170  1
  V  V29  1  0.87083150  0.36783303  0.49515800  1
  V  V30  1  -0.00489900  0.37142045  0.86846143  1
  V  V31  1  0.37708382  -0.00081217  0.87286196  1
  V  V32  1  0.63218076  0.25094703  0.38083281  1
  V  V33  1  0.62267301  0.49844189  0.62534366  1
  V  V34  1  0.25156654  0.11856522  0.35476783  1
  V  V35  1  0.13647267  0.75115134  0.37071006  1
  V  V36  1  0.49766494  0.37301876  0.37723466  1
  V  V37  1  0.63071647  0.12773877  0.50112024  1
  V  V38  1  0.75963789  0.11902244  0.37575770  1
  V  V39  1  0.36992667  0.50830464  0.37652362  1
  V  V40  1  0.62582464  0.75364096  0.37822445  1
  V  V41  1  0.87789829  0.61832754  0.25088216  1
  V  V42  1  0.37591030  0.74960805  0.12495421  1
  V  V43  1  0.62189615  0.87340797  0.74824591  1
  V  V44  1  0.87782338  0.00395262  0.87126265  1
  V  V45  1  0.50143605  0.13172691  0.62518328  1
  V  V46  1  0.37399224  0.25295409  0.13642399  1
  V  V47  1  0.63650860  0.86996433  0.24635037  1
  V  V48  1  0.12306099  0.88887953  0.24395355  1
  V  V49  1  0.12158500  0.74356332  0.87239125  1
  V  V50  1  0.50423302  -0.00334472  0.49277755  1
  V  V51  1  0.37704449  0.74958688  0.63098922  1
  V  V52  1  0.50099882  0.62893956  0.62823045  1
  V  V53  1  -0.00255696  0.00881667  0.49210249  1
  V  V54  1  0.12370416  0.51784176  0.12090420  1
  V  V55  1  0.24427808  0.88880088  0.12362937  1
  V  V56  1  0.49317433  0.37167367  0.87745686  1
  V  V57  1  0.13139296  0.24919888  0.37067366  1
  V  V58  1  0.75229881  0.00226154  0.74821415  1
  V  V59  1  0.38193291  0.87262271  0.49452438  1
  V  V60  1  0.12673252  0.37702742  0.24206978  1
  V  V61  1  0.74804527  0.49837075  0.75131098  1
  V  V62  1  -0.00500397  0.13012058  0.63314426  1
  V  V63  1  -0.00397829  0.37961609  0.37124783  1
  V  V64  1  -0.00900165  0.50407558  0.49567812  1
  V  V65  1  0.74757989  0.36872531  0.62002647  1
  V  V66  1  0.61879991  0.74926493  0.87286356  1
  V  V67  1  0.37379975  0.87364146  -0.00161133  1
  V  V68  1  0.24700350  0.49253967  0.74645937  1
  V  V69  1  0.87743422  0.87839065  0.50032416  1
  V  V70  1  0.01083873  -0.00044981  0.00362875  1
  V  V71  1  0.12371168  0.49669935  0.62302910  1
  V  V72  1  0.49988078  0.87231160  0.87188461  1
  V  V73  1  0.62594097  0.12556806  0.00329390  1
  V  V74  1  0.87414397  0.37262971  0.01389036  1
  V  V75  1  0.75934022  0.74773746  0.50615080  1
  V  V76  1  0.87188318  0.87739383  0.00554542  1
  V  V77  1  0.18312820  0.18476770  0.54686941  1
  V  V78  1  0.75471341  0.61754251  0.37484258  1
  V  V79  1  0.24158614  0.74709411  0.00118610  1
  V  V80  1  0.13165205  0.62544686  0.49417631  1
  V  V81  1  0.49797481  0.50011469  0.50127157  1
  V  V82  1  0.00309639  0.74532610  0.24796595  1
  V  V83  1  0.38073567  0.13108000  0.74941015  1
  V  V84  1  0.24622796  0.62150561  0.87730309  1
  Zn  Zn85  1  -0.00411709  0.88103257  0.36990272  1
  Zn  Zn86  1  0.25769211  0.38205703  0.11918444  1
  Zn  Zn87  1  0.76358821  -0.01229796  0.25499243  1
  Zn  Zn88  1  0.49622075  0.24206763  0.25857212  1
  Zn  Zn89  1  0.62691605  0.62570419  0.49978068  1
  Zn  Zn90  1  0.37199759  0.63379794  0.25868500  1
  Zn  Zn91  1  0.24985497  0.12184835  0.87929092  1
  Zn  Zn92  1  -0.00442727  0.62941529  0.61896512  1
  Zn  Zn93  1  0.25506689  0.74518459  0.49272907  1
  Zn  Zn94  1  0.75614056  0.86848116  0.62950622  1
  Zn  Zn95  1  0.36928483  0.49237179  0.87973001  1
  Zn  Zn96  1  0.38358889  0.01323923  0.36016635  1
  Zn  Zn97  1  0.12141929  0.37096703  0.74444977  1
  Zn  Zn98  1  0.12260929  0.87273745  0.74646204  1
  Zn  Zn99  1  0.87494873  0.11920244  0.24346123  1
  Zn  Zn100  1  0.62659290  -0.00087780  0.62407768  1
  Zn  Zn101  1  0.36666318  0.25190819  0.62316124  1
  Zn  Zn102  1  0.87311229  0.49973850  0.87699895  1
  Zn  Zn103  1  0.12981121  0.12302826  0.00368068  1
  Zn  Zn104  1  0.75711979  0.49313809  0.24613395  1
  Zn  Zn105  1  0.49776354  0.62087442  0.12958921  1
  Zn  Zn106  1  0.62829538  0.49245380  0.12336561  1
  Zn  Zn107  1  0.18313382  0.18785358  0.18235165  1
  Zn  Zn108  1  0.18381247  0.18234168  0.70838899  1
  Zn  Zn109  1  0.19026703  0.69198788  0.18880459  1
  Zn  Zn110  1  0.18516794  0.68180087  0.68596361  1
  Zn  Zn111  1  0.68391731  0.18567700  0.19448378  1
  Zn  Zn112  1  0.68933663  0.18847762  0.68821866  1
  Zn  Zn113  1  0.69138690  0.68310544  0.18674091  1
  Zn  Zn114  1  0.68535046  0.68869555  0.68791747  1
  Zn  Zn115  1  0.30897976  0.31753227  0.31374807  1
  Zn  Zn116  1  0.30904543  0.31057157  0.81116424  1
  Zn  Zn117  1  0.32711369  0.84950182  0.29462969  1
  Zn  Zn118  1  0.31121119  0.81006519  0.81043398  1
  Zn  Zn119  1  0.81054682  0.30811651  0.31545684  1
  Zn  Zn120  1  0.80820554  0.31558528  0.81740856  1
  Zn  Zn121  1  0.81594173  0.80802795  0.31865558  1
  Zn  Zn122  1  0.81051876  0.81299880  0.81622225  1
  Zn  Zn123  1  0.18291616  0.44027786  0.43304289  1
  Zn  Zn124  1  0.18205967  0.43542261  0.93842838  1
  Zn  Zn125  1  0.18736203  0.93903943  0.43296096  1
  Zn  Zn126  1  0.18762598  0.93128642  0.93292725  1
  Zn  Zn127  1  0.68673185  0.43955832  0.43660931  1
  Zn  Zn128  1  0.68597395  0.43551259  0.94033927  1
  Zn  Zn129  1  0.68978952  0.93530350  0.43792539  1
  Zn  Zn130  1  0.68923147  0.93790482  0.93630465  1
  Zn  Zn131  1  0.31508291  0.06826647  0.06189699  1
  Zn  Zn132  1  0.32116500  0.05612128  0.56008028  1
  Zn  Zn133  1  0.31118631  0.56542484  0.06345587  1
  Zn  Zn134  1  0.31078507  0.56030522  0.56364105  1
  Zn  Zn135  1  0.81957059  0.06799110  0.06100393  1
  Zn  Zn136  1  0.81556708  0.06474188  0.56172260  1
  Zn  Zn137  1  0.81039440  0.55835492  0.06651580  1
  Zn  Zn138  1  0.81142810  0.55819201  0.56249643  1
  Zn  Zn139  1  0.43942185  0.43571191  0.19062182  1
  Zn  Zn140  1  0.43421086  0.43625603  0.68768789  1
  Zn  Zn141  1  0.44485271  0.93451714  0.18887274  1
  Zn  Zn142  1  0.44191534  0.94133894  0.68224185  1
  Zn  Zn143  1  0.94150110  0.44075449  0.18351882  1
  Zn  Zn144  1  0.93499798  0.44176004  0.68505318  1
  Zn  Zn145  1  0.93680393  0.93831553  0.18518478  1
  Zn  Zn146  1  0.93670247  0.93776120  0.68309616  1
  Zn  Zn147  1  0.06422995  0.06927472  0.31225085  1
  Zn  Zn148  1  0.06568425  0.06178088  0.81278907  1
  Zn  Zn149  1  0.06339170  0.56484933  0.31274555  1
  Zn  Zn150  1  0.05845043  0.56093638  0.81248800  1
  Zn  Zn151  1  0.57304906  0.05779060  0.31302223  1
  Zn  Zn152  1  0.56384130  0.06223709  0.81170309  1
  Zn  Zn153  1  0.56177599  0.56497232  0.31394287  1
  Zn  Zn154  1  0.55972944  0.55793181  0.81542070  1
  Zn  Zn155  1  0.43444511  0.18736603  0.43886563  1
  Zn  Zn156  1  0.43784819  0.18497063  0.94083694  1
  Zn  Zn157  1  0.44041693  0.69036970  0.44038687  1
  Zn  Zn158  1  0.43606824  0.68451870  0.93901497  1
  Zn  Zn159  1  0.94278949  0.19311383  0.44138333  1
  Zn  Zn160  1  0.93650064  0.18867546  0.94167566  1
  Zn  Zn161  1  0.94020006  0.69381836  0.43202409  1
  Zn  Zn162  1  0.93268790  0.68748160  0.93120699  1
  Zn  Zn163  1  0.06243022  0.31448911  0.06019590  1
  Zn  Zn164  1  0.05352527  0.31818087  0.56381232  1
  Zn  Zn165  1  0.06079312  0.81101000  0.06323508  1
  Zn  Zn166  1  0.06202308  0.81380566  0.55741687  1
  Zn  Zn167  1  0.55716495  0.30838171  0.06285608  1
  Zn  Zn168  1  0.55759730  0.31004759  0.56014690  1
  Zn  Zn169  1  0.56235342  0.81309853  0.06506753  1
  Zn  Zn170  1  0.56628023  0.81124624  0.56469083  1
  O  O171  1  0.11057725  0.12704787  0.11986725  1
  O  O172  1  0.12470005  0.12472179  0.61645908  1
  O  O173  1  0.12912831  0.61724147  0.12470361  1
  O  O174  1  0.11885265  0.61606520  0.61508662  1
  O  O175  1  0.61802675  0.11680293  0.12212728  1
  O  O176  1  0.62119769  0.12468728  0.61860743  1
  O  O177  1  0.62097201  0.62890947  0.11142792  1
  O  O178  1  0.61578592  0.61854968  0.62689611  1
  O  O179  1  0.37993715  0.38235995  0.38413299  1
  O  O180  1  0.38942527  0.37132656  0.86763892  1
  O  O181  1  0.37763627  0.85248113  0.39710811  1
  O  O182  1  0.38031037  0.87729869  0.87724028  1
  O  O183  1  0.88310369  0.37027656  0.38158114  1
  O  O184  1  0.88330185  0.37739378  0.88180184  1
  O  O185  1  0.87810759  0.87270009  0.39152291  1
  O  O186  1  0.88040395  0.88048266  0.88463469  1
  O  O187  1  0.24875348  0.01669918  0.37502267  1
  O  O188  1  0.25682539  -0.00366419  0.86497512  1
  O  O189  1  0.25784109  0.49575189  0.36483874  1
  O  O190  1  0.24802656  0.50644652  0.87129500  1
  O  O191  1  0.74488129  0.01515990  0.37407111  1
  O  O192  1  0.75698375  0.00799372  0.86885994  1
  O  O193  1  0.74687877  0.51360103  0.37079004  1
  O  O194  1  0.74714862  0.50605699  0.86910922  1
  O  O195  1  0.24287411  0.49934657  0.12891576  1
  O  O196  1  0.23867691  0.50666307  0.63505981  1
  O  O197  1  0.25372937  0.98758320  0.11470667  1
  O  O198  1  0.24560019  0.99337205  0.62810367  1
  O  O199  1  0.74050076  0.50484250  0.13362075  1
  O  O200  1  0.74333056  0.48822484  0.63056201  1
  O  O201  1  0.74173465  1.00670607  0.12306981  1
  O  O202  1  0.75254624  1.00366016  0.64053797  1
  O  O203  1  0.00465409  0.37155510  0.25394338  1
  O  O204  1  -0.00218480  0.38302333  0.76539351  1
  O  O205  1  0.01070773  0.86655621  0.24575357  1
  O  O206  1  -0.00121201  0.86791304  0.75509076  1
  O  O207  1  0.50529538  0.37187641  0.26582680  1
  O  O208  1  0.51130193  0.37959722  0.75626236  1
  O  O209  1  0.51864423  0.85895291  0.24445554  1
  O  O210  1  0.51313995  0.88168615  0.75441838  1
  O  O211  1  0.50602979  0.12179311  0.24025836  1
  O  O212  1  0.49146739  0.11744898  0.74086343  1
  O  O213  1  0.49699695  0.63706705  0.24834834  1
  O  O214  1  0.48638570  0.61733784  0.74564230  1
  O  O215  1  1.00085034  0.13557871  0.24312303  1
  O  O216  1  1.00821561  0.11986446  0.73237331  1
  O  O217  1  0.99329616  0.63632075  0.25405065  1
  O  O218  1  0.98864581  0.63211525  0.75015242  1
  O  O219  1  0.36410543  0.24792264  0.00638620  1
  O  O220  1  0.37354244  0.26596414  0.50067590  1
  O  O221  1  0.36503025  0.75354437  0.00397125  1
  O  O222  1  0.37399970  0.75031311  0.51610062  1
  O  O223  1  0.86674619  0.26389301  -0.00289067  1
  O  O224  1  0.87922171  0.26494016  0.51062318  1
  O  O225  1  0.86886258  0.75467178  0.00365895  1
  O  O226  1  0.87063381  0.76016773  0.49939751  1
  O  O227  1  0.12364822  0.25187407  0.49308630  1
  O  O228  1  0.13511856  0.25113404  0.99205046  1
  O  O229  1  0.12584413  0.74357463  0.49036233  1
  O  O230  1  0.13462024  0.75314152  0.99174506  1
  O  O231  1  0.62143695  0.24055804  0.49339560  1
  O  O232  1  0.63173703  0.24613190  0.99455595  1
  O  O233  1  0.63289414  0.74810228  0.49311794  1
  O  O234  1  0.63029698  0.74495202  0.99457593  1
  O  O235  1  0.48901883  0.24065369  0.12839979  1
  O  O236  1  0.49509140  0.23589245  0.62183282  1
  O  O237  1  0.49087529  0.74821664  0.12986394  1
  O  O238  1  0.49485861  0.73671593  0.62517521  1
  O  O239  1  1.00546407  0.24586802  0.13403448  1
  O  O240  1  0.98665266  0.24696665  0.62568339  1
  O  O241  1  0.99121405  0.75050802  0.13171494  1
  O  O242  1  1.00532498  0.74965067  0.63731207  1
  O  O243  1  0.01122407  0.25927852  0.36881690  1
  O  O244  1  0.00442397  0.26271930  0.88234575  1
  O  O245  1  0.00913046  0.75799267  0.36286065  1
  O  O246  1  0.00571345  0.75285637  0.86736329  1
  O  O247  1  0.50698224  0.25641230  0.37755178  1
  O  O248  1  0.51199593  0.25434291  0.88283868  1
  O  O249  1  0.51204853  0.74414145  0.36789508  1
  O  O250  1  0.51127438  0.75385766  0.88038420  1
  O  O251  1  0.24717027  0.12489666  0.49718471  1
  O  O252  1  0.24880954  0.13845602  0.99832344  1
  O  O253  1  0.23636147  0.62533825  0.50238142  1
  O  O254  1  0.25395456  0.63224578  0.98576072  1
  O  O255  1  0.73878253  0.12004092  0.49287548  1
  O  O256  1  0.74593775  0.13153671  0.99038410  1
  O  O257  1  0.75237767  0.62932956  0.49358416  1
  O  O258  1  0.74222686  0.63064234  0.99346399  1
  O  O259  1  0.24811113  0.36172732  0.00142450  1
  O  O260  1  0.25973949  0.37964087  0.49679234  1
  O  O261  1  0.25407138  0.86561930  0.00287221  1
  O  O262  1  0.25750300  0.87483073  0.50961943  1
  O  O263  1  0.76325457  0.36891920  -0.00404765  1
  O  O264  1  0.75737605  0.38187570  0.50867586  1
  O  O265  1  0.75924894  0.86561898  -0.00761881  1
  O  O266  1  0.76020656  0.86827614  0.50204297  1
  O  O267  1  0.12973755  0.49724842  0.24226653  1
  O  O268  1  0.12932441  0.50188390  0.74096920  1
  O  O269  1  0.11845558  0.98722749  0.24965825  1
  O  O270  1  0.13438225  0.99833125  0.73730129  1
  O  O271  1  0.62045632  0.48294448  0.25392807  1
  O  O272  1  0.62868909  0.49236238  0.74464245  1
  O  O273  1  0.63296881  0.98790034  0.24221093  1
  O  O274  1  0.63499948  0.99195068  0.75124405  1
  O  O275  1  0.36956252  -0.04519603  0.26610488  1
  O  O276  1  0.36966783  0.00512695  0.75203022  1
  O  O277  1  0.36805604  0.50088907  0.25861368  1
  O  O278  1  0.36486085  0.50618597  0.75212339  1
  O  O279  1  0.87456731  0.00414832  0.24831817  1
  O  O280  1  0.86901383  -0.00676356  0.76333959  1
  O  O281  1  0.87906074  0.51401803  0.24589000  1
  O  O282  1  0.86528176  0.50697161  0.75244515  1
  O  O283  1  0.11871716  0.37101148  0.36252272  1
  O  O284  1  0.10996685  0.36971444  0.87553494  1
  O  O285  1  0.12272583  0.87110862  0.36103888  1
  O  O286  1  0.11874075  0.86182753  0.86876232  1
  O  O287  1  0.61761759  0.36800794  0.37360744  1
  O  O288  1  0.61808667  0.36721274  0.86821840  1
  O  O289  1  0.63189431  0.86076210  0.36758073  1
  O  O290  1  0.62058797  0.86768319  0.87011859  1
  O  O291  1  0.38457385  0.13659944  0.12261297  1
  O  O292  1  0.38216766  0.12565437  0.63045868  1
  O  O293  1  0.37427823  0.63956559  0.12746146  1
  O  O294  1  0.37977276  0.62954606  0.63236629  1
  O  O295  1  0.89197002  0.12835316  0.12335006  1
  O  O296  1  0.87774257  0.14207831  0.62430281  1
  O  O297  1  0.87074615  0.63764112  0.13178649  1
  O  O298  1  0.87401087  0.62172944  0.63769129  1
  O  O299  1  0.26043754  0.25154329  0.11716801  1
  O  O300  1  0.23821441  0.23661656  0.61555310  1
  O  O301  1  0.25474228  0.75563641  0.11508686  1
  O  O302  1  0.25589485  0.75661492  0.62439546  1
  O  O303  1  0.74355620  0.24226294  0.11336901  1
  O  O304  1  0.75920927  0.26078821  0.62758510  1
  O  O305  1  0.75598829  0.74730944  0.11126000  1
  O  O306  1  0.74578170  0.74773191  0.61041663  1
  O  O307  1  0.23870404  0.24447275  0.36974102  1
  O  O308  1  0.24544211  0.24900346  0.88581280  1
  O  O309  1  0.23771436  0.75793146  0.37328246  1
  O  O310  1  0.24162743  0.74395116  0.87875582  1
  O  O311  1  0.73819036  0.24052456  0.37712276  1
  O  O312  1  0.74056357  0.24456323  0.88207874  1
  O  O313  1  0.74546564  0.74051892  0.38678699  1
  O  O314  1  0.73949074  0.74438173  0.88455804  1
  O  O315  1  0.00199400  0.11598191  0.00379563  1
  O  O316  1  -0.00422889  0.11872829  0.51246304  1
  O  O317  1  -0.00746945  0.60869709  -0.00937590  1
  O  O318  1  0.00446936  0.61879080  0.49719178  1
  O  O319  1  0.50716662  0.11850002  0.00994806  1
  O  O320  1  0.50936891  0.11943685  0.50476239  1
  O  O321  1  0.50668631  0.61546158  0.00047059  1
  O  O322  1  0.50096514  0.61802041  0.51126076  1
  O  O323  1  0.49461740  0.38150866  0.49137787  1
  O  O324  1  0.50697726  0.38268379  0.99029182  1
  O  O325  1  0.49500455  0.88448735  0.51067050  1
  O  O326  1  0.49397445  0.87915660  0.99388126  1
  O  O327  1  0.99236321  0.38311534  0.48986755  1
  O  O328  1  0.98848429  0.38089124  0.99373807  1
  O  O329  1  0.99151936  0.88427143  0.49905721  1
  O  O330  1  0.99380008  0.88103860  0.99347296  1
  O  O331  1  0.49226205  0.49383880  0.38123048  1
  O  O332  1  0.49673734  0.48899090  0.88341612  1
  O  O333  1  0.50143231  1.00695251  0.38755511  1
  O  O334  1  0.49667912  0.99348144  0.88135161  1
  O  O335  1  1.00516472  0.48781391  0.37990461  1
  O  O336  1  0.99911875  0.48930531  0.88534378  1
  O  O337  1  1.00764348  1.00271331  0.38875917  1
  O  O338  1  0.99363842  0.99524053  0.87813103  1
  O  O339  1  -0.00268406  0.00607713  0.11095027  1
  O  O340  1  0.00777809  0.00752861  0.61862922  1
  O  O341  1  0.00760750  0.50120114  0.11088503  1
  O  O342  1  0.00378912  0.50426244  0.61407579  1
  O  O343  1  0.50655541  0.00413577  0.12005541  1
  O  O344  1  0.50273098  0.01216344  0.61300918  1
  O  O345  1  0.50472141  0.50026637  0.11860559  1
  O  O346  1  0.50219282  0.50847453  0.62217539  1
  O  O347  1  0.24198264  0.38672022  0.24511007  1
  O  O348  1  0.24540692  0.38862329  0.75532362  1
  O  O349  1  0.23006840  0.86686837  0.23561506  1
  O  O350  1  0.25134381  0.88287978  0.73842798  1
  O  O351  1  0.73353033  0.37431951  0.26010463  1
  O  O352  1  0.73797769  0.37906820  0.74454544  1
  O  O353  1  0.74197352  0.86844786  0.25226068  1
  O  O354  1  0.74204800  0.88301072  0.75238367  1
  O  O355  1  0.24791823  0.12493914  0.25559029  1
  O  O356  1  0.25877805  0.10977585  0.75394170  1
  O  O357  1  0.25322645  0.61410554  0.24802700  1
  O  O358  1  0.25667235  0.61801594  0.75953329  1
  O  O359  1  0.75222336  0.12606705  0.26594298  1
  O  O360  1  0.74425609  0.11856014  0.76447202  1
  O  O361  1  0.76067037  0.62718234  0.25892880  1
  O  O362  1  0.75247759  0.62041946  0.75474747  1
  O  O363  1  0.35778426  0.12829181  0.37568537  1
  O  O364  1  0.37656219  0.11763385  0.86692048  1
  O  O365  1  0.37809101  0.61256901  0.37891509  1
  O  O366  1  0.36689473  0.62319981  0.86720528  1
  O  O367  1  0.86025601  0.13427036  0.38246883  1
  O  O368  1  0.86719664  0.11701483  0.87976669  1
  O  O369  1  0.86720805  0.63275176  0.36395458  1
  O  O370  1  0.86412512  0.62178282  0.86458114  1
  O  O371  1  0.12454999  0.38304414  0.13455128  1
  O  O372  1  0.11724064  0.39003057  0.62606998  1
  O  O373  1  0.12993675  0.87372233  0.13265141  1
  O  O374  1  0.13341404  0.88144189  0.62495622  1
  O  O375  1  0.61655412  0.36885529  0.14406138  1
  O  O376  1  0.62873977  0.37463450  0.63024693  1
  O  O377  1  0.62636772  0.88392029  0.13052069  1
  O  O378  1  0.63177313  0.87708496  0.63509820  1
  O  O379  1  0.11971087  0.26042893  0.25420122  1
  O  O380  1  0.12878130  0.25642047  0.76967751  1
  O  O381  1  0.11819233  0.75297921  0.25388734  1
  O  O382  1  0.11680888  0.74912395  0.75581879  1
  O  O383  1  0.61957217  0.25867016  0.26135406  1
  O  O384  1  0.62827529  0.25704064  0.76050854  1
  O  O385  1  0.62280400  0.75155088  0.25491483  1
  O  O386  1  0.63010331  0.75930192  0.76128118  1
  O  O387  1  0.37497645  0.25176475  0.24005564  1
  O  O388  1  0.36382974  0.23494946  0.74361243  1
  O  O389  1  0.38305207  0.75561205  0.24278930  1
  O  O390  1  0.37102375  0.74043500  0.73942401  1
  O  O391  1  0.88730366  0.24779613  0.25460452  1
  O  O392  1  0.87139259  0.25722319  0.73898014  1
  O  O393  1  0.88274846  0.74624496  0.24170881  1
  O  O394  1  0.88180314  0.74253209  0.75661586  1
  O  O395  1  0.37745496  0.49165770  0.49545162  1
  O  O396  1  0.38629056  0.50310416  0.99944864  1
  O  O397  1  0.38470291  0.98887336  0.49229695  1
  O  O398  1  0.38061247  0.99473925  0.99250929  1
  O  O399  1  0.88581834  0.48982016  0.50443905  1
  O  O400  1  0.88272983  0.49089762  0.99984128  1
  O  O401  1  0.88390134  0.99168653  0.50310251  1
  O  O402  1  0.87988152  0.99285562  0.98975059  1
  O  O403  1  0.11376246  -0.00136850  -0.01032163  1
  O  O404  1  0.11806018  -0.00548989  0.51106422  1
  O  O405  1  0.11102767  0.49682231  0.00670123  1
  O  O406  1  0.11494836  0.50638202  0.50235789  1
  O  O407  1  0.62173987  0.00353521  0.00635810  1
  O  O408  1  0.62089130  0.00519122  0.50270456  1
  O  O409  1  0.61557903  0.50725777  -0.00033602  1
  O  O410  1  0.61721468  0.50199863  0.50796723  1
  O  O411  1  0.37770201  0.35853556  0.12648878  1
  O  O412  1  0.37563902  0.37315825  0.61067317  1
  O  O413  1  0.36782969  0.86473390  0.11634635  1
  O  O414  1  0.37051416  0.86701654  0.62165658  1
  O  O415  1  0.87786718  0.37504323  0.11301209  1
  O  O416  1  0.86755388  0.36805208  0.62078385  1
  O  O417  1  0.87845529  0.86452647  0.11090622  1
  O  O418  1  0.87257345  0.87668339  0.60977270  1
  O  O419  1  0.13756874  0.13593999  0.37262116  1
  O  O420  1  0.12753968  0.13327149  0.87848079  1
  O  O421  1  0.12130506  0.63594884  0.38259017  1
  O  O422  1  0.13072906  0.63505896  0.86991537  1
  O  O423  1  0.63262177  0.13226875  0.38209617  1
  O  O424  1  0.62989370  0.13123827  0.88180959  1
  O  O425  1  0.63487010  0.63472449  0.37575403  1
  O  O426  1  0.62632445  0.63123881  0.88269151  1
