# generated using pymatgen
data_V85Zn86O256
_symmetry_space_group_name_H-M   'P 1'
_cell_length_a   16.92957794
_cell_length_b   16.93978397
_cell_length_c   16.92978300
_cell_angle_alpha   89.85025275
_cell_angle_beta   89.94685917
_cell_angle_gamma   90.00703581
_symmetry_Int_Tables_number   1
_chemical_formula_structural   V85Zn86O256
_chemical_formula_sum   'V85 Zn86 O256'
_cell_volume   4855.16190391
_cell_formula_units_Z   1
loop_
 _symmetry_equiv_pos_site_id
 _symmetry_equiv_pos_as_xyz
  1  'x, y, z'
loop_
 _atom_site_type_symbol
 _atom_site_label
 _atom_site_symmetry_multiplicity
 _atom_site_fract_x
 _atom_site_fract_y
 _atom_site_fract_z
 _atom_site_occupancy
  V  V0  1  0.24778663  0.88037579  0.62822076  1
  V  V1  1  0.49867550  0.87644592  0.86963462  1
  V  V2  1  0.74509517  0.37352535  0.12882207  1
  V  V3  1  0.37676973  0.25291129  0.12299767  1
  V  V4  1  0.73997657  0.12872242  0.37389666  1
  V  V5  1  0.49830342  0.87515678  0.37708426  1
  V  V6  1  0.24939527  0.74747210  0.50355150  1
  V  V7  1  -0.00137440  0.12034256  0.11351525  1
  V  V8  1  0.62547509  0.75610331  0.86907169  1
  V  V9  1  0.11714608  0.75184125  0.38251671  1
  V  V10  1  0.75049161  0.75554115  0.00127618  1
  V  V11  1  -0.01020113  0.36743411  0.38887930  1
  V  V12  1  0.24988534  0.25251366  0.49045817  1
  V  V13  1  0.75733554  0.37788838  0.61967026  1
  V  V14  1  -0.01022582  0.12580941  0.62510574  1
  V  V15  1  0.75113760  0.24849576  -0.00306155  1
  V  V16  1  0.75904914  0.62729264  0.36719582  1
  V  V17  1  0.74948035  0.75157162  0.50138536  1
  V  V18  1  0.24315845  0.62348464  0.38105075  1
  V  V19  1  0.88987483  -0.00180724  0.87279579  1
  V  V20  1  0.24913231  0.49847058  0.25124777  1
  V  V21  1  0.62243310  0.74680375  0.37442591  1
  V  V22  1  0.12424653  0.62219639  -0.01325507  1
  V  V23  1  0.50065479  0.00726968  0.50257710  1
  V  V24  1  0.87643792  0.12196275  0.24855856  1
  V  V25  1  0.49326740  0.62559316  0.63057830  1
  V  V26  1  -0.00457258  0.50488700  0.00115147  1
  V  V27  1  0.24882103  0.37526494  0.12346726  1
  V  V28  1  0.75447235  0.12267478  0.86866119  1
  V  V29  1  0.88024994  0.75112004  0.62866844  1
  V  V30  1  0.24641560  0.74755216  -0.00107191  1
  V  V31  1  0.87946940  0.62527818  0.75446652  1
  V  V32  1  0.11949994  0.36774158  0.25609223  1
  V  V33  1  0.75627466  0.49988297  0.75738016  1
  V  V34  1  0.37234830  0.75191892  0.63667968  1
  V  V35  1  0.24788150  0.24841157  -0.00256157  1
  V  V36  1  -0.00850565  0.24977337  0.74894014  1
  V  V37  1  0.37820424  0.25073608  0.61583021  1
  V  V38  1  0.49711026  0.75081486  0.75159879  1
  V  V39  1  0.75214756  0.62429175  0.87598269  1
  V  V40  1  0.12286703  0.13057282  0.49050048  1
  V  V41  1  -0.00337761  0.73140901  0.25031807  1
  V  V42  1  0.62445871  0.50445851  0.63014553  1
  V  V43  1  0.12587051  0.37881755  0.74682183  1
  V  V44  1  0.12084585  -0.00220522  0.12064257  1
  V  V45  1  0.37486057  0.49046886  0.38343097  1
  V  V46  1  0.62115439  0.37643016  0.75460620  1
  V  V47  1  0.24969939  0.12450442  0.86700234  1
  V  V48  1  0.11093774  0.87440608  0.25323453  1
  V  V49  1  0.27156873  0.61940804  0.87305342  1
  V  V50  1  0.49225353  0.49473567  0.50625171  1
  V  V51  1  0.74366144  0.87643223  0.62990863  1
  V  V52  1  0.62596116  0.12044815  0.00000841  1
  V  V53  1  0.87815682  0.24923842  0.12265079  1
  V  V54  1  0.87423469  0.37903323  -0.00511727  1
  V  V55  1  0.62339226  0.00903812  0.62565587  1
  V  V56  1  0.00030158  -0.00030118  0.49375108  1
  V  V57  1  0.62266480  0.62377461  0.00098068  1
  V  V58  1  0.25109805  0.87263986  0.13025753  1
  V  V59  1  0.00807058  0.75942410  0.76657413  1
  V  V60  1  0.12608603  0.00149288  0.62876331  1
  V  V61  1  0.49417521  0.49200125  -0.01156792  1
  V  V62  1  0.87691800  0.87673663  0.49859472  1
  V  V63  1  0.51338250  0.25812846  0.25222237  1
  V  V64  1  0.50159962  -0.00168918  0.00304324  1
  V  V65  1  0.74802474  -0.00342501  0.75312847  1
  V  V66  1  0.75358568  0.49916387  0.24952626  1
  V  V67  1  0.37316589  0.12415169  0.25092827  1
  V  V68  1  0.11968726  0.50590042  0.12604053  1
  V  V69  1  0.25695208  0.37495152  0.61954065  1
  V  V70  1  0.49807299  0.62016360  0.12819782  1
  V  V71  1  -0.00030791  0.38229535  0.87340242  1
  V  V72  1  0.62494296  0.62649535  0.50152913  1
  V  V73  1  0.89633037  0.87706359  -0.00229567  1
  V  V74  1  0.37433994  0.62209509  0.25403227  1
  V  V75  1  0.61837097  0.24974099  0.87438383  1
  V  V76  1  0.26497889  0.49958799  0.75244756  1
  V  V77  1  0.87169516  -0.00534358  0.37126806  1
  V  V78  1  0.37157534  0.00029297  0.87145788  1
  V  V79  1  0.62327030  0.87942985  0.24020490  1
  V  V80  1  0.50484621  0.12186056  0.12475171  1
  V  V81  1  0.49912620  0.74414889  0.25098986  1
  V  V82  1  0.49984542  0.24460415  0.74383640  1
  V  V83  1  0.87870445  0.74031167  0.12703116  1
  V  V84  1  0.37472130  0.12077843  0.73993168  1
  Zn  Zn85  1  0.12335074  0.12142347  -0.00399485  1
  Zn  Zn86  1  0.87610124  0.25570423  0.61564063  1
  Zn  Zn87  1  0.74971961  0.87999419  0.12088902  1
  Zn  Zn88  1  0.87600991  0.49739328  0.37830547  1
  Zn  Zn89  1  0.37257926  0.74805742  0.12685699  1
  Zn  Zn90  1  0.24757172  -0.00050977  0.25269321  1
  Zn  Zn91  1  0.37521028  0.87559757  0.49996062  1
  Zn  Zn92  1  0.51287368  0.36096618  0.38954139  1
  Zn  Zn93  1  0.13002037  0.50897867  0.61098396  1
  Zn  Zn94  1  0.74397314  0.00102561  0.24110529  1
  Zn  Zn95  1  0.24553732  0.12394181  0.37139315  1
  Zn  Zn96  1  0.37164267  0.37656538  -0.01860103  1
  Zn  Zn97  1  0.01896986  0.63000916  0.62317303  1
  Zn  Zn98  1  0.12241434  0.24880892  0.87322579  1
  Zn  Zn99  1  0.37115018  0.00080414  0.37749582  1
  Zn  Zn100  1  -0.00101678  0.51489279  0.50370097  1
  Zn  Zn101  1  0.74731360  0.26125333  0.48867110  1
  Zn  Zn102  1  0.62281770  0.49196959  0.12570632  1
  Zn  Zn103  1  0.37378615  0.87380726  0.00318092  1
  Zn  Zn104  1  0.62003738  0.13968426  0.50057312  1
  Zn  Zn105  1  0.00407199  0.24547659  0.25195640  1
  Zn  Zn106  1  0.12069395  0.88327437  0.76538055  1
  Zn  Zn107  1  0.18785058  0.18581044  0.18401030  1
  Zn  Zn108  1  0.18341121  0.18963904  0.68252277  1
  Zn  Zn109  1  0.18378368  0.68548445  0.18906474  1
  Zn  Zn110  1  0.19114620  0.69023916  0.69842797  1
  Zn  Zn111  1  0.69003227  0.18402161  0.18529416  1
  Zn  Zn112  1  0.69212517  0.18854310  0.68767849  1
  Zn  Zn113  1  0.68744406  0.68785886  0.18664878  1
  Zn  Zn114  1  0.68924257  0.68940137  0.68937523  1
  Zn  Zn115  1  0.31873771  0.31382066  0.31009806  1
  Zn  Zn116  1  0.31025673  0.30669405  0.80569039  1
  Zn  Zn117  1  0.31043865  0.81030122  0.31339069  1
  Zn  Zn118  1  0.27874483  0.83026211  0.83195607  1
  Zn  Zn119  1  0.81395198  0.30991989  0.30787118  1
  Zn  Zn120  1  0.81258467  0.31400719  0.81160326  1
  Zn  Zn121  1  0.81219118  0.81082390  0.31059116  1
  Zn  Zn122  1  0.81606439  0.81588176  0.81443187  1
  Zn  Zn123  1  0.18218321  0.43418817  0.43932864  1
  Zn  Zn124  1  0.18731552  0.43769563  0.93431075  1
  Zn  Zn125  1  0.18764698  0.93602501  0.43730069  1
  Zn  Zn126  1  0.18483715  0.93874939  0.94271843  1
  Zn  Zn127  1  0.68491882  0.44144585  0.43728310  1
  Zn  Zn128  1  0.68538315  0.43713695  0.93827069  1
  Zn  Zn129  1  0.68583880  0.94052246  0.43524252  1
  Zn  Zn130  1  0.68529789  0.93700462  0.93644741  1
  Zn  Zn131  1  0.31278491  0.06160330  0.06259299  1
  Zn  Zn132  1  0.31094758  0.06371988  0.55717271  1
  Zn  Zn133  1  0.31300682  0.56049539  0.06267069  1
  Zn  Zn134  1  0.30936765  0.56530993  0.56781125  1
  Zn  Zn135  1  0.81234967  0.05590435  0.05976615  1
  Zn  Zn136  1  0.81001640  0.06566941  0.55907486  1
  Zn  Zn137  1  0.81181486  0.56109349  0.06232830  1
  Zn  Zn138  1  0.82081418  0.56339661  0.56203388  1
  Zn  Zn139  1  0.43613853  0.43784147  0.18620927  1
  Zn  Zn140  1  0.44019644  0.43501376  0.81012784  1
  Zn  Zn141  1  0.43756924  0.93744075  0.18820733  1
  Zn  Zn142  1  0.43660996  0.93670673  0.68641414  1
  Zn  Zn143  1  0.93437353  0.44129261  0.18817608  1
  Zn  Zn144  1  0.93994459  0.44512660  0.68484907  1
  Zn  Zn145  1  0.93502412  0.93524444  0.18219180  1
  Zn  Zn146  1  0.93708679  0.93810216  0.68825518  1
  Zn  Zn147  1  0.05935221  0.05933498  0.31014440  1
  Zn  Zn148  1  0.06398101  0.06802891  0.80797660  1
  Zn  Zn149  1  0.06427851  0.55531766  0.32206808  1
  Zn  Zn150  1  0.06485207  0.56239210  0.80410367  1
  Zn  Zn151  1  0.55661453  0.06063672  0.31056828  1
  Zn  Zn152  1  0.56303830  0.06246484  0.80996506  1
  Zn  Zn153  1  0.57641085  0.52925805  0.32578718  1
  Zn  Zn154  1  0.56540697  0.56924387  0.81235465  1
  Zn  Zn155  1  0.43792855  0.18644419  0.43359754  1
  Zn  Zn156  1  0.43465875  0.18865069  0.93501790  1
  Zn  Zn157  1  0.43286547  0.68417540  0.44168226  1
  Zn  Zn158  1  0.43595015  0.68988851  0.94196527  1
  Zn  Zn159  1  0.93038653  0.19266976  0.43662275  1
  Zn  Zn160  1  0.93645351  0.18805368  0.93300316  1
  Zn  Zn161  1  0.93886753  0.68884515  0.43935282  1
  Zn  Zn162  1  0.93714343  0.68651673  0.93865345  1
  Zn  Zn163  1  0.06326697  0.31376765  0.06434476  1
  Zn  Zn164  1  0.06806091  0.31256332  0.56476010  1
  Zn  Zn165  1  0.06643413  0.80405107  0.06767389  1
  Zn  Zn166  1  0.06123496  0.81290830  0.56404142  1
  Zn  Zn167  1  0.56273665  0.30996804  0.06099802  1
  Zn  Zn168  1  0.57038428  0.31327242  0.56683618  1
  Zn  Zn169  1  0.55800962  0.80841584  0.05951384  1
  Zn  Zn170  1  0.56149707  0.81666080  0.56416209  1
  O  O171  1  0.11586001  0.11596160  0.12555099  1
  O  O172  1  0.11685457  0.11823433  0.61347238  1
  O  O173  1  0.13225347  0.60945090  0.11634267  1
  O  O174  1  0.13276035  0.62107006  0.63635620  1
  O  O175  1  0.61265324  0.12884116  0.11695297  1
  O  O176  1  0.63479367  0.11279742  0.62169782  1
  O  O177  1  0.61813154  0.62810372  0.11140652  1
  O  O178  1  0.62034399  0.62490030  0.62031945  1
  O  O179  1  0.38659600  0.38880465  0.37144202  1
  O  O180  1  0.37978575  0.36371834  0.87030960  1
  O  O181  1  0.38784138  0.87385782  0.37343389  1
  O  O182  1  0.37611006  0.88502359  0.87867714  1
  O  O183  1  0.88707809  0.37326234  0.37015902  1
  O  O184  1  0.88189074  0.37119157  0.88716511  1
  O  O185  1  0.86694824  0.88595756  0.38232717  1
  O  O186  1  0.87383709  0.88463502  0.88806174  1
  O  O187  1  0.25312887  0.00174376  0.37108752  1
  O  O188  1  0.26426434  0.01258046  0.88386721  1
  O  O189  1  0.25564648  0.50524002  0.37365833  1
  O  O190  1  0.25140769  0.50981602  0.87000208  1
  O  O191  1  0.75577809  0.00646238  0.36557392  1
  O  O192  1  0.75384422  0.00411046  0.86944065  1
  O  O193  1  0.75328968  0.51102273  0.36755822  1
  O  O194  1  0.74420502  0.50713406  0.86541236  1
  O  O195  1  0.24497636  0.49291817  0.13071440  1
  O  O196  1  0.25126975  0.49106863  0.63347510  1
  O  O197  1  0.24378493  0.99057969  0.12872209  1
  O  O198  1  0.23758102  0.99281239  0.61227508  1
  O  O199  1  0.75077204  0.48951293  0.12767094  1
  O  O200  1  0.74553280  0.49593517  0.63786358  1
  O  O201  1  0.75105770  0.99311066  0.12766575  1
  O  O202  1  0.74778799  0.99524574  0.63323355  1
  O  O203  1  0.01243243  0.37247510  0.24551289  1
  O  O204  1  0.00540277  0.37296215  0.75641604  1
  O  O205  1  0.00906051  0.86967171  0.24659803  1
  O  O206  1  0.00072662  0.86459880  0.75075778  1
  O  O207  1  0.49866691  0.35852688  0.24089601  1
  O  O208  1  0.51530941  0.36500419  0.75201221  1
  O  O209  1  0.50681509  0.86679929  0.25497999  1
  O  O210  1  0.49569732  0.86977003  0.76338845  1
  O  O211  1  0.49456415  0.13210200  0.24109542  1
  O  O212  1  0.49259558  0.13602929  0.75137521  1
  O  O213  1  0.49640019  0.62480855  0.24224585  1
  O  O214  1  0.50491115  0.63379779  0.73911827  1
  O  O215  1  0.98887836  0.12450924  0.24233953  1
  O  O216  1  1.00589325  0.13781229  0.73825254  1
  O  O217  1  1.00374960  0.63313297  0.25412317  1
  O  O218  1  0.99301161  0.63810475  0.75110834  1
  O  O219  1  0.36653766  0.25143444  0.00623216  1
  O  O220  1  0.37026213  0.24162888  0.51001979  1
  O  O221  1  0.36156832  0.74966117  0.00602312  1
  O  O222  1  0.36537322  0.75292279  0.50912699  1
  O  O223  1  0.86934972  0.25626263  0.00309291  1
  O  O224  1  0.85843656  0.24278583  0.50456157  1
  O  O225  1  0.86964808  0.76007137  0.00184413  1
  O  O226  1  0.86888617  0.75976493  0.50867551  1
  O  O227  1  0.13562423  0.24093736  0.50296308  1
  O  O228  1  0.13785136  0.24826650  1.00054259  1
  O  O229  1  0.12971566  0.75686379  0.48880660  1
  O  O230  1  0.13672540  0.73559013  1.00760186  1
  O  O231  1  0.63342519  0.25236957  0.49885578  1
  O  O232  1  0.63018219  0.24290241  0.99113229  1
  O  O233  1  0.62833162  0.74336159  0.49731993  1
  O  O234  1  0.63046864  0.74389801  0.99202384  1
  O  O235  1  0.49328716  0.24307266  0.12775589  1
  O  O236  1  0.49183773  0.25561547  0.63302635  1
  O  O237  1  0.49649179  0.73479273  0.12759734  1
  O  O238  1  0.49332194  0.74868352  0.63093673  1
  O  O239  1  0.99381190  0.24165665  0.12571815  1
  O  O240  1  0.99768707  0.24389033  0.62987597  1
  O  O241  1  0.99491099  0.74868210  0.14018424  1
  O  O242  1  0.98759715  0.75414890  0.63367222  1
  O  O243  1  -0.00227008  0.26145371  0.36861545  1
  O  O244  1  0.00076856  0.25950130  0.86753036  1
  O  O245  1  0.00634105  0.74906603  0.36270302  1
  O  O246  1  -0.00257058  0.75217300  0.86507807  1
  O  O247  1  0.49778269  0.25099813  0.35846454  1
  O  O248  1  0.51343138  0.24242274  0.86812338  1
  O  O249  1  0.50357010  0.75305327  0.37246634  1
  O  O250  1  0.50444958  0.75669680  0.87371817  1
  O  O251  1  0.24021813  0.13366113  0.49628260  1
  O  O252  1  0.25110995  0.13338737  0.99176498  1
  O  O253  1  0.25226607  0.63792166  0.49450428  1
  O  O254  1  0.24586082  0.62447682  0.99166924  1
  O  O255  1  0.74448793  0.11717844  0.48008662  1
  O  O256  1  0.74600710  0.12783416  0.98989398  1
  O  O257  1  0.74181759  0.63370738  0.49828412  1
  O  O258  1  0.74262196  0.63382977  0.99624393  1
  O  O259  1  0.25176713  0.36813929  0.00443955  1
  O  O260  1  0.24737679  0.36569986  0.50704152  1
  O  O261  1  0.24951523  0.86368427  0.01475097  1
  O  O262  1  0.25086965  0.86291899  0.50651906  1
  O  O263  1  0.75838434  0.37035976  0.00260462  1
  O  O264  1  0.74485666  0.38477889  0.51674469  1
  O  O265  1  0.74974928  0.86257971  -0.00200351  1
  O  O266  1  0.75760219  0.87200635  0.50543450  1
  O  O267  1  0.12941426  0.49106474  0.24355727  1
  O  O268  1  0.13496801  0.48631770  0.75287963  1
  O  O269  1  0.12451372  0.99059195  0.24153956  1
  O  O270  1  0.11909211  0.99976866  0.73344570  1
  O  O271  1  0.64637581  0.51417833  0.23659547  1
  O  O272  1  0.63056024  0.49409451  0.74943431  1
  O  O273  1  0.61923462  0.98208228  0.25074123  1
  O  O274  1  0.63810019  1.00291753  0.74369859  1
  O  O275  1  0.37591884  0.01396332  0.24839530  1
  O  O276  1  0.38147563  0.00953562  0.75791040  1
  O  O277  1  0.36953115  0.50394170  0.25889957  1
  O  O278  1  0.36445311  0.49573918  0.74777430  1
  O  O279  1  0.87557501  0.00309676  0.25630740  1
  O  O280  1  0.86585851  -0.00697511  0.76537719  1
  O  O281  1  0.86176085  0.50255043  0.25127467  1
  O  O282  1  0.86703733  0.51169287  0.75059769  1
  O  O283  1  0.11664957  0.37443938  0.35914591  1
  O  O284  1  0.11663765  0.37105191  0.86841514  1
  O  O285  1  0.12917470  0.86325912  0.36490288  1
  O  O286  1  0.17112149  0.86569323  0.86444130  1
  O  O287  1  0.60346920  0.42114782  0.36549272  1
  O  O288  1  0.63409657  0.36140596  0.86764941  1
  O  O289  1  0.61417776  0.86818599  0.36767478  1
  O  O290  1  0.61275535  0.86636119  0.87974637  1
  O  O291  1  0.38351324  0.13481159  0.12733751  1
  O  O292  1  0.36863583  0.13043888  0.63460487  1
  O  O293  1  0.38191136  0.62154148  0.13472576  1
  O  O294  1  0.38395823  0.63677392  0.62282981  1
  O  O295  1  0.88104422  0.12667500  0.12798805  1
  O  O296  1  0.88686289  0.12170524  0.62376224  1
  O  O297  1  0.87293751  0.64154975  0.11467569  1
  O  O298  1  0.86792176  0.63871131  0.64058976  1
  O  O299  1  0.25777584  0.25319471  0.11661507  1
  O  O300  1  0.25669291  0.25401770  0.61532482  1
  O  O301  1  0.24949532  0.75400771  0.12122777  1
  O  O302  1  0.25552357  0.75576547  0.62081953  1
  O  O303  1  0.75734715  0.25401048  0.11741825  1
  O  O304  1  0.75098865  0.27085507  0.63290229  1
  O  O305  1  0.75719406  0.75484226  0.11699917  1
  O  O306  1  0.75760258  0.75898590  0.62336241  1
  O  O307  1  0.25940063  0.25142654  0.38719356  1
  O  O308  1  0.24814225  0.24022315  0.88108660  1
  O  O309  1  0.24239017  0.74317691  0.38350898  1
  O  O310  1  0.25718102  0.72911228  0.88668712  1
  O  O311  1  0.75256992  0.23236002  0.36762776  1
  O  O312  1  0.74579587  0.24045155  0.87714737  1
  O  O313  1  0.74208284  0.74522059  0.38026570  1
  O  O314  1  0.74279476  0.74702215  0.88031388  1
  O  O315  1  0.00183259  0.12973217  0.00980515  1
  O  O316  1  0.00429458  0.11966744  0.50458564  1
  O  O317  1  0.00695613  0.61338770  -0.00623527  1
  O  O318  1  -0.00044916  0.63395817  0.51046792  1
  O  O319  1  0.50308821  0.11885202  0.00525922  1
  O  O320  1  0.50397036  0.11190767  0.49306066  1
  O  O321  1  0.50493828  0.61591674  0.00460993  1
  O  O322  1  0.50743410  0.62659192  0.51341758  1
  O  O323  1  0.50375166  0.39179570  0.50638505  1
  O  O324  1  0.50096960  0.38973955  1.00305117  1
  O  O325  1  0.50040495  0.88271014  0.49095551  1
  O  O326  1  0.49590040  0.88085551  0.99145828  1
  O  O327  1  1.00012827  0.36636589  0.48873941  1
  O  O328  1  0.99443728  0.38146142  0.99340602  1
  O  O329  1  0.98485760  0.88355845  0.50619734  1
  O  O330  1  0.99454641  0.86791331  0.99990816  1
  O  O331  1  0.48247526  0.52354678  0.39460131  1
  O  O332  1  0.50404159  0.50209452  0.88392405  1
  O  O333  1  0.49788907  0.99067483  0.38225529  1
  O  O334  1  0.49252654  0.99397340  0.87848659  1
  O  O335  1  0.99674203  0.47922650  0.37064957  1
  O  O336  1  1.00433213  0.48837673  0.88142293  1
  O  O337  1  0.98998580  1.00297308  0.38697168  1
  O  O338  1  0.98868371  1.00349340  0.86875812  1
  O  O339  1  0.00718939  0.00801674  0.12765142  1
  O  O340  1  0.00319357  0.00634006  0.61515153  1
  O  O341  1  0.00777314  0.49459334  0.11384990  1
  O  O342  1  0.00929446  0.50868648  0.62821760  1
  O  O343  1  0.49476685  0.00905750  0.11532443  1
  O  O344  1  0.51267730  -0.00839048  0.61722338  1
  O  O345  1  0.50262785  0.50817644  0.11785370  1
  O  O346  1  0.50739823  0.51369224  0.62036454  1
  O  O347  1  0.24136717  0.37907436  0.24649720  1
  O  O348  1  0.24304946  0.37961550  0.74371005  1
  O  O349  1  0.24038930  0.87013462  0.24060408  1
  O  O350  1  0.25249400  0.87644496  0.72938040  1
  O  O351  1  0.75438949  0.38172216  0.23895611  1
  O  O352  1  0.74315446  0.38421762  0.74773416  1
  O  O353  1  0.73175362  0.87094321  0.24986147  1
  O  O354  1  0.75287508  0.88293781  0.74249503  1
  O  O355  1  0.25861250  0.12505592  0.24995828  1
  O  O356  1  0.25737127  0.13190587  0.75821800  1
  O  O357  1  0.25332976  0.61741151  0.25785533  1
  O  O358  1  0.25248086  0.61662322  0.76670741  1
  O  O359  1  0.76012350  0.12178486  0.25408110  1
  O  O360  1  0.75060436  0.11835047  0.76229490  1
  O  O361  1  0.74928570  0.62502063  0.26048941  1
  O  O362  1  0.75483903  0.61909407  0.75669006  1
  O  O363  1  0.37273448  0.12327576  0.36295499  1
  O  O364  1  0.37031840  0.12086809  0.86351794  1
  O  O365  1  0.36023545  0.62158126  0.37106947  1
  O  O366  1  0.37002860  0.61890259  0.87872548  1
  O  O367  1  0.86831926  0.11369621  0.36508578  1
  O  O368  1  0.86807068  0.10786136  0.88311640  1
  O  O369  1  0.86009709  0.63350356  0.37688615  1
  O  O370  1  0.86680035  0.63245359  0.86356528  1
  O  O371  1  0.13089943  0.38456032  0.13085462  1
  O  O372  1  0.13765628  0.37516458  0.63284830  1
  O  O373  1  0.12983372  0.87935411  0.13240855  1
  O  O374  1  0.13111142  0.88478734  0.62303378  1
  O  O375  1  0.64110182  0.37330415  0.11512398  1
  O  O376  1  0.63457487  0.38549162  0.63727010  1
  O  O377  1  0.62039499  0.86596908  0.13807183  1
  O  O378  1  0.63903780  0.88342238  0.62054063  1
  O  O379  1  0.12558107  0.26472350  0.24137871  1
  O  O380  1  0.11621817  0.26266059  0.74883643  1
  O  O381  1  0.11307515  0.75347221  0.25570987  1
  O  O382  1  0.11014926  0.75592665  0.74991052  1
  O  O383  1  0.61142714  0.24649191  0.24259907  1
  O  O384  1  0.61930063  0.25385745  0.75402459  1
  O  O385  1  0.61673143  0.75449724  0.25559607  1
  O  O386  1  0.61946647  0.74652436  0.76364991  1
  O  O387  1  0.38118081  0.24117719  0.24012246  1
  O  O388  1  0.38307097  0.24057137  0.73883193  1
  O  O389  1  0.38118680  0.73966638  0.25063467  1
  O  O390  1  0.37868200  0.75513951  0.73944502  1
  O  O391  1  0.87695491  0.23843679  0.23907411  1
  O  O392  1  0.88814062  0.25626347  0.74578890  1
  O  O393  1  0.88851705  0.75512371  0.24323147  1
  O  O394  1  0.88216125  0.74789140  0.74589951  1
  O  O395  1  0.38032855  0.50510531  0.49708750  1
  O  O396  1  0.39061198  0.49654924  1.00278442  1
  O  O397  1  0.38528244  0.99685851  0.49943772  1
  O  O398  1  0.38641407  1.00114923  0.99171574  1
  O  O399  1  0.88340599  0.50572112  0.49322572  1
  O  O400  1  0.88406457  0.49258556  1.00245110  1
  O  O401  1  0.87810184  0.99482489  0.49237122  1
  O  O402  1  0.87687895  0.98446888  0.98976942  1
  O  O403  1  0.12835732  0.00267930  0.01509798  1
  O  O404  1  0.11434898  0.00451243  0.50414822  1
  O  O405  1  0.11771400  0.50352193  0.00633554  1
  O  O406  1  0.11369520  0.49662417  0.49739900  1
  O  O407  1  0.60987316  0.00520747  -0.00787630  1
  O  O408  1  0.61839594  0.00119093  0.50821432  1
  O  O409  1  0.61445403  0.50768404  0.00041086  1
  O  O410  1  0.61915285  0.51533108  0.51035677  1
  O  O411  1  0.36854945  0.36360055  0.12448488  1
  O  O412  1  0.35980941  0.36058172  0.63023990  1
  O  O413  1  0.36583416  0.87182263  0.12594919  1
  O  O414  1  0.36829138  0.86888529  0.62081216  1
  O  O415  1  0.86913233  0.36880399  0.11343999  1
  O  O416  1  0.85970416  0.37950360  0.63311642  1
  O  O417  1  0.87563705  0.86658068  0.10909110  1
  O  O418  1  0.86500866  0.87154095  0.61910864  1
  O  O419  1  0.12233255  0.12053761  0.38607954  1
  O  O420  1  0.13456243  0.12675575  0.87612202  1
  O  O421  1  0.13699210  0.63374674  0.36886662  1
  O  O422  1  0.13096077  0.61791462  0.88505911  1
  O  O423  1  0.63824482  0.11846479  0.36791134  1
  O  O424  1  0.63360737  0.12996324  0.87913420  1
  O  O425  1  0.63181185  0.62776604  0.38597713  1
  O  O426  1  0.62925830  0.63410846  0.88596433  1
