# generated using pymatgen
data_V85Zn86O256
_symmetry_space_group_name_H-M   'P 1'
_cell_length_a   16.97449572
_cell_length_b   16.97958481
_cell_length_c   16.97878096
_cell_angle_alpha   89.88464534
_cell_angle_beta   89.96160164
_cell_angle_gamma   90.08464259
_symmetry_Int_Tables_number   1
_chemical_formula_structural   V85Zn86O256
_chemical_formula_sum   'V85 Zn86 O256'
_cell_volume   4893.60600903
_cell_formula_units_Z   1
loop_
 _symmetry_equiv_pos_site_id
 _symmetry_equiv_pos_as_xyz
  1  'x, y, z'
loop_
 _atom_site_type_symbol
 _atom_site_label
 _atom_site_symmetry_multiplicity
 _atom_site_fract_x
 _atom_site_fract_y
 _atom_site_fract_z
 _atom_site_occupancy
  V  V0  1  0.87225899  0.75361640  0.12882986  1
  V  V1  1  0.35210383  0.49400456  0.87290133  1
  V  V2  1  0.75391131  0.12853231  0.36931682  1
  V  V3  1  0.02181182  0.41360577  0.83119400  1
  V  V4  1  0.49509164  0.75510467  0.24892073  1
  V  V5  1  0.12406954  0.37262836  0.25062583  1
  V  V6  1  0.12237099  0.50078227  0.12634443  1
  V  V7  1  0.24791837  0.12647294  0.87165568  1
  V  V8  1  -0.00010165  0.63577949  0.62832070  1
  V  V9  1  0.74350498  0.36769591  0.11819478  1
  V  V10  1  0.24384503  0.37480662  0.12334413  1
  V  V11  1  0.62554520  0.37903583  0.75027784  1
  V  V12  1  0.62980487  0.00082430  0.61987419  1
  V  V13  1  0.49975171  0.25461785  0.75657202  1
  V  V14  1  0.62624048  0.87574018  0.74569064  1
  V  V15  1  0.86122143  0.86853311  0.49933036  1
  V  V16  1  0.13613901  -0.00408841  0.12864734  1
  V  V17  1  0.00333053  0.37511815  0.37488727  1
  V  V18  1  0.49123817  0.75248550  0.74843236  1
  V  V19  1  0.00042615  -0.00238513  0.50001039  1
  V  V20  1  0.43067446  0.58629101  0.19481810  1
  V  V21  1  0.37002298  0.24827981  0.12447025  1
  V  V22  1  0.12445542  0.63480949  -0.00275919  1
  V  V23  1  0.25059308  -0.00046212  0.74630487  1
  V  V24  1  0.62416821  0.00108791  0.12735985  1
  V  V25  1  -0.00962870  0.50225586  0.00619294  1
  V  V26  1  0.12041149  0.12211983  -0.00045959  1
  V  V27  1  0.24424310  0.25264815  -0.00192843  1
  V  V28  1  -0.00076238  0.62859615  0.13064239  1
  V  V29  1  0.63016812  0.75412049  0.37805997  1
  V  V30  1  0.25060201  0.50158731  0.24902580  1
  V  V31  1  0.13072037  0.23425376  0.37874484  1
  V  V32  1  0.36611260  0.87797816  0.00575149  1
  V  V33  1  0.76114179  0.00536146  0.24680186  1
  V  V34  1  -0.00343641  -0.00303023  -0.00127030  1
  V  V35  1  0.62472552  0.87963171  0.24703691  1
  V  V36  1  -0.00182212  0.87511647  0.37329313  1
  V  V37  1  0.37396093  0.37588691  0.50353130  1
  V  V38  1  0.37766936  0.50366832  0.37436926  1
  V  V39  1  0.35897041  0.12225421  0.25528610  1
  V  V40  1  0.50184911  0.50089858  0.50146008  1
  V  V41  1  0.63539359  0.63076994  0.50358980  1
  V  V42  1  0.75362774  0.62502148  0.37321516  1
  V  V43  1  0.36719286  0.62198151  0.74424254  1
  V  V44  1  0.74017917  0.49302324  0.24233642  1
  V  V45  1  0.50654121  0.12982658  0.62154064  1
  V  V46  1  0.50028456  0.00775606  0.49602336  1
  V  V47  1  0.49551408  0.63687622  0.62177223  1
  V  V48  1  0.63100958  0.24714112  0.88047587  1
  V  V49  1  0.50294995  0.25065922  0.25293552  1
  V  V50  1  0.24773502  0.24028250  0.50099581  1
  V  V51  1  0.37707295  0.12633203  0.74825202  1
  V  V52  1  0.25239779  0.62520903  0.37168068  1
  V  V53  1  0.36157094  0.00171790  0.37644362  1
  V  V54  1  0.74417027  0.24079447  0.50179679  1
  V  V55  1  0.23257191  0.38787416  0.62973054  1
  V  V56  1  0.87478754  0.24448349  0.62642185  1
  V  V57  1  0.61893026  0.74540672  0.87712204  1
  V  V58  1  0.37644186  0.00138647  0.87459399  1
  V  V59  1  0.26322677  0.87082859  0.62030885  1
  V  V60  1  0.24434393  0.63987114  0.86926122  1
  V  V61  1  0.12771216  0.86416510  0.75125335  1
  V  V62  1  0.00089239  0.11842573  0.61895206  1
  V  V63  1  0.75729185  0.12365328  0.88100893  1
  V  V64  1  0.49718919  0.87973806  0.38543937  1
  V  V65  1  0.12515044  0.74868605  0.37845363  1
  V  V66  1  0.49943799  -0.00277971  0.00097933  1
  V  V67  1  0.13892458  0.87752373  0.25077296  1
  V  V68  1  0.75374041  -0.00071482  0.75110642  1
  V  V69  1  0.26603853  0.75170381  0.50159922  1
  V  V70  1  0.74935279  0.37396962  0.62621858  1
  V  V71  1  0.76139518  0.63181581  0.86754733  1
  V  V72  1  0.36460443  0.75702640  0.12999654  1
  V  V73  1  0.00805850  0.86979405  0.87698774  1
  V  V74  1  0.49875531  0.12439841  0.12707724  1
  V  V75  1  0.74253838  0.74453375  0.00459083  1
  V  V76  1  0.54436321  0.42849927  0.92628591  1
  V  V77  1  0.87079966  0.87759956  -0.00811333  1
  V  V78  1  0.62503788  0.25321252  0.37609039  1
  V  V79  1  0.12540566  -0.00007824  0.62241330  1
  V  V80  1  -0.00764629  0.23940340  0.25353531  1
  V  V81  1  0.87323153  0.37437788  0.49900479  1
  V  V82  1  0.00880312  0.49947247  0.50659647  1
  V  V83  1  0.00508647  0.24080974  0.75240917  1
  V  V84  1  0.62378603  0.50127235  0.62501905  1
  Zn  Zn85  1  0.12956333  0.62033334  0.50364697  1
  Zn  Zn86  1  0.87851305  0.00715766  0.37116256  1
  Zn  Zn87  1  0.86915570  0.24523555  0.11939236  1
  Zn  Zn88  1  0.87444808  0.49952928  0.37280091  1
  Zn  Zn89  1  0.12098522  0.25180287  0.87112184  1
  Zn  Zn90  1  0.62862227  0.12695657  0.00184930  1
  Zn  Zn91  1  0.56461631  0.55866874  0.06555373  1
  Zn  Zn92  1  0.74981843  0.87767430  0.12338619  1
  Zn  Zn93  1  -0.00864200  0.11498484  0.13692117  1
  Zn  Zn94  1  0.24414540  0.75848845  0.00282262  1
  Zn  Zn95  1  -0.00993777  0.74903099  0.75814583  1
  Zn  Zn96  1  -0.00126884  0.75068295  0.25403973  1
  Zn  Zn97  1  0.37340314  0.37580615  -0.00625080  1
  Zn  Zn98  1  0.87631277  0.11589434  0.75128791  1
  Zn  Zn99  1  0.87488712  0.49943698  0.86862501  1
  Zn  Zn100  1  0.87406966  0.62182969  0.25026413  1
  Zn  Zn101  1  0.37280887  0.25465372  0.62690617  1
  Zn  Zn102  1  0.75926388  0.50848952  0.74422062  1
  Zn  Zn103  1  0.85546170  0.74508709  0.62746281  1
  Zn  Zn104  1  0.49890190  0.87479172  0.87604061  1
  Zn  Zn105  1  0.87953848  0.36855117  -0.00634556  1
  Zn  Zn106  1  0.50594496  0.37753582  0.37298829  1
  Zn  Zn107  1  0.17738634  0.18715342  0.18519430  1
  Zn  Zn108  1  0.18715855  0.18731144  0.67995891  1
  Zn  Zn109  1  0.18638572  0.68887684  0.19162342  1
  Zn  Zn110  1  0.18373543  0.68534425  0.67975908  1
  Zn  Zn111  1  0.68578920  0.18857174  0.18956512  1
  Zn  Zn112  1  0.68736055  0.18660551  0.69325994  1
  Zn  Zn113  1  0.68601884  0.68567332  0.19321707  1
  Zn  Zn114  1  0.68188805  0.68930788  0.69116900  1
  Zn  Zn115  1  0.31326157  0.31257810  0.31566898  1
  Zn  Zn116  1  0.30597907  0.31232277  0.80692237  1
  Zn  Zn117  1  0.31585269  0.81463940  0.31781087  1
  Zn  Zn118  1  0.31508470  0.81579217  0.81188722  1
  Zn  Zn119  1  0.81165624  0.31640180  0.31038416  1
  Zn  Zn120  1  0.82452068  0.31591922  0.81382372  1
  Zn  Zn121  1  0.81125215  0.81626221  0.31307220  1
  Zn  Zn122  1  0.81172531  0.81402110  0.81125238  1
  Zn  Zn123  1  0.19035280  0.43152849  0.43895114  1
  Zn  Zn124  1  0.17693025  0.44126579  0.93866135  1
  Zn  Zn125  1  0.18568160  0.93374047  0.44187286  1
  Zn  Zn126  1  0.18666997  0.94020813  0.93458357  1
  Zn  Zn127  1  0.68853151  0.43763544  0.43604795  1
  Zn  Zn128  1  0.70784703  0.44317150  0.94253158  1
  Zn  Zn129  1  0.68237371  0.94877998  0.43082578  1
  Zn  Zn130  1  0.68363074  0.93558736  0.93517419  1
  Zn  Zn131  1  0.31092823  0.06623515  0.06204033  1
  Zn  Zn132  1  0.31880041  0.06090432  0.56316733  1
  Zn  Zn133  1  0.30840268  0.56206663  0.05225699  1
  Zn  Zn134  1  0.31100945  0.56226655  0.56070538  1
  Zn  Zn135  1  0.81559452  0.06467274  0.06437181  1
  Zn  Zn136  1  0.81537758  0.05832730  0.56023854  1
  Zn  Zn137  1  0.80794449  0.56594159  0.06531014  1
  Zn  Zn138  1  0.81666444  0.56147380  0.56399420  1
  Zn  Zn139  1  0.43524450  0.42057114  0.18409168  1
  Zn  Zn140  1  0.43598404  0.44093432  0.68975572  1
  Zn  Zn141  1  0.43327539  0.93811180  0.19157003  1
  Zn  Zn142  1  0.44240051  0.93999063  0.68387509  1
  Zn  Zn143  1  0.92731164  0.43384635  0.18914897  1
  Zn  Zn144  1  0.93417584  0.43922825  0.68204527  1
  Zn  Zn145  1  0.94163779  0.93493600  0.18445185  1
  Zn  Zn146  1  0.92583279  0.91002765  0.69485855  1
  Zn  Zn147  1  0.06919859  0.05889916  0.31524881  1
  Zn  Zn148  1  0.06234343  0.05551181  0.81182139  1
  Zn  Zn149  1  0.06182265  0.56191704  0.31511787  1
  Zn  Zn150  1  0.05774427  0.57949872  0.81438657  1
  Zn  Zn151  1  0.56677088  0.07030045  0.31469590  1
  Zn  Zn152  1  0.56536699  0.06474300  0.81119308  1
  Zn  Zn153  1  0.56941771  0.56242139  0.31688458  1
  Zn  Zn154  1  0.56365972  0.56985445  0.80939446  1
  Zn  Zn155  1  0.43404703  0.18706925  0.43777510  1
  Zn  Zn156  1  0.43694302  0.18883582  0.93782049  1
  Zn  Zn157  1  0.44258576  0.68677431  0.43368183  1
  Zn  Zn158  1  0.43023772  0.68300390  0.93784595  1
  Zn  Zn159  1  0.93682062  0.18710091  0.43789739  1
  Zn  Zn160  1  0.93300962  0.18292668  0.94029592  1
  Zn  Zn161  1  0.93751706  0.68783680  0.44247349  1
  Zn  Zn162  1  0.93638786  0.69323203  0.94422119  1
  Zn  Zn163  1  0.03752459  0.29759863  0.05107479  1
  Zn  Zn164  1  0.06354242  0.30818958  0.56307829  1
  Zn  Zn165  1  0.06182823  0.81558968  0.06762510  1
  Zn  Zn166  1  0.06812647  0.81539004  0.55891736  1
  Zn  Zn167  1  0.56618819  0.30874049  0.06797714  1
  Zn  Zn168  1  0.56175989  0.31235483  0.56209697  1
  Zn  Zn169  1  0.55872876  0.71672952  0.06161457  1
  Zn  Zn170  1  0.68484672  0.81829174  0.56034064  1
  O  O171  1  0.11824232  0.11239925  0.11842707  1
  O  O172  1  0.11848434  0.10799089  0.62719881  1
  O  O173  1  0.11664715  0.62147504  0.12284064  1
  O  O174  1  0.10827716  0.62332199  0.61857009  1
  O  O175  1  0.61481577  0.12192690  0.12251267  1
  O  O176  1  0.61263057  0.11964807  0.63331524  1
  O  O177  1  0.62698731  0.63858750  0.11390183  1
  O  O178  1  0.61605596  0.62080705  0.61830929  1
  O  O179  1  0.37460957  0.38722555  0.38475829  1
  O  O180  1  0.36354745  0.38982177  0.87162791  1
  O  O181  1  0.38630470  0.89072934  0.36683671  1
  O  O182  1  0.37853359  0.88528968  0.88164848  1
  O  O183  1  0.88732886  0.37095570  0.38341978  1
  O  O184  1  0.90164534  0.37983876  0.87446472  1
  O  O185  1  0.88221616  0.87887648  0.38131992  1
  O  O186  1  0.88239326  0.87260948  0.88829964  1
  O  O187  1  0.26267940  -0.00257347  0.38686329  1
  O  O188  1  0.25681956  0.00745886  0.86698966  1
  O  O189  1  0.25747078  0.50474148  0.37054985  1
  O  O190  1  0.24950973  0.50805279  0.87320641  1
  O  O191  1  0.75084791  0.01193924  0.36453373  1
  O  O192  1  0.73886272  0.01364312  0.86487054  1
  O  O193  1  0.75116222  0.50665236  0.36647783  1
  O  O194  1  0.75281816  0.52144789  0.87627505  1
  O  O195  1  0.24468173  0.49599119  0.12882573  1
  O  O196  1  0.24831894  0.48730720  0.61775282  1
  O  O197  1  0.23462976  1.00326252  0.12062558  1
  O  O198  1  0.24397404  0.99404060  0.62525555  1
  O  O199  1  0.75199131  0.49258269  0.13530799  1
  O  O200  1  0.74238463  0.49341709  0.62424090  1
  O  O201  1  0.74155751  1.00003266  0.13083096  1
  O  O202  1  0.73551620  1.01099323  0.63095875  1
  O  O203  1  0.00432661  0.36880127  0.26003887  1
  O  O204  1  -0.00715606  0.35282082  0.74624925  1
  O  O205  1  0.00557723  0.87472943  0.26295179  1
  O  O206  1  0.01440368  0.88369619  0.76227593  1
  O  O207  1  0.49177864  0.35626355  0.25611614  1
  O  O208  1  0.51359595  0.36805403  0.74512463  1
  O  O209  1  0.50654968  0.87221356  0.25836799  1
  O  O210  1  0.50627359  0.86828323  0.74920482  1
  O  O211  1  0.49259196  0.13139386  0.24044957  1
  O  O212  1  0.49548551  0.13316808  0.74456325  1
  O  O213  1  0.49797439  0.63614571  0.26011192  1
  O  O214  1  0.49038374  0.63201252  0.74291982  1
  O  O215  1  1.00244247  0.13569847  0.25849453  1
  O  O216  1  0.99738949  0.12353059  0.73756542  1
  O  O217  1  0.99711145  0.62884523  0.24424169  1
  O  O218  1  0.99892473  0.63439444  0.73429487  1
  O  O219  1  0.36147378  0.25026118  0.00409788  1
  O  O220  1  0.36600210  0.25960681  0.49952453  1
  O  O221  1  0.37211441  0.76267727  0.01078394  1
  O  O222  1  0.36515136  0.74687109  0.49157444  1
  O  O223  1  0.92629773  0.26428160  0.01451779  1
  O  O224  1  0.87025664  0.25864444  0.50620572  1
  O  O225  1  0.86617955  0.75847301  0.01111622  1
  O  O226  1  0.87397212  0.76662653  0.49679310  1
  O  O227  1  0.13847797  0.25164476  0.49365543  1
  O  O228  1  0.12488506  0.23828816  0.99740568  1
  O  O229  1  0.13376047  0.75033890  0.48652963  1
  O  O230  1  0.12565847  0.73908041  1.01049974  1
  O  O231  1  0.63587899  0.25324148  0.49531729  1
  O  O232  1  0.61779131  0.24790134  0.98402955  1
  O  O233  1  0.62429793  0.74478584  0.48630842  1
  O  O234  1  0.63406353  0.76529100  0.98853156  1
  O  O235  1  0.49255947  0.24350108  0.13135003  1
  O  O236  1  0.50054256  0.24477979  0.63573013  1
  O  O237  1  0.48518485  0.75369670  0.14304199  1
  O  O238  1  0.50135325  0.73721484  0.63328069  1
  O  O239  1  1.01503836  0.24462445  0.15200702  1
  O  O240  1  0.99647269  0.23684027  0.62803599  1
  O  O241  1  0.99249038  0.74245974  0.12794056  1
  O  O242  1  1.00115418  0.73933643  0.61523387  1
  O  O243  1  0.00883639  0.25449303  0.37092082  1
  O  O244  1  0.00104276  0.23033364  0.85453970  1
  O  O245  1  0.00812495  0.75618055  0.37617763  1
  O  O246  1  -0.00204985  0.76384330  0.87647235  1
  O  O247  1  0.50760678  0.24682835  0.36955591  1
  O  O248  1  0.50751909  0.24483640  0.86275171  1
  O  O249  1  0.50547373  0.76029589  0.36792513  1
  O  O250  1  0.50361711  0.75040830  0.86659338  1
  O  O251  1  0.25823048  0.14184690  0.50646739  1
  O  O252  1  0.23973975  0.13501623  0.99588842  1
  O  O253  1  0.24861309  0.63058812  0.48935331  1
  O  O254  1  0.23995216  0.63037764  0.98923166  1
  O  O255  1  0.75531278  0.13722423  0.49507083  1
  O  O256  1  0.74711985  0.11809072  0.98482781  1
  O  O257  1  0.73896673  0.61594190  0.49233511  1
  O  O258  1  0.75316100  0.64024874  0.99016317  1
  O  O259  1  0.24092953  0.36401427  0.00130173  1
  O  O260  1  0.25804406  0.36866886  0.50821350  1
  O  O261  1  0.26154275  0.87744938  -0.00508181  1
  O  O262  1  0.24894392  0.86438592  0.50864005  1
  O  O263  1  0.76098458  0.37493745  0.01166355  1
  O  O264  1  0.75812315  0.36731351  0.50398112  1
  O  O265  1  0.75622252  0.86829435  -0.00064201  1
  O  O266  1  0.75661061  0.88076923  0.48911741  1
  O  O267  1  0.12966256  0.49365432  0.24604555  1
  O  O268  1  0.07447896  0.47409311  0.77117204  1
  O  O269  1  0.12176937  0.99371357  0.23709238  1
  O  O270  1  0.13463358  0.99284180  0.74193677  1
  O  O271  1  0.64094607  0.50175459  0.25339621  1
  O  O272  1  0.62809465  0.49411874  0.74496159  1
  O  O273  1  0.63061027  0.99697427  0.24645656  1
  O  O274  1  0.62712338  0.99316240  0.74153770  1
  O  O275  1  0.37636304  0.01502590  0.25825615  1
  O  O276  1  0.37167342  0.00638420  0.75403124  1
  O  O277  1  0.37393370  0.50583977  0.25286592  1
  O  O278  1  0.37663666  0.51065345  0.76282023  1
  O  O279  1  0.86399084  -0.00606675  0.24881272  1
  O  O280  1  0.85654806  -0.00703713  0.74205204  1
  O  O281  1  0.86320291  0.50299258  0.25519887  1
  O  O282  1  0.87135487  0.49470650  0.75373371  1
  O  O283  1  0.11502476  0.36903420  0.37221309  1
  O  O284  1  0.09917355  0.36976605  0.88407051  1
  O  O285  1  0.11778786  0.86954987  0.37005102  1
  O  O286  1  0.12078086  0.87689102  0.86550765  1
  O  O287  1  0.62445509  0.36006052  0.37984410  1
  O  O288  1  0.62295567  0.37530249  0.87286452  1
  O  O289  1  0.61932152  0.87116520  0.36671886  1
  O  O290  1  0.61783718  0.86621997  0.86587966  1
  O  O291  1  0.37892216  0.12896323  0.13493121  1
  O  O292  1  0.38706859  0.12779133  0.63300618  1
  O  O293  1  0.36703013  0.63222626  0.12650484  1
  O  O294  1  0.38172639  0.61758107  0.63429329  1
  O  O295  1  0.88126652  0.13252558  0.12107081  1
  O  O296  1  0.88265396  0.12764672  0.62608106  1
  O  O297  1  0.88129298  0.63602744  0.12586871  1
  O  O298  1  0.89235138  0.63067256  0.61238215  1
  O  O299  1  0.24874130  0.25356146  0.11630941  1
  O  O300  1  0.25105753  0.25796800  0.61274769  1
  O  O301  1  0.26070523  0.74849259  0.12721008  1
  O  O302  1  0.24680355  0.75776182  0.61311921  1
  O  O303  1  0.74957863  0.26316369  0.13079641  1
  O  O304  1  0.75310541  0.25236519  0.61905244  1
  O  O305  1  0.75582925  0.75491618  0.11941032  1
  O  O306  1  0.74304521  0.74268513  0.61693816  1
  O  O307  1  0.24296082  0.25741796  0.38988630  1
  O  O308  1  0.24266795  0.24567501  0.88032911  1
  O  O309  1  0.24612331  0.74199160  0.37902742  1
  O  O310  1  0.25432941  0.74211397  0.87856149  1
  O  O311  1  0.74576572  0.24788667  0.38052632  1
  O  O312  1  0.74495206  0.23583667  0.86762937  1
  O  O313  1  0.73995793  0.74063011  0.36577102  1
  O  O314  1  0.74358126  0.74512079  0.87934477  1
  O  O315  1  0.01149409  0.11316649  -0.00427317  1
  O  O316  1  -0.00493510  0.11563609  0.51082036  1
  O  O317  1  0.00414280  0.62215203  0.00959491  1
  O  O318  1  0.00286869  0.61098594  0.49971090  1
  O  O319  1  0.49508248  0.11772150  0.01344343  1
  O  O320  1  0.49787038  0.12260067  0.51022206  1
  O  O321  1  0.50055717  0.63491618  0.00680426  1
  O  O322  1  0.50993810  0.62267349  0.50545460  1
  O  O323  1  0.49256142  0.38139502  0.49739987  1
  O  O324  1  0.49360527  0.36955738  0.99352018  1
  O  O325  1  0.50254670  0.88765586  0.48514591  1
  O  O326  1  0.48522962  0.89319724  0.99914001  1
  O  O327  1  0.99506246  0.38101372  0.49633359  1
  O  O328  1  1.00496421  0.40255037  1.01749292  1
  O  O329  1  0.99482590  0.87940818  0.48882209  1
  O  O330  1  0.99505291  0.87858149  0.99595869  1
  O  O331  1  0.49391380  0.49980695  0.38008414  1
  O  O332  1  0.49272451  0.49462913  0.86977086  1
  O  O333  1  0.49931116  1.00025677  0.38052058  1
  O  O334  1  0.49446956  1.00522015  0.88432632  1
  O  O335  1  0.99662200  0.49089092  0.38351317  1
  O  O336  1  0.99554430  0.50742037  0.89072285  1
  O  O337  1  1.00009830  0.99343144  0.38194210  1
  O  O338  1  1.00666325  0.98776766  0.89001783  1
  O  O339  1  0.00958294  -0.00207866  0.11388391  1
  O  O340  1  0.00548896  0.00054921  0.61906034  1
  O  O341  1  -0.00109596  0.51436497  0.12498781  1
  O  O342  1  -0.00417453  0.50703185  0.60928619  1
  O  O343  1  0.50305166  0.00745289  0.12209894  1
  O  O344  1  0.50756063  0.00909837  0.61651320  1
  O  O345  1  0.48734171  0.51249079  0.14152551  1
  O  O346  1  0.50581206  0.50875167  0.62027520  1
  O  O347  1  0.24610502  0.38156861  0.24526454  1
  O  O348  1  0.25136298  0.37069692  0.72802118  1
  O  O349  1  0.23760531  0.87532253  0.25901212  1
  O  O350  1  0.24509068  0.87950304  0.74353664  1
  O  O351  1  0.75142086  0.38625404  0.24130749  1
  O  O352  1  0.73818349  0.37199706  0.74719794  1
  O  O353  1  0.74122668  0.88666619  0.25075159  1
  O  O354  1  0.73287781  0.88381980  0.75882862  1
  O  O355  1  0.26114885  0.13037214  0.24505964  1
  O  O356  1  0.25685040  0.12132444  0.75019604  1
  O  O357  1  0.24548505  0.61771427  0.26376327  1
  O  O358  1  0.25693565  0.63332064  0.75352677  1
  O  O359  1  0.74717030  0.11698991  0.25621444  1
  O  O360  1  0.75148384  0.11590409  0.75887650  1
  O  O361  1  0.75167371  0.61544362  0.25795539  1
  O  O362  1  0.74692433  0.62839357  0.76425217  1
  O  O363  1  0.37645742  0.11962745  0.36157240  1
  O  O364  1  0.36849172  0.12127333  0.86836747  1
  O  O365  1  0.36869459  0.61200432  0.37869402  1
  O  O366  1  0.36145251  0.61690608  0.86675853  1
  O  O367  1  0.86056798  0.12582338  0.37872168  1
  O  O368  1  0.86160173  0.12376606  0.87254097  1
  O  O369  1  0.86218637  0.62672398  0.37740135  1
  O  O370  1  0.86299536  0.63592803  0.87442069  1
  O  O371  1  0.12872387  0.38225664  0.13228110  1
  O  O372  1  0.13324046  0.37643583  0.61965911  1
  O  O373  1  0.12280561  0.88622491  0.13507804  1
  O  O374  1  0.13180397  0.88405355  0.63139771  1
  O  O375  1  0.64218596  0.37540530  0.11896347  1
  O  O376  1  0.63077971  0.37955602  0.63204003  1
  O  O377  1  0.62542691  0.88186011  0.14173732  1
  O  O378  1  0.62489152  0.88797367  0.63208523  1
  O  O379  1  0.12312288  0.25575124  0.26296088  1
  O  O380  1  0.10943791  0.24176612  0.74720412  1
  O  O381  1  0.12368914  0.75826542  0.26180332  1
  O  O382  1  0.11937780  0.76273657  0.74251973  1
  O  O383  1  0.61322317  0.24516179  0.25982807  1
  O  O384  1  0.61992431  0.25850391  0.76104860  1
  O  O385  1  0.61710731  0.75965392  0.25958993  1
  O  O386  1  0.61193222  0.75767267  0.75574240  1
  O  O387  1  0.37801336  0.23938474  0.24704734  1
  O  O388  1  0.38388500  0.24610793  0.74903552  1
  O  O389  1  0.38154862  0.75361876  0.24585117  1
  O  O390  1  0.38555891  0.74195786  0.75507859  1
  O  O391  1  0.89162414  0.25352099  0.25376232  1
  O  O392  1  0.88434744  0.24223794  0.74098484  1
  O  O393  1  0.87474845  0.75149607  0.23880984  1
  O  O394  1  0.88661539  0.79151023  0.73073219  1
  O  O395  1  0.38146285  0.49552484  0.49201523  1
  O  O396  1  0.36920726  0.49740514  0.97828950  1
  O  O397  1  0.39000590  1.00799214  0.48977178  1
  O  O398  1  0.37779680  0.99926614  0.99568700  1
  O  O399  1  0.88204620  0.48589623  0.49685864  1
  O  O400  1  0.88192476  0.50493155  0.99750143  1
  O  O401  1  0.88539618  0.99126902  0.49455365  1
  O  O402  1  0.88464556  0.98948939  1.00531777  1
  O  O403  1  0.12118818  0.00325787  0.00963787  1
  O  O404  1  0.11014361  -0.00836692  0.50773735  1
  O  O405  1  0.11703572  0.51569851  0.00848392  1
  O  O406  1  0.11077970  0.49769131  0.49190009  1
  O  O407  1  0.61473499  0.00086364  0.00770281  1
  O  O408  1  0.61362994  0.00074714  0.50717366  1
  O  O409  1  0.60725980  0.48456716  -0.01427279  1
  O  O410  1  0.61972193  0.50817440  0.50375207  1
  O  O411  1  0.36232113  0.36547713  0.11652000  1
  O  O412  1  0.37606699  0.37654229  0.61236093  1
  O  O413  1  0.37509458  0.87027682  0.11880125  1
  O  O414  1  0.36190805  0.88086591  0.62932708  1
  O  O415  1  0.86311298  0.36751662  0.12339895  1
  O  O416  1  0.86839861  0.36532408  0.61681993  1
  O  O417  1  0.87452645  0.86770191  0.11591507  1
  O  O418  1  0.87119191  0.87913357  0.59955771  1
  O  O419  1  0.12809526  0.13497947  0.37623820  1
  O  O420  1  0.13227823  0.12039106  0.88288411  1
  O  O421  1  0.13279101  0.63265287  0.37718156  1
  O  O422  1  0.13183017  0.62743991  0.88363447  1
  O  O423  1  0.63953047  0.13879151  0.37519530  1
  O  O424  1  0.63389986  0.13369294  0.87544566  1
  O  O425  1  0.63379427  0.63423153  0.38300558  1
  O  O426  1  0.63229459  0.64092491  0.87103381  1
