# generated using pymatgen
data_V85Zn86O256
_symmetry_space_group_name_H-M   'P 1'
_cell_length_a   16.91589299
_cell_length_b   16.91605140
_cell_length_c   16.92474651
_cell_angle_alpha   89.96566930
_cell_angle_beta   90.08582464
_cell_angle_gamma   90.03104018
_symmetry_Int_Tables_number   1
_chemical_formula_structural   V85Zn86O256
_chemical_formula_sum   'V85 Zn86 O256'
_cell_volume   4843.01115297
_cell_formula_units_Z   1
loop_
 _symmetry_equiv_pos_site_id
 _symmetry_equiv_pos_as_xyz
  1  'x, y, z'
loop_
 _atom_site_type_symbol
 _atom_site_label
 _atom_site_symmetry_multiplicity
 _atom_site_fract_x
 _atom_site_fract_y
 _atom_site_fract_z
 _atom_site_occupancy
  V  V0  1  0.87183397  0.62415162  0.75668910  1
  V  V1  1  0.62380287  -0.00903813  0.63429811  1
  V  V2  1  0.24931044  0.37267401  0.12857328  1
  V  V3  1  0.49688388  -0.00205794  0.50259404  1
  V  V4  1  0.12169250  0.12895856  -0.00314156  1
  V  V5  1  0.24504968  0.63115117  0.87196334  1
  V  V6  1  0.25069906  0.49887730  0.25108117  1
  V  V7  1  0.24970889  0.01037698  0.24876857  1
  V  V8  1  0.74609511  0.49734123  0.74488807  1
  V  V9  1  0.12674863  0.49901715  0.12917817  1
  V  V10  1  0.75584404  -0.00414105  0.75855647  1
  V  V11  1  0.62615591  0.62078104  0.50215037  1
  V  V12  1  0.00428402  0.37632906  0.37023059  1
  V  V13  1  0.62283858  0.25089647  0.87248955  1
  V  V14  1  0.37455735  0.50192928  0.37450308  1
  V  V15  1  0.87505350  0.87523372  0.50215131  1
  V  V16  1  0.37334338  0.00521099  0.37747674  1
  V  V17  1  0.12846800  0.25461161  0.37187393  1
  V  V18  1  0.61333421  0.49317208  0.11450071  1
  V  V19  1  0.75164888  0.24919335  0.50175886  1
  V  V20  1  0.87606565  0.00054320  0.37584258  1
  V  V21  1  0.00289165  0.00227891  0.50534574  1
  V  V22  1  0.50332043  0.37330701  0.37001933  1
  V  V23  1  0.01729132  0.25554223  0.75535172  1
  V  V24  1  0.24388078  0.12659686  0.87285925  1
  V  V25  1  0.01208616  0.37394369  0.87441432  1
  V  V26  1  0.25957902  0.75052562  0.00112732  1
  V  V27  1  0.75304890  0.25279043  0.01480329  1
  V  V28  1  0.56463295  0.81619127  0.20411925  1
  V  V29  1  0.74921228  0.49140322  0.24002785  1
  V  V30  1  0.61647324  0.37327873  0.74381217  1
  V  V31  1  0.00221932  0.62730308  0.12571875  1
  V  V32  1  0.61856311  0.00375217  0.12966255  1
  V  V33  1  0.00025846  0.49880883  -0.00063209  1
  V  V34  1  0.00670704  0.86901653  0.37478326  1
  V  V35  1  0.12882061  0.13117518  0.50255855  1
  V  V36  1  0.24620243  0.49581889  0.75100664  1
  V  V37  1  0.12647336  0.49786987  0.62610094  1
  V  V38  1  0.00410219  0.12401294  0.62916840  1
  V  V39  1  0.37510199  0.23499834  0.12880842  1
  V  V40  1  0.37811882  0.13245326  0.75228920  1
  V  V41  1  0.74584521  -0.00653764  0.25224086  1
  V  V42  1  0.50674836  0.62285298  0.62759254  1
  V  V43  1  0.38245739  0.49984975  0.88202899  1
  V  V44  1  0.12397616  0.63386395  -0.00270586  1
  V  V45  1  0.12037218  0.00082652  0.12522157  1
  V  V46  1  0.50496055  0.87285403  0.37908723  1
  V  V47  1  0.87851419  0.74824647  0.62812429  1
  V  V48  1  0.74887674  0.62238045  0.37369118  1
  V  V49  1  0.50482163  0.49702971  0.50506324  1
  V  V50  1  0.64310089  0.75447690  0.87146249  1
  V  V51  1  0.75139679  0.12404697  0.37719881  1
  V  V52  1  0.87595445  0.25205395  0.63433845  1
  V  V53  1  -0.00133454  0.86829335  0.87822812  1
  V  V54  1  0.62385393  0.12718119  0.00162144  1
  V  V55  1  0.25105870  0.87386856  0.62685336  1
  V  V56  1  0.86714342  0.49721870  0.87746373  1
  V  V57  1  0.24866265  0.36972243  0.62315911  1
  V  V58  1  0.37260486  -0.00248874  0.87299476  1
  V  V59  1  0.37580201  0.62646338  0.74811273  1
  V  V60  1  0.87374863  0.12878984  0.24248022  1
  V  V61  1  0.49648230  0.23552080  0.24665582  1
  V  V62  1  -0.01091720  0.00202075  -0.00664110  1
  V  V63  1  0.49854531  0.00533357  -0.00022958  1
  V  V64  1  0.75062286  0.74896466  0.50112722  1
  V  V65  1  0.87598580  0.37568512  0.50141786  1
  V  V66  1  0.00254496  0.50164034  0.49929337  1
  V  V67  1  0.12463883  0.87485874  0.75218752  1
  V  V68  1  0.63019327  0.62486817  -0.00940610  1
  V  V69  1  0.87361996  0.75033242  0.11496462  1
  V  V70  1  0.38373720  0.63297965  0.24186005  1
  V  V71  1  0.13481622  0.63533600  0.49491357  1
  V  V72  1  0.24966850  0.25249359  -0.00494491  1
  V  V73  1  0.25397366  0.87517633  0.12115760  1
  V  V74  1  0.74906204  0.86977434  0.12303668  1
  V  V75  1  0.87499461  0.62779346  0.25023005  1
  V  V76  1  0.62624930  0.12333494  0.50349756  1
  V  V77  1  -0.00142828  0.25233931  0.24438911  1
  V  V78  1  0.87194376  0.37194867  0.01225738  1
  V  V79  1  0.50389716  0.75918990  0.75247604  1
  V  V80  1  0.31630685  0.81748180  0.44958275  1
  V  V81  1  0.25422426  0.13297022  0.37801708  1
  V  V82  1  0.37271855  0.36656091  0.50046174  1
  V  V83  1  0.50064109  0.13177146  0.63065577  1
  V  V84  1  0.62446670  0.75089603  0.37262041  1
  Zn  Zn85  1  0.00971443  0.74638158  0.25298424  1
  Zn  Zn86  1  0.50029505  0.37207952  0.87911968  1
  Zn  Zn87  1  0.87333589  0.49957320  0.37465112  1
  Zn  Zn88  1  0.62574741  0.24878034  0.37287400  1
  Zn  Zn89  1  0.38208549  0.37808740  0.00697588  1
  Zn  Zn90  1  0.25092107  0.64056887  0.37273146  1
  Zn  Zn91  1  0.37413534  0.75198292  0.62069080  1
  Zn  Zn92  1  0.86461690  0.87612339  -0.00845150  1
  Zn  Zn93  1  0.00266693  0.62447813  0.62721577  1
  Zn  Zn94  1  0.24349888  0.00463610  0.74083819  1
  Zn  Zn95  1  0.12898253  0.86864770  0.25448131  1
  Zn  Zn96  1  0.50515704  0.87764337  0.87017489  1
  Zn  Zn97  1  0.74594474  0.87272340  0.62864568  1
  Zn  Zn98  1  0.87957981  0.12069586  0.75939669  1
  Zn  Zn99  1  0.37436862  0.25039520  0.62750902  1
  Zn  Zn100  1  0.00720722  0.74294755  0.75677907  1
  Zn  Zn101  1  0.50046901  0.63362767  0.12104550  1
  Zn  Zn102  1  0.75834874  0.12501223  0.87719140  1
  Zn  Zn103  1  -0.00516193  0.12975062  0.12139297  1
  Zn  Zn104  1  0.62770000  0.36850685  0.24090834  1
  Zn  Zn105  1  0.74546857  0.37734290  0.62346297  1
  Zn  Zn106  1  0.37955788  0.87178932  0.00143851  1
  Zn  Zn107  1  0.18326382  0.18823024  0.18783730  1
  Zn  Zn108  1  0.18809244  0.18870428  0.68749383  1
  Zn  Zn109  1  0.19053977  0.68950609  0.18841248  1
  Zn  Zn110  1  0.18694426  0.69169798  0.68300574  1
  Zn  Zn111  1  0.68349492  0.18383340  0.18907159  1
  Zn  Zn112  1  0.68949054  0.18553547  0.69096729  1
  Zn  Zn113  1  0.69167995  0.67675754  0.17766004  1
  Zn  Zn114  1  0.69029220  0.68568988  0.69086549  1
  Zn  Zn115  1  0.31526316  0.31411707  0.31043673  1
  Zn  Zn116  1  0.30958078  0.31445497  0.81237107  1
  Zn  Zn117  1  0.32011287  0.82028368  0.28611091  1
  Zn  Zn118  1  0.31162668  0.81157861  0.81141906  1
  Zn  Zn119  1  0.81553947  0.31216271  0.31454741  1
  Zn  Zn120  1  0.80959120  0.31363353  0.81949070  1
  Zn  Zn121  1  0.81550519  0.81189993  0.31131318  1
  Zn  Zn122  1  0.81762844  0.81930379  0.80723499  1
  Zn  Zn123  1  0.18838988  0.43909454  0.43885353  1
  Zn  Zn124  1  0.19245649  0.44321324  0.94187875  1
  Zn  Zn125  1  0.18254174  0.94787057  0.43999927  1
  Zn  Zn126  1  0.18251177  0.93853052  0.93479866  1
  Zn  Zn127  1  0.68789519  0.43653435  0.43466961  1
  Zn  Zn128  1  0.68641382  0.43333968  0.93702678  1
  Zn  Zn129  1  0.68521929  0.93568440  0.44148314  1
  Zn  Zn130  1  0.68495454  0.93668010  0.93769952  1
  Zn  Zn131  1  0.31012586  0.06224873  0.05876592  1
  Zn  Zn132  1  0.31193866  0.06026959  0.56284973  1
  Zn  Zn133  1  0.31292175  0.56587987  0.06322119  1
  Zn  Zn134  1  0.31447437  0.56224232  0.56215151  1
  Zn  Zn135  1  0.80757625  0.06213368  0.06341016  1
  Zn  Zn136  1  0.81453704  0.06257431  0.57093751  1
  Zn  Zn137  1  0.80989194  0.56250970  0.06131700  1
  Zn  Zn138  1  0.81449820  0.56250746  0.56608533  1
  Zn  Zn139  1  0.43632799  0.43320854  0.18786135  1
  Zn  Zn140  1  0.43618643  0.43916937  0.68916968  1
  Zn  Zn141  1  0.43117286  0.95039535  0.18718186  1
  Zn  Zn142  1  0.43035794  0.94083807  0.68642928  1
  Zn  Zn143  1  0.93909164  0.44024882  0.18961685  1
  Zn  Zn144  1  0.93936039  0.43677528  0.69021151  1
  Zn  Zn145  1  0.93581583  0.93814541  0.18743702  1
  Zn  Zn146  1  0.93894870  0.93619956  0.68927452  1
  Zn  Zn147  1  0.06243804  0.06402896  0.31370012  1
  Zn  Zn148  1  0.06186434  0.05785937  0.81194105  1
  Zn  Zn149  1  0.06613684  0.56551885  0.31453844  1
  Zn  Zn150  1  0.06017396  0.55950708  0.81311156  1
  Zn  Zn151  1  0.56401991  0.06059624  0.31613293  1
  Zn  Zn152  1  0.56486816  0.06453752  0.81394192  1
  Zn  Zn153  1  0.56419679  0.55923319  0.30854231  1
  Zn  Zn154  1  0.56619750  0.56332540  0.81152130  1
  Zn  Zn155  1  0.43995799  0.18712747  0.43794102  1
  Zn  Zn156  1  0.43699691  0.18893702  0.93895627  1
  Zn  Zn157  1  0.44499784  0.68042151  0.42971442  1
  Zn  Zn158  1  0.44348441  0.68382926  0.93585069  1
  Zn  Zn159  1  0.93800491  0.18938579  0.43691616  1
  Zn  Zn160  1  0.93443250  0.19183756  0.93404055  1
  Zn  Zn161  1  0.93826746  0.68557855  0.43962859  1
  Zn  Zn162  1  0.93488607  0.68701975  0.93591329  1
  Zn  Zn163  1  0.06478066  0.31469502  0.06136663  1
  Zn  Zn164  1  0.06363403  0.31256395  0.56237116  1
  Zn  Zn165  1  0.06434568  0.81318528  0.06354156  1
  Zn  Zn166  1  0.06519219  0.81461575  0.56803213  1
  Zn  Zn167  1  0.55819918  0.31256360  0.06090854  1
  Zn  Zn168  1  0.56285419  0.31069541  0.56214123  1
  Zn  Zn169  1  0.56715247  0.81250238  0.03861250  1
  Zn  Zn170  1  0.55892302  0.80929439  0.56129934  1
  O  O171  1  0.12186729  0.11583474  0.11743560  1
  O  O172  1  0.11419797  0.13305624  0.61703470  1
  O  O173  1  0.12142591  0.61928049  0.11817426  1
  O  O174  1  0.12551336  0.61480691  0.61466996  1
  O  O175  1  0.62749703  0.11515425  0.11373438  1
  O  O176  1  0.61800992  0.11798747  0.62159773  1
  O  O177  1  0.61967800  0.61220278  0.11805768  1
  O  O178  1  0.61468725  0.62835423  0.61948154  1
  O  O179  1  0.38420108  0.38140743  0.38114771  1
  O  O180  1  0.37410731  0.39169689  0.87072107  1
  O  O181  1  0.37625722  0.87710980  0.38033552  1
  O  O182  1  0.37379153  0.88869719  0.87450100  1
  O  O183  1  0.88489208  0.37685360  0.38503310  1
  O  O184  1  0.88224082  0.38175465  0.88608523  1
  O  O185  1  0.88241033  0.88116980  0.38232655  1
  O  O186  1  0.89128366  0.87456541  0.87657275  1
  O  O187  1  0.25437176  0.00801415  0.36982105  1
  O  O188  1  0.25655323  0.01013552  0.87595078  1
  O  O189  1  0.26159846  0.49790986  0.36798402  1
  O  O190  1  0.25633183  0.50962219  0.86730219  1
  O  O191  1  0.75413929  0.00220052  0.36971791  1
  O  O192  1  0.74422077  -0.00040516  0.86189774  1
  O  O193  1  0.74971718  0.50647408  0.36372167  1
  O  O194  1  0.76143426  0.49208477  0.86663720  1
  O  O195  1  0.24642451  0.49449446  0.13069982  1
  O  O196  1  0.24581137  0.49461573  0.63197680  1
  O  O197  1  0.24187731  1.00048653  0.13127945  1
  O  O198  1  0.25379114  0.98329368  0.62397030  1
  O  O199  1  0.74187968  0.50314180  0.13693594  1
  O  O200  1  0.75522475  0.49630806  0.63941617  1
  O  O201  1  0.73764766  0.99356423  0.13295070  1
  O  O202  1  0.73871279  0.99901710  0.63160484  1
  O  O203  1  -0.00542226  0.36984914  0.26226870  1
  O  O204  1  -0.00160799  0.36811907  0.76147195  1
  O  O205  1  -0.00169228  0.87766884  0.26632283  1
  O  O206  1  0.00709084  0.87356376  0.75979034  1
  O  O207  1  0.50215265  0.36720763  0.25770423  1
  O  O208  1  0.51274369  0.37968631  0.75419749  1
  O  O209  1  0.49619553  0.87632297  0.25820572  1
  O  O210  1  0.49476172  0.86236585  0.74750730  1
  O  O211  1  0.49986234  0.13668642  0.25701997  1
  O  O212  1  0.49167564  0.12013104  0.74234068  1
  O  O213  1  0.48767808  0.62059709  0.24752664  1
  O  O214  1  0.49458609  0.62834405  0.74275494  1
  O  O215  1  0.99102159  0.13303422  0.25071067  1
  O  O216  1  1.00237218  0.13306946  0.74419600  1
  O  O217  1  0.99136542  0.62312807  0.24531471  1
  O  O218  1  0.98894157  0.62426821  0.74868170  1
  O  O219  1  0.36453840  0.24802655  0.00967537  1
  O  O220  1  0.37866743  0.26332358  0.50129943  1
  O  O221  1  0.36418401  0.75036529  -0.00570839  1
  O  O222  1  0.37910787  0.75188920  0.49742564  1
  O  O223  1  0.86194434  0.25635312  0.00205944  1
  O  O224  1  0.87273354  0.25585613  0.50978475  1
  O  O225  1  0.87531915  0.75219027  0.01115858  1
  O  O226  1  0.86962752  0.75231594  0.50732698  1
  O  O227  1  0.11755590  0.23949387  0.48795360  1
  O  O228  1  0.13306710  0.23701346  1.00686138  1
  O  O229  1  0.11839343  0.73295821  0.50487433  1
  O  O230  1  0.13397646  0.73811516  1.00462073  1
  O  O231  1  0.63248446  0.24112216  0.49947935  1
  O  O232  1  0.63305655  0.24367478  0.99832009  1
  O  O233  1  0.63130162  0.74311491  0.49253599  1
  O  O234  1  0.63181770  0.74054351  0.98192318  1
  O  O235  1  0.49134933  0.25059721  0.13848542  1
  O  O236  1  0.49747543  0.23547384  0.62120846  1
  O  O237  1  0.51484707  0.76103261  0.13283465  1
  O  O238  1  0.49743938  0.74126675  0.63195878  1
  O  O239  1  1.00774578  0.25123375  0.14045966  1
  O  O240  1  0.99541711  0.24707252  0.63354537  1
  O  O241  1  0.99210766  0.74512609  0.12701522  1
  O  O242  1  0.98854058  0.74778188  0.62621508  1
  O  O243  1  0.00650007  0.25779849  0.36839740  1
  O  O244  1  -0.00057513  0.26156101  0.86726829  1
  O  O245  1  -0.00684282  0.76614766  0.37640276  1
  O  O246  1  0.00133491  0.76304648  0.87770898  1
  O  O247  1  0.49939043  0.25612197  0.36491137  1
  O  O248  1  0.51725215  0.24536279  0.87871008  1
  O  O249  1  0.51421164  0.75623427  0.37592346  1
  O  O250  1  0.50677561  0.75243280  0.86594515  1
  O  O251  1  0.23986520  0.12216007  0.49301275  1
  O  O252  1  0.24210339  0.13184664  0.99241470  1
  O  O253  1  0.24001589  0.62323638  0.49682405  1
  O  O254  1  0.24443157  0.63174399  0.99371029  1
  O  O255  1  0.74723867  0.12873279  0.49840396  1
  O  O256  1  0.74356784  0.13490603  1.00099607  1
  O  O257  1  0.74580690  0.62749739  0.49464389  1
  O  O258  1  0.73076174  0.62555866  1.00955510  1
  O  O259  1  0.25414582  0.36683085  0.00679762  1
  O  O260  1  0.26215756  0.38512787  0.50948324  1
  O  O261  1  0.24929414  0.86752596  0.00277199  1
  O  O262  1  0.24780043  0.87438924  0.50396104  1
  O  O263  1  0.75612550  0.36178123  -0.00120115  1
  O  O264  1  0.75667015  0.36922041  0.50113293  1
  O  O265  1  0.74856257  0.88204222  0.01747916  1
  O  O266  1  0.75709318  0.86691499  0.50217710  1
  O  O267  1  0.13413782  0.50765329  0.23796830  1
  O  O268  1  0.13486021  0.50683218  0.73985674  1
  O  O269  1  0.12969734  0.99893909  0.24219100  1
  O  O270  1  0.12644596  0.98345220  0.75056301  1
  O  O271  1  0.63461302  0.49714049  0.23894246  1
  O  O272  1  0.63379697  0.48687621  0.75646133  1
  O  O273  1  0.63285644  1.00491026  0.24286022  1
  O  O274  1  0.63381591  1.00411285  0.74124240  1
  O  O275  1  0.36456798  -0.00073314  0.26582844  1
  O  O276  1  0.37005112  0.01205777  0.75820610  1
  O  O277  1  0.37058894  0.50495414  0.25715527  1
  O  O278  1  0.36734488  0.51116586  0.75583685  1
  O  O279  1  0.86735309  0.00755327  0.25591919  1
  O  O280  1  0.85989148  0.00163470  0.74151896  1
  O  O281  1  0.86491606  0.50902854  0.24869856  1
  O  O282  1  0.87000676  0.50384319  0.75791484  1
  O  O283  1  0.11733803  0.36729080  0.38121155  1
  O  O284  1  0.11140802  0.38551407  0.88474542  1
  O  O285  1  0.10966959  0.88272425  0.37699323  1
  O  O286  1  0.11631206  0.87477621  0.86409005  1
  O  O287  1  0.61229861  0.37222345  0.37385475  1
  O  O288  1  0.62320614  0.36779377  0.86528067  1
  O  O289  1  0.61750041  0.86737404  0.37350296  1
  O  O290  1  0.62432535  0.85900210  0.87767918  1
  O  O291  1  0.36624104  0.13533911  0.12727337  1
  O  O292  1  0.38122801  0.12522302  0.63297004  1
  O  O293  1  0.38092856  0.62098152  0.13626552  1
  O  O294  1  0.38343584  0.62730457  0.63197196  1
  O  O295  1  0.87504589  0.12096592  0.13866477  1
  O  O296  1  0.88846733  0.13545102  0.62828113  1
  O  O297  1  0.88014954  0.63055440  0.13022257  1
  O  O298  1  0.87920224  0.63202893  0.63260685  1
  O  O299  1  0.25299199  0.25602286  0.12174077  1
  O  O300  1  0.25081320  0.26566916  0.62800335  1
  O  O301  1  0.24854797  0.76218532  0.11505367  1
  O  O302  1  0.25443773  0.76415805  0.62380754  1
  O  O303  1  0.74444544  0.24853181  0.11394010  1
  O  O304  1  0.75943555  0.25006896  0.61888846  1
  O  O305  1  0.75894391  0.75917515  0.13422568  1
  O  O306  1  0.76013135  0.75039093  0.62158345  1
  O  O307  1  0.24329389  0.24447168  0.36925443  1
  O  O308  1  0.25376738  0.24411524  0.88675355  1
  O  O309  1  0.26503959  0.76279070  0.38029967  1
  O  O310  1  0.25197033  0.73733601  0.87989670  1
  O  O311  1  0.74974729  0.24321849  0.38342121  1
  O  O312  1  0.73814834  0.24842714  0.88589880  1
  O  O313  1  0.74178826  0.74488337  0.37751393  1
  O  O314  1  0.74178981  0.75251594  0.86459711  1
  O  O315  1  0.00557548  0.12089359  0.00028029  1
  O  O316  1  0.00410212  0.12073871  0.50696835  1
  O  O317  1  0.00703330  0.61959591  0.00413337  1
  O  O318  1  0.00770327  0.61285549  0.49874395  1
  O  O319  1  0.50749071  0.11430317  -0.00235930  1
  O  O320  1  0.50592085  0.11785250  0.50646856  1
  O  O321  1  0.51911221  0.63339386  0.00530687  1
  O  O322  1  0.50513643  0.61663469  0.50662534  1
  O  O323  1  0.49526322  0.38051728  0.49458725  1
  O  O324  1  0.49329304  0.37130545  0.99293499  1
  O  O325  1  0.50276048  0.88055732  0.48703380  1
  O  O326  1  0.49730930  0.88945906  0.99368001  1
  O  O327  1  0.99723064  0.38434669  0.49291830  1
  O  O328  1  0.99382887  0.37982051  0.99593980  1
  O  O329  1  0.99775068  0.88326865  0.49429205  1
  O  O330  1  1.00275492  0.88192014  0.99015898  1
  O  O331  1  0.49236485  0.49315685  0.37892188  1
  O  O332  1  0.48389218  0.50460744  0.87004709  1
  O  O333  1  0.49200523  0.99259987  0.37822911  1
  O  O334  1  0.49256425  0.99997767  0.88061261  1
  O  O335  1  1.00043856  0.49265233  0.38039814  1
  O  O336  1  0.99030346  0.49338737  0.88172431  1
  O  O337  1  0.99366063  0.99516167  0.38344315  1
  O  O338  1  1.00558306  0.98806086  0.88520517  1
  O  O339  1  0.00664616  0.00102866  0.11766368  1
  O  O340  1  -0.00518197  0.01078671  0.61761365  1
  O  O341  1  0.00920601  0.50526844  0.12047759  1
  O  O342  1  0.00893414  0.49919294  0.61744296  1
  O  O343  1  0.51078890  -0.00403113  0.11896229  1
  O  O344  1  0.50586957  0.00674301  0.62288980  1
  O  O345  1  0.51229532  0.49915579  0.12802705  1
  O  O346  1  0.49500180  0.50870607  0.61599867  1
  O  O347  1  0.25369020  0.38889825  0.24405122  1
  O  O348  1  0.25436718  0.38854861  0.74182810  1
  O  O349  1  0.24625673  0.89083398  0.24013824  1
  O  O350  1  0.24170270  0.87654340  0.74462076  1
  O  O351  1  0.74947384  0.38794489  0.25654803  1
  O  O352  1  0.74181563  0.38110269  0.74823328  1
  O  O353  1  0.75587119  0.88752778  0.24374505  1
  O  O354  1  0.75058041  0.88963835  0.74546981  1
  O  O355  1  0.24322932  0.11668381  0.25979002  1
  O  O356  1  0.25350862  0.12401515  0.75729699  1
  O  O357  1  0.26192430  0.61517630  0.25122230  1
  O  O358  1  0.25574198  0.62107282  0.75444025  1
  O  O359  1  0.75529469  0.11663342  0.25614169  1
  O  O360  1  0.75321722  0.11183555  0.75055611  1
  O  O361  1  0.75678293  0.61508877  0.25352158  1
  O  O362  1  0.76309958  0.61465979  0.74697324  1
  O  O363  1  0.36261054  0.12075133  0.38094288  1
  O  O364  1  0.36638307  0.11895007  0.87081238  1
  O  O365  1  0.37273229  0.61687812  0.36599690  1
  O  O366  1  0.36843929  0.61669739  0.86867676  1
  O  O367  1  0.86995470  0.11902628  0.36919075  1
  O  O368  1  0.87239920  0.12470333  0.87251049  1
  O  O369  1  0.86972741  0.62324005  0.36665754  1
  O  O370  1  0.87819684  0.61328984  0.86868517  1
  O  O371  1  0.13875928  0.38434177  0.12033435  1
  O  O372  1  0.13359102  0.38834027  0.61549686  1
  O  O373  1  0.13403854  0.88886125  0.12140751  1
  O  O374  1  0.13526746  0.87467389  0.63510785  1
  O  O375  1  0.62467923  0.38881918  0.12296645  1
  O  O376  1  0.62491624  0.37060494  0.63899519  1
  O  O377  1  0.62673082  0.87517121  0.13309158  1
  O  O378  1  0.62315582  0.88759679  0.61841331  1
  O  O379  1  0.11559998  0.24522154  0.26389087  1
  O  O380  1  0.11646770  0.25350665  0.74911046  1
  O  O381  1  0.12324526  0.75487620  0.24793804  1
  O  O382  1  0.12216068  0.76484322  0.74512959  1
  O  O383  1  0.61306991  0.25017073  0.25129949  1
  O  O384  1  0.63121650  0.26291348  0.75726101  1
  O  O385  1  0.62836479  0.74880562  0.25403732  1
  O  O386  1  0.61760127  0.74030979  0.76229002  1
  O  O387  1  0.38695036  0.25175024  0.24433859  1
  O  O388  1  0.37089124  0.23739277  0.75076836  1
  O  O389  1  0.37790603  0.73252445  0.24949823  1
  O  O390  1  0.38287990  0.73760625  0.75276569  1
  O  O391  1  0.88421785  0.24076604  0.25681095  1
  O  O392  1  0.87776682  0.25352611  0.74057429  1
  O  O393  1  0.87746010  0.73775685  0.24380840  1
  O  O394  1  0.87784113  0.74148941  0.74463088  1
  O  O395  1  0.38570179  0.49563186  0.49169098  1
  O  O396  1  0.36674844  0.50073808  0.98477915  1
  O  O397  1  0.38073339  1.00206480  0.48724277  1
  O  O398  1  0.38207584  1.00230504  0.99170274  1
  O  O399  1  0.88455339  0.49493864  0.49959573  1
  O  O400  1  0.87783117  0.49529684  0.99475717  1
  O  O401  1  0.88351301  0.99693368  0.49746275  1
  O  O402  1  0.88603552  0.99684586  1.00860205  1
  O  O403  1  0.11864825  0.01140493  0.00593206  1
  O  O404  1  0.11095067  0.01538579  0.49752308  1
  O  O405  1  0.12414641  0.51060665  0.01215122  1
  O  O406  1  0.11907466  0.50749015  0.50520934  1
  O  O407  1  0.61907976  0.00653626  0.00671213  1
  O  O408  1  0.61905856  0.00695360  0.50809472  1
  O  O409  1  0.62853935  0.50594931  0.00796272  1
  O  O410  1  0.61263037  0.50324400  0.49500812  1
  O  O411  1  0.36228675  0.36770358  0.12592661  1
  O  O412  1  0.36936314  0.37516051  0.61803296  1
  O  O413  1  0.35943072  0.88616781  0.12133400  1
  O  O414  1  0.36136459  0.87066788  0.62767801  1
  O  O415  1  0.87982506  0.38191508  0.11156627  1
  O  O416  1  0.87631098  0.36810911  0.61752025  1
  O  O417  1  0.86694054  0.86656161  0.12534590  1
  O  O418  1  0.87512330  0.86599781  0.61873231  1
  O  O419  1  0.13377019  0.13172372  0.38189628  1
  O  O420  1  0.13544193  0.12073509  0.88129269  1
  O  O421  1  0.13274922  0.62281202  0.38831443  1
  O  O422  1  0.13319967  0.61698674  0.88453277  1
  O  O423  1  0.63324388  0.12397707  0.38559464  1
  O  O424  1  0.63063881  0.12939778  0.88682929  1
  O  O425  1  0.62806844  0.63093416  0.37916635  1
  O  O426  1  0.62675416  0.63041812  0.88334089  1
