# generated using pymatgen
data_V85Zn86O256
_symmetry_space_group_name_H-M   'P 1'
_cell_length_a   16.95364081
_cell_length_b   16.95271539
_cell_length_c   16.95110823
_cell_angle_alpha   90.02952692
_cell_angle_beta   90.03048674
_cell_angle_gamma   90.00969783
_symmetry_Int_Tables_number   1
_chemical_formula_structural   V85Zn86O256
_chemical_formula_sum   'V85 Zn86 O256'
_cell_volume   4871.92080306
_cell_formula_units_Z   1
loop_
 _symmetry_equiv_pos_site_id
 _symmetry_equiv_pos_as_xyz
  1  'x, y, z'
loop_
 _atom_site_type_symbol
 _atom_site_label
 _atom_site_symmetry_multiplicity
 _atom_site_fract_x
 _atom_site_fract_y
 _atom_site_fract_z
 _atom_site_occupancy
  V  V0  1  0.37976281  -0.01043243  0.87203703  1
  V  V1  1  0.75421561  0.11602072  0.87150937  1
  V  V2  1  0.74825567  0.51102095  0.25174494  1
  V  V3  1  0.75098674  0.49552893  0.74815470  1
  V  V4  1  0.49788584  0.37179897  0.87360381  1
  V  V5  1  0.12794285  0.50156133  0.63820208  1
  V  V6  1  0.24667601  0.37170940  0.12403784  1
  V  V7  1  0.73152497  0.13328822  0.37556939  1
  V  V8  1  0.25112652  0.87632372  0.62686968  1
  V  V9  1  0.62515483  0.12331568  -0.00000197  1
  V  V10  1  0.58040060  0.68181523  -0.05733643  1
  V  V11  1  0.37402852  0.49991316  0.37560953  1
  V  V12  1  0.74947688  0.74680215  -0.00146497  1
  V  V13  1  0.75208794  0.87696420  0.12421992  1
  V  V14  1  0.25831807  0.12422253  0.87208170  1
  V  V15  1  0.25992888  0.00518441  0.74626768  1
  V  V16  1  0.37417602  0.24404168  0.12585870  1
  V  V17  1  0.61911647  0.86832369  0.75479547  1
  V  V18  1  0.49763840  -0.00888375  -0.00294007  1
  V  V19  1  0.24908694  0.12487514  0.37237098  1
  V  V20  1  -0.00227816  0.37027638  0.37249772  1
  V  V21  1  0.49715158  0.74547350  0.25255713  1
  V  V22  1  0.00455285  0.00470952  0.49767220  1
  V  V23  1  0.13257392  0.63240942  0.00120684  1
  V  V24  1  0.51508078  0.00814372  0.50324143  1
  V  V25  1  0.37259657  0.37326766  -0.00191607  1
  V  V26  1  0.87808285  0.49886189  0.87447040  1
  V  V27  1  0.11795236  0.00307521  0.62653448  1
  V  V28  1  0.36912826  0.36777541  0.50116151  1
  V  V29  1  0.00167250  0.62929675  0.62397076  1
  V  V30  1  0.24675713  0.24416617  -0.00356530  1
  V  V31  1  0.63092241  0.49374699  0.62318323  1
  V  V32  1  0.37166672  0.23903825  0.62571461  1
  V  V33  1  0.62309308  0.00083975  0.12578705  1
  V  V34  1  0.74492751  0.24950936  0.50481929  1
  V  V35  1  0.00451110  0.50197900  0.49790414  1
  V  V36  1  0.62754999  0.37022813  0.74430908  1
  V  V37  1  0.62328723  0.24847368  0.87548315  1
  V  V38  1  0.87782890  0.01297392  0.37633301  1
  V  V39  1  0.00608155  0.76218040  0.25642665  1
  V  V40  1  -0.00237299  0.12635641  0.13351333  1
  V  V41  1  0.50250419  0.87178953  0.37769715  1
  V  V42  1  0.36329576  0.49371479  0.86238543  1
  V  V43  1  0.50341080  0.62221848  0.12263880  1
  V  V44  1  0.24702622  0.49922188  0.25058620  1
  V  V45  1  0.74736061  0.62782930  0.87418897  1
  V  V46  1  0.24964948  0.37509607  0.62860147  1
  V  V47  1  0.62941436  0.62099511  0.49163027  1
  V  V48  1  0.89135563  0.12327194  0.74651210  1
  V  V49  1  0.25379682  0.74660275  0.49891105  1
  V  V50  1  0.50391937  0.62853746  0.62961797  1
  V  V51  1  0.12348780  0.35878183  0.75793215  1
  V  V52  1  0.87139685  0.50640461  0.37349719  1
  V  V53  1  0.87867131  0.88048670  0.49621992  1
  V  V54  1  0.50032275  0.36993536  0.37770178  1
  V  V55  1  0.13071910  0.13232968  0.50706845  1
  V  V56  1  0.49871630  0.12122285  0.12462578  1
  V  V57  1  0.50068361  0.49434415  0.50128612  1
  V  V58  1  0.62570870  0.37204393  0.25328855  1
  V  V59  1  0.86799232  0.37841033  0.50948344  1
  V  V60  1  0.37975207  0.87616789  0.50254032  1
  V  V61  1  0.12155496  0.12019085  -0.00436848  1
  V  V62  1  -0.00408406  -0.00752115  -0.00761475  1
  V  V63  1  0.50054763  0.49834105  -0.00417829  1
  V  V64  1  0.74994656  0.37578289  0.12545105  1
  V  V65  1  0.87830761  0.25152120  0.13411498  1
  V  V66  1  0.87569608  0.62668000  0.74721497  1
  V  V67  1  0.49206535  0.23735250  0.75109352  1
  V  V68  1  -0.00116093  0.50099730  0.00020816  1
  V  V69  1  0.75068748  0.25006977  0.00159497  1
  V  V70  1  0.50220307  0.24691627  0.25464556  1
  V  V71  1  0.36689176  0.62773836  0.74329340  1
  V  V72  1  0.12214466  0.49867468  0.12533487  1
  V  V73  1  0.75247377  0.74566450  0.49253724  1
  V  V74  1  0.13157923  0.25365456  0.38021829  1
  V  V75  1  0.87584018  0.74967959  0.12745402  1
  V  V76  1  0.37067130  0.75198567  0.11093961  1
  V  V77  1  0.00297894  0.76212490  0.75948500  1
  V  V78  1  0.87916799  0.75778222  0.62275485  1
  V  V79  1  0.62485549  0.49977398  0.11826089  1
  V  V80  1  0.74210626  0.88626941  0.62057918  1
  V  V81  1  0.12640999  -0.00249078  0.14428137  1
  V  V82  1  0.62407689  0.87546029  0.25192049  1
  V  V83  1  0.37234454  -0.00002713  0.37243870  1
  V  V84  1  0.11883259  0.36785450  0.24665114  1
  Zn  Zn85  1  0.63309973  0.74048168  0.36914450  1
  Zn  Zn86  1  -0.00008206  0.62797274  0.12858721  1
  Zn  Zn87  1  0.12904662  0.75606015  0.36643039  1
  Zn  Zn88  1  0.87524383  0.37512111  -0.00267783  1
  Zn  Zn89  1  0.24803804  0.62608046  0.37372846  1
  Zn  Zn90  1  0.87470909  0.87594795  -0.01521693  1
  Zn  Zn91  1  0.75209130  0.00350351  0.25199002  1
  Zn  Zn92  1  0.24422748  0.87211388  0.12978876  1
  Zn  Zn93  1  0.13638939  0.76179058  0.88821363  1
  Zn  Zn94  1  0.75070837  -0.00088846  0.74693240  1
  Zn  Zn95  1  0.88198700  0.25350116  0.63949527  1
  Zn  Zn96  1  0.51458309  0.11811863  0.62701608  1
  Zn  Zn97  1  0.37411028  0.62183467  0.24704121  1
  Zn  Zn98  1  -0.01200782  0.34519018  0.85433756  1
  Zn  Zn99  1  0.24284419  0.62328728  0.86621739  1
  Zn  Zn100  1  0.87597380  0.13260852  0.25825433  1
  Zn  Zn101  1  0.36499601  0.12130116  0.24568207  1
  Zn  Zn102  1  0.13075625  0.62267400  0.49771869  1
  Zn  Zn103  1  0.50142069  0.85584959  0.87180942  1
  Zn  Zn104  1  0.12405287  0.88150417  0.76185419  1
  Zn  Zn105  1  0.87514802  0.63102356  0.25544881  1
  Zn  Zn106  1  0.38392664  0.75533125  0.63083332  1
  Zn  Zn107  1  0.18362923  0.18385880  0.18638943  1
  Zn  Zn108  1  0.19121087  0.18853201  0.68803096  1
  Zn  Zn109  1  0.18700213  0.68716641  0.18678733  1
  Zn  Zn110  1  0.18713062  0.69319648  0.68283732  1
  Zn  Zn111  1  0.68793089  0.18747288  0.19090441  1
  Zn  Zn112  1  0.69138798  0.18726106  0.68462130  1
  Zn  Zn113  1  0.68350964  0.68827405  0.18169134  1
  Zn  Zn114  1  0.68991618  0.68830794  0.68126226  1
  Zn  Zn115  1  0.31093643  0.31106158  0.31177871  1
  Zn  Zn116  1  0.30677387  0.30982869  0.80844263  1
  Zn  Zn117  1  0.30934304  0.81417598  0.30936893  1
  Zn  Zn118  1  0.30875763  0.81030761  0.81394326  1
  Zn  Zn119  1  0.81111546  0.31540363  0.31715402  1
  Zn  Zn120  1  0.81021986  0.30771125  0.81278891  1
  Zn  Zn121  1  0.81617302  0.81817771  0.31358446  1
  Zn  Zn122  1  0.80478303  0.80928890  0.80724594  1
  Zn  Zn123  1  0.18816950  0.43687033  0.43998292  1
  Zn  Zn124  1  0.18358701  0.43686678  0.93684281  1
  Zn  Zn125  1  0.19112840  0.93879693  0.43105801  1
  Zn  Zn126  1  0.19044714  0.92967198  0.94595054  1
  Zn  Zn127  1  0.68787573  0.43439685  0.43413152  1
  Zn  Zn128  1  0.68773920  0.43660850  0.93441065  1
  Zn  Zn129  1  0.69323791  0.93888318  0.43397772  1
  Zn  Zn130  1  0.68361693  0.93233550  0.93598811  1
  Zn  Zn131  1  0.29529119  0.02910139  0.04906631  1
  Zn  Zn132  1  0.31277081  0.06197591  0.55613667  1
  Zn  Zn133  1  0.31427113  0.56063160  0.06229116  1
  Zn  Zn134  1  0.31242271  0.55782779  0.56441778  1
  Zn  Zn135  1  0.81476675  0.06283338  0.06274191  1
  Zn  Zn136  1  0.81475164  0.06999835  0.56202886  1
  Zn  Zn137  1  0.81060061  0.56639153  0.06127869  1
  Zn  Zn138  1  0.81227941  0.56312042  0.56218627  1
  Zn  Zn139  1  0.43577969  0.43379820  0.18674714  1
  Zn  Zn140  1  0.44121018  0.43316152  0.68608449  1
  Zn  Zn141  1  0.40539845  0.91944702  0.20242687  1
  Zn  Zn142  1  0.44358789  0.94029919  0.68724746  1
  Zn  Zn143  1  0.93628598  0.43836255  0.18647716  1
  Zn  Zn144  1  0.94364427  0.43954229  0.68763105  1
  Zn  Zn145  1  0.93709745  0.94188870  0.18855607  1
  Zn  Zn146  1  0.93170376  0.94250492  0.81445362  1
  Zn  Zn147  1  0.05583540  0.06923522  0.31864104  1
  Zn  Zn148  1  0.07145583  0.06353867  0.81397613  1
  Zn  Zn149  1  0.06157611  0.57125376  0.31268895  1
  Zn  Zn150  1  0.05994286  0.56769212  0.81386416  1
  Zn  Zn151  1  0.55638433  0.05872319  0.31292773  1
  Zn  Zn152  1  0.57108686  0.05367339  0.80830436  1
  Zn  Zn153  1  0.56104765  0.55703598  0.31054208  1
  Zn  Zn154  1  0.55597916  0.55478467  0.80562432  1
  Zn  Zn155  1  0.43621528  0.18609047  0.43917782  1
  Zn  Zn156  1  0.43444117  0.18076845  0.93825977  1
  Zn  Zn157  1  0.43875235  0.68423039  0.44012446  1
  Zn  Zn158  1  0.41278326  0.68614116  0.92765246  1
  Zn  Zn159  1  0.95294570  0.20530453  0.47595933  1
  Zn  Zn160  1  0.93237010  0.17899996  0.93989903  1
  Zn  Zn161  1  0.94017888  0.68848469  0.43525404  1
  Zn  Zn162  1  0.93732340  0.68686074  0.93951748  1
  Zn  Zn163  1  0.04198420  0.29173719  0.02212600  1
  Zn  Zn164  1  0.06183539  0.31493798  0.56715654  1
  Zn  Zn165  1  0.06243757  0.81734358  0.07043253  1
  Zn  Zn166  1  0.08428111  0.83540539  0.52444232  1
  Zn  Zn167  1  0.56159066  0.31185159  0.06466614  1
  Zn  Zn168  1  0.57786950  0.27859241  0.57645317  1
  Zn  Zn169  1  0.55256174  0.81824712  0.07041914  1
  Zn  Zn170  1  0.56697217  0.80883682  0.56053189  1
  O  O171  1  0.11211915  0.12277652  0.11884382  1
  O  O172  1  0.13728295  0.11832894  0.61500535  1
  O  O173  1  0.12476135  0.61696302  0.11607985  1
  O  O174  1  0.12000541  0.61677121  0.62352216  1
  O  O175  1  0.62154923  0.11980060  0.12001861  1
  O  O176  1  0.61258652  0.17093242  0.60946728  1
  O  O177  1  0.61256104  0.61549603  0.12491600  1
  O  O178  1  0.62017977  0.61472450  0.61745286  1
  O  O179  1  0.37697833  0.38093473  0.38153031  1
  O  O180  1  0.37696902  0.37818615  0.87694750  1
  O  O181  1  0.38231189  0.88128284  0.38462128  1
  O  O182  1  0.38291958  0.88471561  0.86752104  1
  O  O183  1  0.88269904  0.38709773  0.37860841  1
  O  O184  1  0.87591835  0.38385368  0.87534181  1
  O  O185  1  0.86081788  0.89282722  0.39022679  1
  O  O186  1  0.86566363  0.87445445  0.87278856  1
  O  O187  1  0.26091600  0.00885308  0.37713360  1
  O  O188  1  0.26173828  0.00469171  0.86522015  1
  O  O189  1  0.25690497  0.49833047  0.36746522  1
  O  O190  1  0.26070860  0.50116722  0.87796106  1
  O  O191  1  0.75565653  0.01844143  0.37851207  1
  O  O192  1  0.74401421  0.01514899  0.88023992  1
  O  O193  1  0.75793991  0.49460549  0.36280588  1
  O  O194  1  0.75868875  0.50905149  0.87232700  1
  O  O195  1  0.24626777  0.49141891  0.13174588  1
  O  O196  1  0.24026726  0.48672142  0.62053553  1
  O  O197  1  0.22488288  1.02436189  0.14079613  1
  O  O198  1  0.25018413  0.99567521  0.62997434  1
  O  O199  1  0.74483174  0.49500426  0.12899382  1
  O  O200  1  0.73781664  0.50247970  0.63005838  1
  O  O201  1  0.74351443  0.99203892  0.12499710  1
  O  O202  1  0.75207214  0.98795154  0.61744054  1
  O  O203  1  0.00838203  0.38263030  0.25958608  1
  O  O204  1  0.01499732  0.37312317  0.74612945  1
  O  O205  1  -0.00727132  0.86049972  0.24685895  1
  O  O206  1  -0.00105861  0.86463656  0.75032095  1
  O  O207  1  0.50560431  0.36729418  0.25365477  1
  O  O208  1  0.50734675  0.36704298  0.75822602  1
  O  O209  1  0.50538504  0.86465325  0.25616797  1
  O  O210  1  0.51331419  0.87311501  0.75021790  1
  O  O211  1  0.50178938  0.13390423  0.24215510  1
  O  O212  1  0.50777628  0.13489345  0.74853390  1
  O  O213  1  0.50010217  0.62775365  0.24093954  1
  O  O214  1  0.49058664  0.61689015  0.73681285  1
  O  O215  1  0.99638775  0.12954047  0.23769960  1
  O  O216  1  0.99038799  0.12168112  0.75761773  1
  O  O217  1  0.99444074  0.63683794  0.24609554  1
  O  O218  1  0.99368063  0.63305934  0.74155478  1
  O  O219  1  0.36743195  0.25216648  0.00762521  1
  O  O220  1  0.38047794  0.25976705  0.50959969  1
  O  O221  1  0.36707919  0.73991231  0.01217011  1
  O  O222  1  0.37159816  0.75766825  0.50266556  1
  O  O223  1  0.85919359  0.24856332  0.01016097  1
  O  O224  1  0.85874152  0.27242793  0.48372319  1
  O  O225  1  0.86670057  0.75333163  0.00714225  1
  O  O226  1  0.87290848  0.75882890  0.50235791  1
  O  O227  1  0.12546832  0.24360568  0.49322876  1
  O  O228  1  0.14282168  0.23654186  1.01355391  1
  O  O229  1  0.14895344  0.74051010  0.51636967  1
  O  O230  1  0.11786087  0.73601075  1.00605602  1
  O  O231  1  0.65037624  0.27964770  0.48840178  1
  O  O232  1  0.63278040  0.24468798  0.99824086  1
  O  O233  1  0.63458296  0.73797275  0.49636442  1
  O  O234  1  0.62964839  0.74881415  1.00739032  1
  O  O235  1  0.49224847  0.24492700  0.13206342  1
  O  O236  1  0.48331137  0.25935816  0.63880058  1
  O  O237  1  0.49841813  0.73619789  0.13182260  1
  O  O238  1  0.50059153  0.73251778  0.61603630  1
  O  O239  1  0.98725384  0.24104249  0.11358147  1
  O  O240  1  0.97947496  0.24501550  0.58353688  1
  O  O241  1  0.98974812  0.75119714  0.13277857  1
  O  O242  1  0.98741602  0.74632435  0.62856127  1
  O  O243  1  0.00960021  0.26629916  0.38421454  1
  O  O244  1  0.00724270  0.25658053  0.91710951  1
  O  O245  1  -0.00224236  0.75103501  0.35990289  1
  O  O246  1  0.00115434  0.74318716  0.85981574  1
  O  O247  1  0.49294212  0.25404049  0.36242441  1
  O  O248  1  0.50142521  0.25196516  0.86992834  1
  O  O249  1  0.50421578  0.75247103  0.36867392  1
  O  O250  1  0.50802262  0.73816741  0.88891883  1
  O  O251  1  0.24023433  0.12314320  0.48754340  1
  O  O252  1  0.24463181  0.12603028  0.99455522  1
  O  O253  1  0.25802404  0.63312350  0.49762349  1
  O  O254  1  0.23412967  0.61706936  1.00128198  1
  O  O255  1  0.75176945  0.14151736  0.49053357  1
  O  O256  1  0.74517403  0.13050176  0.99311976  1
  O  O257  1  0.74117687  0.63157121  0.50342840  1
  O  O258  1  0.74745862  0.63717506  0.99246859  1
  O  O259  1  0.25239003  0.36433175  0.00309125  1
  O  O260  1  0.26175124  0.37766398  0.50745851  1
  O  O261  1  0.26426456  0.91897335  0.02636876  1
  O  O262  1  0.26626060  0.87145951  0.50856234  1
  O  O263  1  0.74983496  0.36624662  0.00531711  1
  O  O264  1  0.76472176  0.37895796  0.49817744  1
  O  O265  1  0.74695547  0.86389721  0.00744827  1
  O  O266  1  0.75218040  0.86770238  0.50667553  1
  O  O267  1  0.13117332  0.49341461  0.24657708  1
  O  O268  1  0.11906365  0.49814139  0.73988008  1
  O  O269  1  0.11080672  1.00349415  0.24254046  1
  O  O270  1  0.13791350  0.99951555  0.74178849  1
  O  O271  1  0.63032778  0.49325106  0.24033934  1
  O  O272  1  0.62954386  0.49049119  0.74226576  1
  O  O273  1  0.62488258  0.99126089  0.24429817  1
  O  O274  1  0.63413625  0.98096637  0.74764490  1
  O  O275  1  0.39829136  0.01112795  0.27039727  1
  O  O276  1  0.36776353  -0.00006490  0.75393335  1
  O  O277  1  0.36645090  0.49576525  0.25731932  1
  O  O278  1  0.37930583  0.50342902  0.75563229  1
  O  O279  1  0.87199431  0.00464218  0.26139272  1
  O  O280  1  0.86686205  0.01823738  0.75608900  1
  O  O281  1  0.86488956  0.50248136  0.25541110  1
  O  O282  1  0.87108719  0.50423417  0.75502484  1
  O  O283  1  0.11971119  0.37145807  0.36977028  1
  O  O284  1  0.12252898  0.37904683  0.85905101  1
  O  O285  1  0.11928211  0.85853639  0.41500332  1
  O  O286  1  0.12865099  0.87371185  0.87557209  1
  O  O287  1  0.61658651  0.38264145  0.35967945  1
  O  O288  1  0.61796213  0.36802423  0.86839435  1
  O  O289  1  0.62398862  0.87253879  0.36317745  1
  O  O290  1  0.62469371  0.86947233  0.86042890  1
  O  O291  1  0.37900009  0.13516563  0.12592793  1
  O  O292  1  0.37777624  0.13750804  0.61659151  1
  O  O293  1  0.38709266  0.62919217  0.12479352  1
  O  O294  1  0.38446777  0.61918638  0.63290089  1
  O  O295  1  0.87897316  0.13365089  0.12918570  1
  O  O296  1  0.87129060  0.12674490  0.64360005  1
  O  O297  1  0.87163883  0.64053026  0.12623980  1
  O  O298  1  0.87998288  0.63236129  0.62890091  1
  O  O299  1  0.25822278  0.25203031  0.12156973  1
  O  O300  1  0.25968302  0.26288977  0.62965612  1
  O  O301  1  0.26728832  0.75166112  0.13294022  1
  O  O302  1  0.26044366  0.76097557  0.62148269  1
  O  O303  1  0.75295057  0.25542627  0.11943877  1
  O  O304  1  0.76156138  0.25107643  0.60809076  1
  O  O305  1  0.75356554  0.75630453  0.11799768  1
  O  O306  1  0.76146499  0.75242770  0.61175850  1
  O  O307  1  0.23790471  0.24823576  0.37566182  1
  O  O308  1  0.25762716  0.23970707  0.88621480  1
  O  O309  1  0.25448524  0.74832792  0.38307989  1
  O  O310  1  0.24781480  0.73742818  0.86952857  1
  O  O311  1  0.75114085  0.23799461  0.37826804  1
  O  O312  1  0.74273940  0.24225959  0.88548449  1
  O  O313  1  0.75206808  0.75287198  0.38754704  1
  O  O314  1  0.74789356  0.73558066  0.88082257  1
  O  O315  1  0.00562020  0.11416061  0.00824131  1
  O  O316  1  0.01659317  0.11213689  0.49373516  1
  O  O317  1  0.00665961  0.61638057  0.00415525  1
  O  O318  1  -0.00049751  0.61549412  0.50567681  1
  O  O319  1  0.50924623  0.12235290  0.00658474  1
  O  O320  1  0.50101088  0.11019938  0.49560749  1
  O  O321  1  0.50459410  0.62108709  0.00050759  1
  O  O322  1  0.50748357  0.61350288  0.50698867  1
  O  O323  1  0.49027535  0.37866819  0.49280954  1
  O  O324  1  0.49157226  0.37523695  0.99326887  1
  O  O325  1  0.49428862  0.87771462  0.49768732  1
  O  O326  1  0.51149003  0.88793899  0.98993284  1
  O  O327  1  0.99077754  0.38917098  0.49246360  1
  O  O328  1  0.99499030  0.39552708  1.00367523  1
  O  O329  1  0.98515000  0.89087080  0.51145900  1
  O  O330  1  0.99693133  0.88971171  1.00742744  1
  O  O331  1  0.49133407  0.49019875  0.37795567  1
  O  O332  1  0.49099001  0.49010981  0.87879294  1
  O  O333  1  0.49727607  0.99045718  0.38699583  1
  O  O334  1  0.49413095  1.00453560  0.88032423  1
  O  O335  1  0.99584874  0.49456894  0.38158527  1
  O  O336  1  0.98608844  0.50538129  0.88017414  1
  O  O337  1  0.99119033  1.00104089  0.38509732  1
  O  O338  1  1.00310970  1.00232615  0.88795630  1
  O  O339  1  0.00422354  0.00988951  0.12086876  1
  O  O340  1  0.01825447  0.00184769  0.61864975  1
  O  O341  1  0.00469384  0.50490948  0.11940829  1
  O  O342  1  0.00751645  0.50735585  0.61673248  1
  O  O343  1  0.50456262  0.00626292  0.11475791  1
  O  O344  1  0.49863649  0.00348055  0.60899432  1
  O  O345  1  0.50152038  0.50409316  0.11733484  1
  O  O346  1  0.51280726  0.50257840  0.61993645  1
  O  O347  1  0.24254026  0.38296968  0.24594665  1
  O  O348  1  0.23564586  0.37443388  0.74237923  1
  O  O349  1  0.29541843  0.88962647  0.23079784  1
  O  O350  1  0.25209215  0.88292983  0.73833514  1
  O  O351  1  0.74152057  0.38173167  0.24491007  1
  O  O352  1  0.73857988  0.38191473  0.75827378  1
  O  O353  1  0.74099120  0.87680089  0.24229562  1
  O  O354  1  0.74691822  0.87579882  0.73102849  1
  O  O355  1  0.24933215  0.13443167  0.26661451  1
  O  O356  1  0.24666664  0.11711934  0.75985807  1
  O  O357  1  0.25227115  0.61029562  0.24919642  1
  O  O358  1  0.26354747  0.62131155  0.73967054  1
  O  O359  1  0.75161729  0.12542507  0.26423789  1
  O  O360  1  0.74388916  0.12414862  0.76391405  1
  O  O361  1  0.74759954  0.61389475  0.24525050  1
  O  O362  1  0.75427909  0.61853802  0.75561787  1
  O  O363  1  0.36484703  0.11912097  0.37702605  1
  O  O364  1  0.36391923  0.11509023  0.87623708  1
  O  O365  1  0.37712199  0.60878331  0.37222424  1
  O  O366  1  0.37212314  0.61093146  0.85654820  1
  O  O367  1  0.87506641  0.11818455  0.37951959  1
  O  O368  1  0.85889183  0.12824302  0.86955796  1
  O  O369  1  0.87729639  0.61059515  0.37612191  1
  O  O370  1  0.86618473  0.62010448  0.86824005  1
  O  O371  1  0.12994869  0.38060243  0.13351576  1
  O  O372  1  0.13094157  0.37986406  0.63197610  1
  O  O373  1  0.12681540  0.89215013  0.12915356  1
  O  O374  1  0.13926064  0.88637388  0.61997073  1
  O  O375  1  0.62825408  0.38053522  0.13367547  1
  O  O376  1  0.61944181  0.37806425  0.63744298  1
  O  O377  1  0.63119317  0.87832963  0.13519723  1
  O  O378  1  0.63897184  0.87069526  0.62458282  1
  O  O379  1  0.12750928  0.26358647  0.25700413  1
  O  O380  1  0.12544046  0.25950648  0.75071176  1
  O  O381  1  0.11244652  0.75153575  0.24717042  1
  O  O382  1  0.10836722  0.75441000  0.74355933  1
  O  O383  1  0.61440553  0.26041967  0.24319387  1
  O  O384  1  0.61877907  0.25693290  0.75815338  1
  O  O385  1  0.61580202  0.75488604  0.24996502  1
  O  O386  1  0.63451011  0.76813640  0.73996512  1
  O  O387  1  0.38234996  0.24974947  0.24143455  1
  O  O388  1  0.38190737  0.25143638  0.74242905  1
  O  O389  1  0.38960975  0.74264091  0.24595623  1
  O  O390  1  0.37826618  0.73108194  0.74855556  1
  O  O391  1  0.86939862  0.25357723  0.23802301  1
  O  O392  1  0.87320649  0.23440336  0.75412616  1
  O  O393  1  0.87807072  0.75045842  0.24381859  1
  O  O394  1  0.88252997  0.74676524  0.74036692  1
  O  O395  1  0.38014315  0.49118661  0.49279169  1
  O  O396  1  0.38045347  0.49196555  0.99174404  1
  O  O397  1  0.38320544  0.99243543  0.49095325  1
  O  O398  1  0.39140918  1.00949320  0.98688837  1
  O  O399  1  0.87968755  0.49398818  0.49393722  1
  O  O400  1  0.87886042  0.50306642  0.99108873  1
  O  O401  1  0.88387293  1.00010689  0.49787791  1
  O  O402  1  0.89107851  0.99932889  1.00473224  1
  O  O403  1  0.11154946  0.00788209  0.01095717  1
  O  O404  1  0.12234512  0.00885757  0.50519707  1
  O  O405  1  0.11724256  0.50582620  0.00550727  1
  O  O406  1  0.11681420  0.49949774  0.50795425  1
  O  O407  1  0.61956964  0.00567185  0.00503064  1
  O  O408  1  0.61286136  -0.00642163  0.49636817  1
  O  O409  1  0.61535536  0.49041168  0.00715146  1
  O  O410  1  0.62304322  0.50104004  0.50603374  1
  O  O411  1  0.36887542  0.36375443  0.11887432  1
  O  O412  1  0.36690748  0.37244008  0.61889674  1
  O  O413  1  0.40320593  0.84886305  0.11251165  1
  O  O414  1  0.37327292  0.87546513  0.61847720  1
  O  O415  1  0.86761672  0.36915198  0.12139563  1
  O  O416  1  0.87768931  0.38007059  0.61156510  1
  O  O417  1  0.86130171  0.86881399  0.12485488  1
  O  O418  1  0.85953679  0.86690217  0.61204280  1
  O  O419  1  0.12925405  0.13591884  0.38118942  1
  O  O420  1  0.13864301  0.11801145  0.88969286  1
  O  O421  1  0.12963809  0.63412966  0.38027586  1
  O  O422  1  0.12440552  0.62393438  0.89045574  1
  O  O423  1  0.63332292  0.12486999  0.37230861  1
  O  O424  1  0.63201198  0.13054742  0.88129358  1
  O  O425  1  0.62043337  0.61972946  0.38748784  1
  O  O426  1  0.62980663  0.61658770  0.87366110  1
