# generated using pymatgen
data_V85Zn86O256
_symmetry_space_group_name_H-M   'P 1'
_cell_length_a   16.95012169
_cell_length_b   16.93481361
_cell_length_c   16.94290936
_cell_angle_alpha   89.96723339
_cell_angle_beta   89.98897589
_cell_angle_gamma   89.96070665
_symmetry_Int_Tables_number   1
_chemical_formula_structural   V85Zn86O256
_chemical_formula_sum   'V85 Zn86 O256'
_cell_volume   4863.41184027
_cell_formula_units_Z   1
loop_
 _symmetry_equiv_pos_site_id
 _symmetry_equiv_pos_as_xyz
  1  'x, y, z'
loop_
 _atom_site_type_symbol
 _atom_site_label
 _atom_site_symmetry_multiplicity
 _atom_site_fract_x
 _atom_site_fract_y
 _atom_site_fract_z
 _atom_site_occupancy
  V  V0  1  0.12544589  0.11353165  0.50470729  1
  V  V1  1  0.74301086  0.62292682  0.38056825  1
  V  V2  1  0.37160417  0.12512834  0.74673927  1
  V  V3  1  0.50368537  0.37600154  0.86795398  1
  V  V4  1  0.62677799  0.12836933  0.48504921  1
  V  V5  1  0.00118198  0.63030170  0.12767058  1
  V  V6  1  0.12993623  0.62594569  -0.00386580  1
  V  V7  1  0.75298035  0.24414346  0.49086312  1
  V  V8  1  0.62023022  0.75660546  0.37706630  1
  V  V9  1  0.37676504  0.37577205  -0.00156819  1
  V  V10  1  0.87714358  0.37149313  0.51399188  1
  V  V11  1  0.25483845  0.50557422  0.25546340  1
  V  V12  1  0.12883427  0.37423276  0.75020131  1
  V  V13  1  0.25340069  0.25078553  0.00278890  1
  V  V14  1  -0.00306442  0.87241572  0.36839875  1
  V  V15  1  0.87390192  0.62514238  0.74857553  1
  V  V16  1  0.12542592  0.12254220  0.00595772  1
  V  V17  1  0.73553653  0.49799299  0.74514918  1
  V  V18  1  0.12710017  0.00260315  0.14216158  1
  V  V19  1  0.12458283  0.87600197  0.74187319  1
  V  V20  1  0.62784557  0.12467308  -0.00528434  1
  V  V21  1  0.25064964  0.12485746  0.87422325  1
  V  V22  1  0.50116798  0.50129280  0.00180855  1
  V  V23  1  0.00782744  0.62704314  0.62142690  1
  V  V24  1  0.37180363  0.38617360  0.49579085  1
  V  V25  1  0.74635478  0.62976458  0.87480320  1
  V  V26  1  0.25085036  0.50743048  0.75107844  1
  V  V27  1  -0.00190980  0.49149184  -0.00282517  1
  V  V28  1  -0.04561155  0.32193587  0.82157576  1
  V  V29  1  0.37426274  0.74595376  0.61899577  1
  V  V30  1  0.62109267  0.00099319  0.62245488  1
  V  V31  1  0.88291799  0.87954242  0.50396344  1
  V  V32  1  0.62751944  0.37379973  0.25481926  1
  V  V33  1  0.87776639  0.62997233  0.25403401  1
  V  V34  1  0.62698490  -0.00072417  0.12472058  1
  V  V35  1  -0.00196860  0.37130341  0.37563813  1
  V  V36  1  0.11998803  0.74292899  0.39879223  1
  V  V37  1  0.87742919  0.00650463  0.38119314  1
  V  V38  1  0.37133979  0.50800614  0.87465139  1
  V  V39  1  0.12385493  0.50075364  0.12694920  1
  V  V40  1  0.74745008  0.01573018  0.75604343  1
  V  V41  1  0.25636011  0.88141949  0.12707168  1
  V  V42  1  0.25631136  0.10881836  0.37151604  1
  V  V43  1  0.49797905  0.12436386  0.62073224  1
  V  V44  1  0.37874341  0.24973838  0.12688213  1
  V  V45  1  0.72933405  0.37302741  0.62499121  1
  V  V46  1  0.74835169  0.74700100  0.50187975  1
  V  V47  1  0.24959804  0.87258427  0.61658151  1
  V  V48  1  0.49729039  0.37864906  0.37404641  1
  V  V49  1  0.13134946  0.74386221  0.86922311  1
  V  V50  1  0.62340995  0.62989217  -0.00030982  1
  V  V51  1  0.12839577  0.25799970  0.87963975  1
  V  V52  1  0.62473777  0.24903007  0.86998175  1
  V  V53  1  0.24642766  0.00096790  0.74092573  1
  V  V54  1  0.62423837  0.87363085  0.75492254  1
  V  V55  1  0.00474907  0.50308270  0.49989555  1
  V  V56  1  0.49764927  -0.00494358  0.48832765  1
  V  V57  1  0.87584110  0.75297865  0.12634010  1
  V  V58  1  0.37594611  0.74857352  0.12304727  1
  V  V59  1  0.87712775  0.50068286  0.87829165  1
  V  V60  1  0.75085837  0.50126677  0.25007869  1
  V  V61  1  0.24940821  0.37762293  0.12867381  1
  V  V62  1  0.51663383  0.50157552  0.50105563  1
  V  V63  1  0.49652616  0.87044152  0.87689802  1
  V  V64  1  0.51415604  0.61977715  0.62342678  1
  V  V65  1  0.25095958  0.62716186  0.39098695  1
  V  V66  1  0.12486336  0.85818539  0.24800728  1
  V  V67  1  0.74872695  0.87470439  0.62646766  1
  V  V68  1  0.75118704  0.37644230  0.11895907  1
  V  V69  1  0.50164636  0.74892031  0.74933595  1
  V  V70  1  0.36912726  -0.00654183  0.87746773  1
  V  V71  1  0.50048768  0.25151155  0.74786638  1
  V  V72  1  0.25194636  0.76238804  -0.00511965  1
  V  V73  1  0.50503476  0.24971820  0.25407277  1
  V  V74  1  0.74753900  0.75261760  -0.00098438  1
  V  V75  1  0.37709071  0.87082357  0.49232458  1
  V  V76  1  0.24959922  0.36932318  0.62129061  1
  V  V77  1  0.87742548  0.25406180  0.12434923  1
  V  V78  1  0.14002252  0.25026906  0.38082702  1
  V  V79  1  -0.00186041  0.75119118  0.74918087  1
  V  V80  1  0.75034377  0.00179452  0.25579514  1
  V  V81  1  0.37234439  0.25053062  0.61488120  1
  V  V82  1  0.75483234  0.24756953  -0.00205082  1
  V  V83  1  0.87102133  0.12951916  0.25577797  1
  V  V84  1  0.49497652  -0.00158520  -0.00008582  1
  Zn  Zn85  1  0.00168835  0.24994520  0.25240360  1
  Zn  Zn86  1  -0.00021212  0.12549196  0.12927334  1
  Zn  Zn87  1  0.62497511  0.50218845  0.12577252  1
  Zn  Zn88  1  0.87388539  0.75053951  0.62562321  1
  Zn  Zn89  1  0.87610708  0.87896185  -0.00161157  1
  Zn  Zn90  1  0.89833815  0.13965650  0.74993300  1
  Zn  Zn91  1  0.37812477  -0.02167568  0.35464396  1
  Zn  Zn92  1  0.86031555  0.00513206  0.88235709  1
  Zn  Zn93  1  0.75167959  0.87620683  0.12634400  1
  Zn  Zn94  1  0.49454356  0.75115418  0.25905064  1
  Zn  Zn95  1  0.49915572  0.12362034  0.12665923  1
  Zn  Zn96  1  0.37337700  0.11836135  0.24829153  1
  Zn  Zn97  1  0.37669001  0.62376896  0.25477345  1
  Zn  Zn98  1  0.49935465  0.62631165  0.13052456  1
  Zn  Zn99  1  0.37337724  0.62688981  0.74958906  1
  Zn  Zn100  1  0.12435169  0.37503322  0.25320626  1
  Zn  Zn101  1  -0.00346533  -0.00328357  0.00403702  1
  Zn  Zn102  1  0.87594762  0.50002271  0.37821621  1
  Zn  Zn103  1  0.13003002  0.50187656  0.62074054  1
  Zn  Zn104  1  -0.02186681  0.11782714  0.61041489  1
  Zn  Zn105  1  -0.00290199  0.87704250  0.87675347  1
  Zn  Zn106  1  0.62178182  0.87699210  0.25452765  1
  Zn  Zn107  1  0.18848543  0.19104927  0.19448210  1
  Zn  Zn108  1  0.09796741  0.18766901  0.68706554  1
  Zn  Zn109  1  0.19226795  0.68664173  0.18530271  1
  Zn  Zn110  1  0.18826852  0.68933714  0.67998830  1
  Zn  Zn111  1  0.68803639  0.18531112  0.18681765  1
  Zn  Zn112  1  0.68675976  0.19016441  0.67874289  1
  Zn  Zn113  1  0.68751857  0.68750308  0.18857560  1
  Zn  Zn114  1  0.68639658  0.68979462  0.68968654  1
  Zn  Zn115  1  0.31567235  0.31501181  0.31104532  1
  Zn  Zn116  1  0.31393163  0.31485336  0.80911090  1
  Zn  Zn117  1  0.30410475  0.80282571  0.30960706  1
  Zn  Zn118  1  0.31169746  0.81179367  0.80884458  1
  Zn  Zn119  1  0.81422820  0.31474890  0.31522622  1
  Zn  Zn120  1  0.79236177  0.31303399  0.80818961  1
  Zn  Zn121  1  0.80828473  0.81436319  0.31249179  1
  Zn  Zn122  1  0.81425840  0.81808187  0.81630642  1
  Zn  Zn123  1  0.18704435  0.44004130  0.43742643  1
  Zn  Zn124  1  0.18947953  0.44022240  0.93914661  1
  Zn  Zn125  1  0.19137148  0.93120004  0.42963260  1
  Zn  Zn126  1  0.16289912  0.94415604  0.92864523  1
  Zn  Zn127  1  0.69036672  0.43200631  0.43492586  1
  Zn  Zn128  1  0.68624126  0.43838840  0.93602302  1
  Zn  Zn129  1  0.69284717  0.93809257  0.43931234  1
  Zn  Zn130  1  0.68459131  0.93372326  0.93729348  1
  Zn  Zn131  1  0.31155167  0.06095343  0.06553951  1
  Zn  Zn132  1  0.30852899  0.06147151  0.55446643  1
  Zn  Zn133  1  0.31070896  0.56610993  0.06259651  1
  Zn  Zn134  1  0.31804609  0.55952693  0.56580308  1
  Zn  Zn135  1  0.81306747  0.06613359  0.06564108  1
  Zn  Zn136  1  0.81210774  0.06456065  0.57042408  1
  Zn  Zn137  1  0.81415343  0.56396137  0.06243698  1
  Zn  Zn138  1  0.81281468  0.55788066  0.56346033  1
  Zn  Zn139  1  0.43616378  0.43888349  0.18796649  1
  Zn  Zn140  1  0.43940687  0.43907207  0.68475645  1
  Zn  Zn141  1  0.44209033  0.93034521  0.18823979  1
  Zn  Zn142  1  0.43396810  0.93621654  0.68412997  1
  Zn  Zn143  1  0.93695724  0.43973460  0.18915097  1
  Zn  Zn144  1  0.93245563  0.44592033  0.68458996  1
  Zn  Zn145  1  0.94034217  0.94015537  0.18911849  1
  Zn  Zn146  1  0.93381273  0.94296902  0.68955670  1
  Zn  Zn147  1  0.05852058  0.06454240  0.31748026  1
  Zn  Zn148  1  0.05764987  0.06067151  0.81749582  1
  Zn  Zn149  1  0.06482010  0.56401279  0.31391521  1
  Zn  Zn150  1  0.06186044  0.56058518  0.81202400  1
  Zn  Zn151  1  0.55827872  0.06185564  0.30886146  1
  Zn  Zn152  1  0.55974158  0.06254935  0.81240476  1
  Zn  Zn153  1  0.56191421  0.56432565  0.31363309  1
  Zn  Zn154  1  0.56031279  0.56753546  0.81695494  1
  Zn  Zn155  1  0.43753130  0.19030201  0.43486204  1
  Zn  Zn156  1  0.43857721  0.18382404  0.93730995  1
  Zn  Zn157  1  0.43677004  0.68003016  0.44069156  1
  Zn  Zn158  1  0.43474246  0.68934847  0.93936212  1
  Zn  Zn159  1  0.94129022  0.18866189  0.44243925  1
  Zn  Zn160  1  0.93348114  0.17398969  0.94032866  1
  Zn  Zn161  1  0.93533001  0.69094522  0.43867731  1
  Zn  Zn162  1  0.93995066  0.68810727  0.93883120  1
  Zn  Zn163  1  0.06227688  0.31238098  0.06458621  1
  Zn  Zn164  1  0.06317030  0.30767049  0.55906919  1
  Zn  Zn165  1  0.06359835  0.81424711  0.06182286  1
  Zn  Zn166  1  0.06365805  0.93958809  0.56050850  1
  Zn  Zn167  1  0.56549335  0.31408583  0.06300293  1
  Zn  Zn168  1  0.56075360  0.30845606  0.55524694  1
  Zn  Zn169  1  0.56225508  0.81579748  0.06352192  1
  Zn  Zn170  1  0.56230837  0.81078884  0.56075311  1
  O  O171  1  0.12783132  0.12043394  0.12490626  1
  O  O172  1  0.14732049  0.12199483  0.60216980  1
  O  O173  1  0.11747305  0.62177839  0.11862902  1
  O  O174  1  0.11136893  0.62156888  0.62924074  1
  O  O175  1  0.62290794  0.11594756  0.11486152  1
  O  O176  1  0.61823871  0.11464443  0.61755464  1
  O  O177  1  0.62316344  0.62358023  0.11334216  1
  O  O178  1  0.61352311  0.62762322  0.62756192  1
  O  O179  1  0.38381927  0.37363577  0.38359423  1
  O  O180  1  0.38431900  0.38210960  0.88016479  1
  O  O181  1  0.36493307  0.86495974  0.38796392  1
  O  O182  1  0.38003717  0.88638480  0.86937110  1
  O  O183  1  0.88355441  0.37692310  0.38563497  1
  O  O184  1  0.88196214  0.38009864  0.86822684  1
  O  O185  1  0.88141689  0.87941986  0.37939503  1
  O  O186  1  0.87901715  0.88745622  0.87637359  1
  O  O187  1  0.25720720  0.00594438  0.37007947  1
  O  O188  1  0.25442129  0.00196335  0.87023183  1
  O  O189  1  0.23806288  0.51624666  0.36733745  1
  O  O190  1  0.26109900  0.49419791  0.86651067  1
  O  O191  1  0.75944139  -0.00421781  0.36325074  1
  O  O192  1  0.73843418  -0.00006889  0.85921959  1
  O  O193  1  0.75300384  0.50613895  0.37017240  1
  O  O194  1  0.75667159  0.50786564  0.87106054  1
  O  O195  1  0.24325591  0.49686637  0.13028297  1
  O  O196  1  0.25061214  0.49072775  0.63329389  1
  O  O197  1  0.24329743  0.98993464  0.12474521  1
  O  O198  1  0.26178492  0.98974035  0.63385431  1
  O  O199  1  0.75154241  0.49260735  0.13022897  1
  O  O200  1  0.75205942  0.48675663  0.63217530  1
  O  O201  1  0.74413121  1.00154922  0.13627543  1
  O  O202  1  0.73562071  0.99432546  0.63352051  1
  O  O203  1  0.00148143  0.37642164  0.26225518  1
  O  O204  1  0.00726128  0.38103014  0.75339100  1
  O  O205  1  0.00643748  0.87608352  0.26199428  1
  O  O206  1  0.00807482  0.86739832  0.74962836  1
  O  O207  1  0.50665347  0.37452347  0.25598784  1
  O  O208  1  0.49536274  0.36953659  0.76007202  1
  O  O209  1  0.51056720  0.86190488  0.24285365  1
  O  O210  1  0.50398384  0.86988872  0.75420686  1
  O  O211  1  0.49831180  0.13734015  0.24713645  1
  O  O212  1  0.49179807  0.12923745  0.74156570  1
  O  O213  1  0.49641221  0.63133713  0.24879861  1
  O  O214  1  0.49900612  0.63283009  0.74454316  1
  O  O215  1  0.98576897  0.12774797  0.25058629  1
  O  O216  1  1.01675650  0.12619116  0.74215572  1
  O  O217  1  0.98971069  0.61842536  0.24064111  1
  O  O218  1  0.99129880  0.62815726  0.74540858  1
  O  O219  1  0.37356663  0.25555372  0.00580483  1
  O  O220  1  0.38338021  0.26140252  0.51089678  1
  O  O221  1  0.35899260  0.74575813  0.00372406  1
  O  O222  1  0.38386119  0.75507445  0.51181598  1
  O  O223  1  0.86402797  0.24372439  0.00807113  1
  O  O224  1  0.86245935  0.25578991  0.49807859  1
  O  O225  1  0.86398405  0.74660476  0.00822436  1
  O  O226  1  0.86462204  0.76109558  0.50147870  1
  O  O227  1  0.12756280  0.23813930  0.48423242  1
  O  O228  1  0.13356059  0.24526650  0.99923693  1
  O  O229  1  0.12135571  0.75083673  0.49357296  1
  O  O230  1  0.13005832  0.74448629  0.98905825  1
  O  O231  1  0.63592009  0.23938481  0.50310737  1
  O  O232  1  0.62907105  0.24304344  0.99336300  1
  O  O233  1  0.63878241  0.75311030  0.49255255  1
  O  O234  1  0.63761157  0.74442774  1.00453749  1
  O  O235  1  0.49333845  0.25161510  0.13040140  1
  O  O236  1  0.49407477  0.24481121  0.62888712  1
  O  O237  1  0.48324360  0.74948501  0.11249995  1
  O  O238  1  0.49576954  0.74259371  0.63083026  1
  O  O239  1  0.99042697  0.25121281  0.12960909  1
  O  O240  1  1.01549198  0.23007068  0.62023559  1
  O  O241  1  0.99279874  0.73720376  0.11916805  1
  O  O242  1  0.99339976  0.74004229  0.64060129  1
  O  O243  1  0.00737873  0.26102600  0.37726295  1
  O  O244  1  0.00798077  0.25978441  0.88570954  1
  O  O245  1  0.00990386  0.75716809  0.37960650  1
  O  O246  1  0.00744417  0.74863486  0.86303709  1
  O  O247  1  0.49852721  0.26426674  0.36665917  1
  O  O248  1  0.50369370  0.25752287  0.87066038  1
  O  O249  1  0.51852766  0.74071252  0.38333085  1
  O  O250  1  0.49067427  0.76276162  0.86779912  1
  O  O251  1  0.24233583  0.12087290  0.48090115  1
  O  O252  1  0.24757855  0.13357240  0.99556483  1
  O  O253  1  0.25041016  0.61679805  0.49009075  1
  O  O254  1  0.23400061  0.63360177  1.00494852  1
  O  O255  1  0.74314806  0.13781417  0.50443690  1
  O  O256  1  0.73948879  0.13627093  1.00427917  1
  O  O257  1  0.76005343  0.63336673  0.49276543  1
  O  O258  1  0.74367931  0.62949753  0.99341700  1
  O  O259  1  0.25773646  0.37115155  0.00761802  1
  O  O260  1  0.25920600  0.38321601  0.50757956  1
  O  O261  1  0.23481559  0.86562987  0.00775292  1
  O  O262  1  0.25745140  0.87920924  0.51071067  1
  O  O263  1  0.74288147  0.36878556  0.01280390  1
  O  O264  1  0.75534994  0.36974417  0.50976586  1
  O  O265  1  0.75253932  0.86588975  0.00169279  1
  O  O266  1  0.75693878  0.86835517  0.50829780  1
  O  O267  1  0.13321578  0.49990668  0.24210514  1
  O  O268  1  0.13306332  0.48949315  0.75260115  1
  O  O269  1  0.12127892  0.99348968  0.24455608  1
  O  O270  1  0.14047996  0.98874118  0.75431077  1
  O  O271  1  0.63371197  0.49429854  0.24760198  1
  O  O272  1  0.63718100  0.50519890  0.75868663  1
  O  O273  1  0.63193229  1.00313781  0.24186001  1
  O  O274  1  0.62670549  0.99455997  0.74208846  1
  O  O275  1  0.38419276  0.00534859  0.24628604  1
  O  O276  1  0.36752172  0.00365950  0.75655318  1
  O  O277  1  0.35945105  0.50181725  0.24555118  1
  O  O278  1  0.36852081  0.49909856  0.75763198  1
  O  O279  1  0.86807319  0.00782036  0.25608531  1
  O  O280  1  0.84891856  -0.00587837  0.74875025  1
  O  O281  1  0.86697298  0.51099154  0.25160348  1
  O  O282  1  0.86612051  0.50706004  0.76022181  1
  O  O283  1  0.12009425  0.36376039  0.37882929  1
  O  O284  1  0.13175728  0.36581691  0.87145626  1
  O  O285  1  0.11962719  0.86215696  0.36873515  1
  O  O286  1  0.13094094  0.85705437  0.85641783  1
  O  O287  1  0.61926292  0.37675300  0.36102392  1
  O  O288  1  0.61290226  0.36521252  0.88106692  1
  O  O289  1  0.63076171  0.86005058  0.37826761  1
  O  O290  1  0.61231372  0.87958222  0.86204190  1
  O  O291  1  0.37557601  0.13998375  0.12369669  1
  O  O292  1  0.37630346  0.13318982  0.62409150  1
  O  O293  1  0.37585441  0.63452860  0.12601567  1
  O  O294  1  0.38474162  0.63184652  0.62752114  1
  O  O295  1  0.87450947  0.13939461  0.13502953  1
  O  O296  1  0.86746241  0.12765468  0.64109258  1
  O  O297  1  0.88112135  0.63340217  0.13067117  1
  O  O298  1  0.87802900  0.62333001  0.63912834  1
  O  O299  1  0.25842223  0.25759915  0.12384008  1
  O  O300  1  0.26114768  0.26627647  0.62928588  1
  O  O301  1  0.25637478  0.75707607  0.11549775  1
  O  O302  1  0.26227514  0.75844335  0.62868364  1
  O  O303  1  0.75416629  0.25746285  0.11745362  1
  O  O304  1  0.74558371  0.26670877  0.61715966  1
  O  O305  1  0.75803982  0.74978501  0.11740661  1
  O  O306  1  0.75105303  0.75485279  0.61909658  1
  O  O307  1  0.24124656  0.25093544  0.37425834  1
  O  O308  1  0.24658068  0.24813356  0.88180806  1
  O  O309  1  0.23273424  0.73675771  0.37537718  1
  O  O310  1  0.24453363  0.75056312  0.88091172  1
  O  O311  1  0.74741529  0.25908716  0.39252307  1
  O  O312  1  0.73750118  0.25600248  0.88652568  1
  O  O313  1  0.74482935  0.74333909  0.38383711  1
  O  O314  1  0.75616507  0.73713499  0.88197332  1
  O  O315  1  0.01434312  0.12599080  0.00812514  1
  O  O316  1  0.02026057  0.12132976  0.49336173  1
  O  O317  1  0.00999310  0.61937502  0.00654759  1
  O  O318  1  -0.01248621  0.61705296  0.51163464  1
  O  O319  1  0.50699465  0.11403760  0.00093103  1
  O  O320  1  0.50611400  0.11910175  0.50275516  1
  O  O321  1  0.50785700  0.61854905  -0.00234311  1
  O  O322  1  0.49977731  0.60835374  0.50609045  1
  O  O323  1  0.49656066  0.38250401  0.49271728  1
  O  O324  1  0.49626187  0.38282334  0.99312446  1
  O  O325  1  0.49046047  0.88352563  0.50558957  1
  O  O326  1  0.50650314  0.88715474  0.98816597  1
  O  O327  1  0.99367814  0.37958393  0.49599013  1
  O  O328  1  1.00524082  0.39226144  1.00465098  1
  O  O329  1  0.98712409  0.87721437  0.49048756  1
  O  O330  1  0.99500547  0.87375937  0.99739874  1
  O  O331  1  0.50484480  0.49054558  0.38667721  1
  O  O332  1  0.49528400  0.49333709  0.88334638  1
  O  O333  1  0.49765574  0.99960022  0.38520466  1
  O  O334  1  0.49018241  0.99215853  0.87820813  1
  O  O335  1  1.00030322  0.49109458  0.38241740  1
  O  O336  1  0.99005659  0.50488416  0.88308036  1
  O  O337  1  0.98625179  0.99003710  0.37235977  1
  O  O338  1  1.04406658  0.98478087  0.89527720  1
  O  O339  1  0.01290183  0.00331432  0.12452507  1
  O  O340  1  -0.00400535  0.00281359  0.62112401  1
  O  O341  1  0.00265534  0.51023987  0.11858939  1
  O  O342  1  0.00162384  0.50933983  0.61921717  1
  O  O343  1  0.50805440  0.00105573  0.11361929  1
  O  O344  1  0.50455355  0.00485480  0.61709526  1
  O  O345  1  0.49893797  0.50092619  0.11143896  1
  O  O346  1  0.50050711  0.50513281  0.61309136  1
  O  O347  1  0.24791157  0.38415338  0.24584853  1
  O  O348  1  0.24530322  0.38367596  0.74301034  1
  O  O349  1  0.23837998  0.86892072  0.23877816  1
  O  O350  1  0.24584307  0.87949588  0.73821812  1
  O  O351  1  0.74443412  0.37992990  0.24391256  1
  O  O352  1  0.74609929  0.38278032  0.73439031  1
  O  O353  1  0.74426205  0.88574230  0.24671322  1
  O  O354  1  0.73714707  0.87370383  0.74479032  1
  O  O355  1  0.25441165  0.13242145  0.26777503  1
  O  O356  1  0.25643490  0.11432421  0.75792891  1
  O  O357  1  0.24941434  0.61887842  0.25809033  1
  O  O358  1  0.25099602  0.61133430  0.74290082  1
  O  O359  1  0.76135126  0.11972040  0.24895914  1
  O  O360  1  0.73875106  0.11522572  0.74978197  1
  O  O361  1  0.75578185  0.61806319  0.25687502  1
  O  O362  1  0.75456172  0.62145055  0.75671948  1
  O  O363  1  0.36187712  0.12704189  0.37616626  1
  O  O364  1  0.37034015  0.11534086  0.86902095  1
  O  O365  1  0.35551136  0.63352664  0.37443851  1
  O  O366  1  0.38101114  0.61164605  0.87120073  1
  O  O367  1  0.87908946  0.11698139  0.37132497  1
  O  O368  1  0.88882919  0.11305797  0.86051565  1
  O  O369  1  0.86710320  0.62541582  0.36752379  1
  O  O370  1  0.86924194  0.61881911  0.86674011  1
  O  O371  1  0.13150071  0.38244837  0.12768968  1
  O  O372  1  0.13320289  0.37587338  0.63308599  1
  O  O373  1  0.13008846  0.88174270  0.13322381  1
  O  O374  1  0.13391854  0.87382716  0.63316160  1
  O  O375  1  0.63295739  0.37850695  0.13533925  1
  O  O376  1  0.63101941  0.37495189  0.62085386  1
  O  O377  1  0.62968030  0.89068041  0.12031098  1
  O  O378  1  0.62473731  0.88397616  0.63308703  1
  O  O379  1  0.12112846  0.25279489  0.26553636  1
  O  O380  1  0.13163327  0.26619026  0.76404958  1
  O  O381  1  0.12155995  0.75719772  0.24609496  1
  O  O382  1  0.11897143  0.75195873  0.75180780  1
  O  O383  1  0.61398264  0.25796565  0.24231004  1
  O  O384  1  0.61896215  0.24301787  0.76276880  1
  O  O385  1  0.63056001  0.74914120  0.26824708  1
  O  O386  1  0.61083405  0.75906191  0.74680782  1
  O  O387  1  0.38778005  0.25296831  0.24180230  1
  O  O388  1  0.38050815  0.24487137  0.73985055  1
  O  O389  1  0.37331019  0.74643592  0.23731104  1
  O  O390  1  0.38614770  0.75074915  0.74001276  1
  O  O391  1  0.87410898  0.24499218  0.24565153  1
  O  O392  1  0.89084190  0.26363110  0.76743860  1
  O  O393  1  0.86708361  0.73791457  0.24274004  1
  O  O394  1  0.88066681  0.74225340  0.75266281  1
  O  O395  1  0.38747284  0.48854896  0.50341496  1
  O  O396  1  0.37986433  0.49719059  0.99311067  1
  O  O397  1  0.38339192  0.98883589  0.49604408  1
  O  O398  1  0.38390890  1.00550321  0.99094708  1
  O  O399  1  0.88494800  0.48932441  0.49985930  1
  O  O400  1  0.88118996  0.50631133  0.98700774  1
  O  O401  1  0.85987451  0.99165092  0.49039259  1
  O  O402  1  0.87722552  1.00071695  1.00029529  1
  O  O403  1  0.13711803  0.01735010  0.01668335  1
  O  O404  1  0.12946377  0.00670055  0.49147835  1
  O  O405  1  0.12052946  0.50843819  0.00487067  1
  O  O406  1  0.10906399  0.49526657  0.50325811  1
  O  O407  1  0.62072435  0.00792206  0.00324009  1
  O  O408  1  0.61937347  0.00344792  0.50584402  1
  O  O409  1  0.61643691  0.50744811  0.00096185  1
  O  O410  1  0.61523173  0.49359816  0.49918823  1
  O  O411  1  0.37183303  0.36656418  0.11902377  1
  O  O412  1  0.37115029  0.37000899  0.61698826  1
  O  O413  1  0.36141262  0.86781096  0.12289889  1
  O  O414  1  0.36951183  0.86624209  0.61615513  1
  O  O415  1  0.86554819  0.36403646  0.13205427  1
  O  O416  1  0.87191975  0.37556854  0.61596419  1
  O  O417  1  0.87614559  0.86123579  0.12901816  1
  O  O418  1  0.86767648  0.87345135  0.61834519  1
  O  O419  1  0.13645067  0.13110604  0.37692445  1
  O  O420  1  0.13319480  0.14013027  0.88694141  1
  O  O421  1  0.12705322  0.63701475  0.37745892  1
  O  O422  1  0.12118300  0.63480372  0.88033030  1
  O  O423  1  0.62327447  0.11911069  0.38639081  1
  O  O424  1  0.61544424  0.13351743  0.88672701  1
  O  O425  1  0.63931278  0.63166967  0.37467072  1
  O  O426  1  0.63356029  0.62388665  0.88805487  1
