# generated using pymatgen
data_V85Zn86O256
_symmetry_space_group_name_H-M   'P 1'
_cell_length_a   16.96092893
_cell_length_b   16.95831107
_cell_length_c   16.95571528
_cell_angle_alpha   90.06749323
_cell_angle_beta   90.04931899
_cell_angle_gamma   90.04564420
_symmetry_Int_Tables_number   1
_chemical_formula_structural   V85Zn86O256
_chemical_formula_sum   'V85 Zn86 O256'
_cell_volume   4876.94374950
_cell_formula_units_Z   1
loop_
 _symmetry_equiv_pos_site_id
 _symmetry_equiv_pos_as_xyz
  1  'x, y, z'
loop_
 _atom_site_type_symbol
 _atom_site_label
 _atom_site_symmetry_multiplicity
 _atom_site_fract_x
 _atom_site_fract_y
 _atom_site_fract_z
 _atom_site_occupancy
  V  V0  1  0.49822883  0.62052605  0.61576151  1
  V  V1  1  0.87462953  0.37314011  -0.00028048  1
  V  V2  1  0.25349218  0.13222649  0.87580623  1
  V  V3  1  0.74736784  0.36561159  0.12142000  1
  V  V4  1  0.24707289  0.88238944  0.12118962  1
  V  V5  1  0.12799172  0.11876002  0.00442767  1
  V  V6  1  0.12309710  0.00247557  0.62487726  1
  V  V7  1  0.49939883  0.86848084  0.87265853  1
  V  V8  1  0.00265744  0.75235518  0.23693320  1
  V  V9  1  0.75504904  0.50180776  0.73634023  1
  V  V10  1  0.24334089  0.74074254  0.49931553  1
  V  V11  1  0.06075776  0.57026418  0.17929491  1
  V  V12  1  0.74809397  0.49615512  0.25357764  1
  V  V13  1  0.61396443  0.36720067  0.24928864  1
  V  V14  1  0.74661945  0.24950200  0.50584102  1
  V  V15  1  0.12361765  0.88594261  0.24315502  1
  V  V16  1  0.82692960  0.16143562  0.78983255  1
  V  V17  1  0.38356021  0.13905314  0.24605300  1
  V  V18  1  0.50411625  0.36627380  0.38984251  1
  V  V19  1  0.00598214  0.24776900  0.75124251  1
  V  V20  1  0.87375261  0.00012433  0.37478743  1
  V  V21  1  0.25161266  0.25180029  0.02088391  1
  V  V22  1  0.12302441  0.12921473  0.49848017  1
  V  V23  1  0.63070513  0.63286136  0.50031594  1
  V  V24  1  -0.00558228  0.87416763  0.86959829  1
  V  V25  1  0.25365695  0.62609612  0.87421455  1
  V  V26  1  0.37643287  0.87271686  -0.00193357  1
  V  V27  1  0.39187533  0.50122480  0.37592590  1
  V  V28  1  -0.00144376  0.00016777  0.00217853  1
  V  V29  1  0.25241758  0.12536675  0.37071876  1
  V  V30  1  0.86932087  0.86474863  0.50665796  1
  V  V31  1  0.37780168  -0.00089094  0.36572828  1
  V  V32  1  0.12921106  0.37394397  0.75360486  1
  V  V33  1  0.37580400  0.24175412  0.62604778  1
  V  V34  1  0.25157636  0.37548664  0.62417002  1
  V  V35  1  -0.00164470  0.87542041  0.37304802  1
  V  V36  1  0.12479344  0.61881349  0.00032178  1
  V  V37  1  0.23340596  0.39797438  0.13906392  1
  V  V38  1  0.00229866  0.50189196  -0.00084042  1
  V  V39  1  0.25100884  0.74978712  -0.00069719  1
  V  V40  1  0.87986521  0.24950006  0.12993974  1
  V  V41  1  0.87457034  0.62317990  0.24554754  1
  V  V42  1  0.12179222  0.25188505  0.35864425  1
  V  V43  1  0.24966962  0.25129166  0.49486300  1
  V  V44  1  0.24974657  0.00495962  0.74934814  1
  V  V45  1  0.49753813  0.74470326  0.74211809  1
  V  V46  1  0.50377038  0.13614924  0.12662219  1
  V  V47  1  0.24524516  0.50112664  0.74745238  1
  V  V48  1  0.38361860  0.75188829  0.13391298  1
  V  V49  1  0.88927233  0.63901125  0.74352547  1
  V  V50  1  0.37498198  -0.00068608  0.86986403  1
  V  V51  1  0.11936423  0.75105200  0.86911673  1
  V  V52  1  0.24600767  0.87539730  0.62287784  1
  V  V53  1  0.00374811  0.12558662  0.13071032  1
  V  V54  1  0.00035528  0.36876960  0.35761865  1
  V  V55  1  0.62778466  -0.00985463  0.62035903  1
  V  V56  1  0.74829340  0.75619499  -0.00023299  1
  V  V57  1  0.62490120  0.12527624  0.50356198  1
  V  V58  1  -0.00321219  0.00064280  0.50094875  1
  V  V59  1  0.37042803  0.63047575  0.74613484  1
  V  V60  1  0.38806471  0.47484819  0.85843091  1
  V  V61  1  0.74736918  0.63781077  0.37815134  1
  V  V62  1  0.00632712  0.63009530  0.60091957  1
  V  V63  1  0.62469652  0.86696770  0.25104622  1
  V  V64  1  0.74979218  0.12292307  0.37567358  1
  V  V65  1  0.75280728  -0.00468811  0.75307133  1
  V  V66  1  0.62439447  0.62267816  -0.00010451  1
  V  V67  1  0.49925676  -0.00347787  0.49385910  1
  V  V68  1  0.62729670  -0.00361499  0.11842409  1
  V  V69  1  0.36937159  0.87498971  0.49432012  1
  V  V70  1  0.75284473  0.61973366  0.87414429  1
  V  V71  1  0.24829173  0.61533866  0.36796552  1
  V  V72  1  0.87240528  0.49727632  0.38569365  1
  V  V73  1  0.12489804  0.74996443  0.37513850  1
  V  V74  1  -0.00071694  0.12851541  0.62771405  1
  V  V75  1  0.37663194  0.37826549  0.01722948  1
  V  V76  1  0.62410895  0.86820340  0.74320423  1
  V  V77  1  0.63560149  0.13887400  -0.01234451  1
  V  V78  1  0.62194405  0.49983060  0.12657849  1
  V  V79  1  0.61956589  0.49240193  0.62241419  1
  V  V80  1  0.75109994  -0.00257676  0.24148781  1
  V  V81  1  0.49567675  0.11914830  0.62907495  1
  V  V82  1  0.87837574  0.24689675  0.62313598  1
  V  V83  1  0.87143245  0.75172179  0.12085363  1
  V  V84  1  0.87971782  0.37273118  0.49826115  1
  Zn  Zn85  1  0.25087231  0.00284861  0.24291059  1
  Zn  Zn86  1  0.00451899  0.37548431  0.87654500  1
  Zn  Zn87  1  0.87948234  0.50124426  0.87090362  1
  Zn  Zn88  1  0.37993560  0.37825626  0.50265869  1
  Zn  Zn89  1  0.37116623  0.74911155  0.62003008  1
  Zn  Zn90  1  0.37985597  0.62216089  0.25031390  1
  Zn  Zn91  1  0.50755212  0.63283861  0.13548009  1
  Zn  Zn92  1  0.43046972  0.16813671  0.79139233  1
  Zn  Zn93  1  0.75260963  0.37617530  0.62565608  1
  Zn  Zn94  1  0.54271441  0.32972028  0.82260554  1
  Zn  Zn95  1  0.87722434  0.12805158  0.25081542  1
  Zn  Zn96  1  0.50224266  0.00318254  -0.00286931  1
  Zn  Zn97  1  0.74635480  0.85495972  0.61972732  1
  Zn  Zn98  1  0.49609652  0.85063951  0.35617281  1
  Zn  Zn99  1  0.62174052  0.24246608  0.36713386  1
  Zn  Zn100  1  0.62154466  0.74093339  0.87264832  1
  Zn  Zn101  1  0.49962067  0.49819525  -0.00075200  1
  Zn  Zn102  1  0.12911089  0.25116612  0.87964544  1
  Zn  Zn103  1  0.12239170  0.50963095  0.60525242  1
  Zn  Zn104  1  0.86984730  0.87947165  0.00122899  1
  Zn  Zn105  1  0.11885583  0.87335748  0.74800539  1
  Zn  Zn106  1  0.87174671  0.00190692  0.87340473  1
  Zn  Zn107  1  0.18899575  0.17998021  0.18745714  1
  Zn  Zn108  1  0.19011883  0.18872567  0.68777710  1
  Zn  Zn109  1  0.19724506  0.69650143  0.19044152  1
  Zn  Zn110  1  0.17681975  0.68786128  0.68436357  1
  Zn  Zn111  1  0.68839613  0.18425874  0.18424018  1
  Zn  Zn112  1  0.66258593  0.19676082  0.79917276  1
  Zn  Zn113  1  0.69329896  0.68579949  0.18574935  1
  Zn  Zn114  1  0.68391404  0.67993018  0.69014523  1
  Zn  Zn115  1  0.31531256  0.31881038  0.30769831  1
  Zn  Zn116  1  0.35773061  0.30853821  0.82190067  1
  Zn  Zn117  1  0.30708671  0.81423070  0.31092804  1
  Zn  Zn118  1  0.30838162  0.81338100  0.80888666  1
  Zn  Zn119  1  0.80605521  0.30962957  0.31242660  1
  Zn  Zn120  1  0.81650872  0.32908753  0.81060559  1
  Zn  Zn121  1  0.81352362  0.81694785  0.30626585  1
  Zn  Zn122  1  0.80883876  0.81059422  0.81290001  1
  Zn  Zn123  1  0.18794446  0.43445733  0.43192077  1
  Zn  Zn124  1  0.20031431  0.43639641  0.93913471  1
  Zn  Zn125  1  0.18567790  0.93990628  0.43400752  1
  Zn  Zn126  1  0.18509739  0.93824439  0.93640258  1
  Zn  Zn127  1  0.68600096  0.43796310  0.44229204  1
  Zn  Zn128  1  0.68901191  0.43250739  0.93662902  1
  Zn  Zn129  1  0.68887195  0.93270629  0.43206306  1
  Zn  Zn130  1  0.68248637  0.93754639  0.93430527  1
  Zn  Zn131  1  0.32078261  0.06265032  0.06046661  1
  Zn  Zn132  1  0.31124084  0.06154100  0.55676568  1
  Zn  Zn133  1  0.31400855  0.56171431  0.06495657  1
  Zn  Zn134  1  0.31218287  0.55983273  0.55637929  1
  Zn  Zn135  1  0.81273451  0.06648979  0.05808073  1
  Zn  Zn136  1  0.81149690  0.06052800  0.56747796  1
  Zn  Zn137  1  0.81214311  0.56129998  0.06380914  1
  Zn  Zn138  1  0.81643246  0.68352016  0.56432212  1
  Zn  Zn139  1  0.43664695  0.44110009  0.19367944  1
  Zn  Zn140  1  0.43393997  0.43820495  0.68527562  1
  Zn  Zn141  1  0.44419868  0.94013079  0.18291248  1
  Zn  Zn142  1  0.43487850  0.93543421  0.68422546  1
  Zn  Zn143  1  0.93123800  0.43634106  0.18771127  1
  Zn  Zn144  1  0.94200146  0.44405839  0.68136089  1
  Zn  Zn145  1  0.93463850  0.93839791  0.18202921  1
  Zn  Zn146  1  0.93443269  0.93834972  0.68841131  1
  Zn  Zn147  1  0.06192390  0.06386206  0.31320805  1
  Zn  Zn148  1  0.06451293  0.06244259  0.81646171  1
  Zn  Zn149  1  0.06366520  0.55628157  0.35455222  1
  Zn  Zn150  1  0.06387410  0.56032833  0.81373307  1
  Zn  Zn151  1  0.56462026  0.05798076  0.30946515  1
  Zn  Zn152  1  0.56849242  0.04850456  0.81343162  1
  Zn  Zn153  1  0.56299776  0.56734525  0.31143075  1
  Zn  Zn154  1  0.58157365  0.51784831  0.83123401  1
  Zn  Zn155  1  0.43766577  0.18662603  0.43920799  1
  Zn  Zn156  1  0.44022728  0.19652216  0.95745001  1
  Zn  Zn157  1  0.43542662  0.68518776  0.43666698  1
  Zn  Zn158  1  0.43982612  0.68388156  0.93993941  1
  Zn  Zn159  1  0.93853669  0.18945337  0.43521040  1
  Zn  Zn160  1  0.94235135  0.19306085  0.94205529  1
  Zn  Zn161  1  0.93751214  0.68858319  0.42756600  1
  Zn  Zn162  1  0.93735981  0.68532956  0.93634142  1
  Zn  Zn163  1  0.06530844  0.31228936  0.06713090  1
  Zn  Zn164  1  0.07971579  0.34470528  0.54202144  1
  Zn  Zn165  1  0.06305658  0.81271000  0.05613464  1
  Zn  Zn166  1  0.05787892  0.81074886  0.56183269  1
  Zn  Zn167  1  0.56347896  0.31232632  0.05790769  1
  Zn  Zn168  1  0.59132872  0.28050678  0.63012118  1
  Zn  Zn169  1  0.56633008  0.81555419  0.06144279  1
  Zn  Zn170  1  0.54963886  0.79809233  0.53225406  1
  O  O171  1  0.11753696  0.12583763  0.11618285  1
  O  O172  1  0.12161416  0.12175739  0.61728528  1
  O  O173  1  0.12596213  0.62949970  0.12189132  1
  O  O174  1  0.11521178  0.62417921  0.61541913  1
  O  O175  1  0.61878819  0.11936130  0.11579303  1
  O  O176  1  0.61453691  0.10689889  0.61091878  1
  O  O177  1  0.62888089  0.61586646  0.11942598  1
  O  O178  1  0.61585278  0.61481690  0.61987237  1
  O  O179  1  0.39050335  0.38111882  0.37507576  1
  O  O180  1  0.34361730  0.38467755  0.90523149  1
  O  O181  1  0.37736968  0.88157370  0.37511911  1
  O  O182  1  0.38229647  0.87686193  0.87621598  1
  O  O183  1  0.87855042  0.37619082  0.37647225  1
  O  O184  1  0.88116837  0.38155453  0.88604431  1
  O  O185  1  0.88030706  0.88062648  0.38088491  1
  O  O186  1  0.88171624  0.87591878  0.87859959  1
  O  O187  1  0.25916282  0.00726203  0.37134302  1
  O  O188  1  0.25576193  0.00547765  0.86817573  1
  O  O189  1  0.24861051  0.51234276  0.37725908  1
  O  O190  1  0.26061030  0.50972164  0.86485731  1
  O  O191  1  0.75607258  0.00534582  0.36790420  1
  O  O192  1  0.74771520  -0.00553054  0.85877675  1
  O  O193  1  0.75485102  0.49968134  0.36652797  1
  O  O194  1  0.75293396  0.50907473  0.86573623  1
  O  O195  1  0.24278070  0.49797932  0.12746879  1
  O  O196  1  0.24633887  0.49219095  0.62834455  1
  O  O197  1  0.25824000  0.98644496  0.12263478  1
  O  O198  1  0.24495343  0.99648294  0.63025754  1
  O  O199  1  0.74123154  0.49146315  0.13392566  1
  O  O200  1  0.74607292  0.50234657  0.63347346  1
  O  O201  1  0.74296599  1.00802670  0.13132773  1
  O  O202  1  0.73965605  0.99399290  0.63000090  1
  O  O203  1  -0.00893220  0.37022782  0.25922167  1
  O  O204  1  0.01258839  0.36678976  0.74777356  1
  O  O205  1  0.00554428  0.86997217  0.25032313  1
  O  O206  1  0.00084588  0.88187450  0.76426912  1
  O  O207  1  0.51105690  0.37800321  0.25803412  1
  O  O208  1  0.44103500  0.39579907  0.79044830  1
  O  O209  1  0.51719407  0.87740800  0.24640025  1
  O  O210  1  0.50108023  0.86272337  0.75037914  1
  O  O211  1  0.49886625  0.12053221  0.23658509  1
  O  O212  1  0.50498016  0.10785480  0.73403232  1
  O  O213  1  0.49472548  0.62687065  0.24855844  1
  O  O214  1  0.49100314  0.63703664  0.73768718  1
  O  O215  1  0.99796108  0.11672365  0.23441971  1
  O  O216  1  1.01135179  0.13932234  0.74503071  1
  O  O217  1  0.99908577  0.63062155  0.24421770  1
  O  O218  1  0.98843984  0.62718921  0.76073906  1
  O  O219  1  0.36396193  0.26696649  0.00820766  1
  O  O220  1  0.36351306  0.24879749  0.50540823  1
  O  O221  1  0.36928423  0.75565203  0.00464814  1
  O  O222  1  0.35792660  0.75756924  0.50110365  1
  O  O223  1  0.88103421  0.26569969  0.00939169  1
  O  O224  1  0.86763621  0.25153080  0.50551034  1
  O  O225  1  0.86616941  0.74706400  0.00554381  1
  O  O226  1  0.87679903  0.76100513  0.49418798  1
  O  O227  1  0.13628039  0.24956721  0.49107053  1
  O  O228  1  0.13544968  0.24111068  0.99886830  1
  O  O229  1  0.12973278  0.76274037  0.48247450  1
  O  O230  1  0.13079849  0.73772035  0.99352511  1
  O  O231  1  0.63275078  0.23783049  0.51567146  1
  O  O232  1  0.62328007  0.23903189  0.99374833  1
  O  O233  1  0.64057775  0.73129958  0.51249590  1
  O  O234  1  0.63174061  0.74117037  0.99819113  1
  O  O235  1  0.50685394  0.23548076  0.12444980  1
  O  O236  1  0.48792956  0.23139213  0.61396695  1
  O  O237  1  0.48607554  0.75338942  0.11748901  1
  O  O238  1  0.49539725  0.74117682  0.62619428  1
  O  O239  1  0.99224254  0.23928437  0.12021414  1
  O  O240  1  0.99527887  0.24593490  0.63183005  1
  O  O241  1  0.99702489  0.75145846  0.13243554  1
  O  O242  1  1.00610486  0.73154103  0.62213190  1
  O  O243  1  0.00712922  0.25747286  0.37188228  1
  O  O244  1  0.00563061  0.25541702  0.86598603  1
  O  O245  1  0.00605335  0.75514264  0.36007992  1
  O  O246  1  0.00909493  0.76081699  0.88610348  1
  O  O247  1  0.50475846  0.26109992  0.38089773  1
  O  O248  1  0.46223827  0.25227499  0.86238030  1
  O  O249  1  0.50886673  0.76518331  0.42429129  1
  O  O250  1  0.49855869  0.75323249  0.86382400  1
  O  O251  1  0.24374070  0.13141527  0.49068983  1
  O  O252  1  0.24752355  0.13037825  0.99792879  1
  O  O253  1  0.25004972  0.63721965  0.49237326  1
  O  O254  1  0.24506627  0.62823854  0.99184452  1
  O  O255  1  0.74210247  0.12805234  0.49811770  1
  O  O256  1  0.73377345  0.12658144  0.99866394  1
  O  O257  1  0.75148448  0.62420958  0.48407624  1
  O  O258  1  0.74232692  0.62776070  0.99327462  1
  O  O259  1  0.25054948  0.36882763  0.02091292  1
  O  O260  1  0.25550536  0.36513418  0.50609025  1
  O  O261  1  0.25426382  0.87041580  0.00349830  1
  O  O262  1  0.25147741  0.87163693  0.50423125  1
  O  O263  1  0.76019789  0.38236059  0.00976152  1
  O  O264  1  0.75938168  0.36477189  0.49886950  1
  O  O265  1  0.74807462  0.85952516  -0.01019774  1
  O  O266  1  0.76552646  0.87823504  0.49925943  1
  O  O267  1  0.10934230  0.51880213  0.24687901  1
  O  O268  1  0.13548171  0.49362155  0.74956918  1
  O  O269  1  0.12654653  0.98898370  0.25159204  1
  O  O270  1  0.13217917  0.99827127  0.74303114  1
  O  O271  1  0.63281544  0.49168962  0.24580142  1
  O  O272  1  0.64092970  0.51230506  0.73274790  1
  O  O273  1  0.63365681  0.99582170  0.23850384  1
  O  O274  1  0.63020822  0.98712932  0.73804770  1
  O  O275  1  0.37798816  0.00289441  0.25783398  1
  O  O276  1  0.36600811  -0.00667467  0.76045344  1
  O  O277  1  0.37434538  0.50070952  0.27101610  1
  O  O278  1  0.36048858  0.51361288  0.75019262  1
  O  O279  1  0.86790042  0.00025128  0.25486916  1
  O  O280  1  0.86120154  0.00172430  0.74938882  1
  O  O281  1  0.86438384  0.50411897  0.25512111  1
  O  O282  1  0.86753817  0.51015559  0.74792458  1
  O  O283  1  0.10864340  0.36684712  0.36962757  1
  O  O284  1  0.13312070  0.37354188  0.86446603  1
  O  O285  1  0.11804125  0.87124412  0.36432995  1
  O  O286  1  0.11746292  0.86643786  0.87566644  1
  O  O287  1  0.61495093  0.37443428  0.37058458  1
  O  O288  1  0.60100143  0.41176432  0.87328823  1
  O  O289  1  0.62399371  0.87934037  0.35520059  1
  O  O290  1  0.61046821  0.87162806  0.86519875  1
  O  O291  1  0.39314164  0.11911088  0.13129097  1
  O  O292  1  0.38357436  0.12650354  0.61766352  1
  O  O293  1  0.37384185  0.64236513  0.12485827  1
  O  O294  1  0.38035033  0.62362928  0.62654912  1
  O  O295  1  0.88321312  0.13438690  0.12207321  1
  O  O296  1  0.87926349  0.13816718  0.62494872  1
  O  O297  1  0.86947950  0.63548348  0.13344704  1
  O  O298  1  0.89136067  0.62847869  0.63570386  1
  O  O299  1  0.25062594  0.24953465  0.12138776  1
  O  O300  1  0.25505599  0.25292830  0.61400753  1
  O  O301  1  0.26084319  0.76218433  0.11792303  1
  O  O302  1  0.24334826  0.75886687  0.61596357  1
  O  O303  1  0.75479875  0.26147931  0.12422319  1
  O  O304  1  0.76150004  0.25462136  0.61450173  1
  O  O305  1  0.75862249  0.74603051  0.11217893  1
  O  O306  1  0.75502227  0.74397054  0.63398346  1
  O  O307  1  0.24564729  0.24724323  0.37816074  1
  O  O308  1  0.25830380  0.23581929  0.88107951  1
  O  O309  1  0.24198222  0.74676439  0.38040416  1
  O  O310  1  0.24201607  0.74631998  0.88066920  1
  O  O311  1  0.74514735  0.24155430  0.38824080  1
  O  O312  1  0.76475338  0.23332083  0.84161037  1
  O  O313  1  0.75568936  0.73533173  0.36517071  1
  O  O314  1  0.74484507  0.73559287  0.88017216  1
  O  O315  1  0.00977098  0.11974047  0.00528144  1
  O  O316  1  0.00501648  0.12156013  0.50578677  1
  O  O317  1  0.00813651  0.61218286  -0.00225561  1
  O  O318  1  -0.00338322  0.62343815  0.50009587  1
  O  O319  1  0.50810774  0.12360928  0.01065277  1
  O  O320  1  0.50474424  0.11227253  0.50351679  1
  O  O321  1  0.51459226  0.62517302  0.00697309  1
  O  O322  1  0.50890281  0.62223891  0.51141127  1
  O  O323  1  0.50161239  0.37431986  0.48791684  1
  O  O324  1  0.48134876  0.37640490  1.00828999  1
  O  O325  1  0.48415182  0.89202480  0.51215398  1
  O  O326  1  0.49582882  0.87441953  0.98728871  1
  O  O327  1  0.98113005  0.35962330  0.48433195  1
  O  O328  1  0.99734758  0.38696076  1.00374099  1
  O  O329  1  0.98978135  0.88034839  0.49401355  1
  O  O330  1  0.99963759  0.88518692  0.99213149  1
  O  O331  1  0.49510198  0.49276901  0.37741769  1
  O  O332  1  0.47578311  0.52543208  0.88082532  1
  O  O333  1  0.49357836  0.99678573  0.38043079  1
  O  O334  1  0.49087016  0.98771882  0.87297856  1
  O  O335  1  0.98625234  0.48128940  0.37218686  1
  O  O336  1  1.00036447  0.49492685  0.88497593  1
  O  O337  1  0.99383950  0.99504315  0.38007589  1
  O  O338  1  0.99979001  0.99361833  0.88477700  1
  O  O339  1  -0.00525812  0.00756966  0.11023362  1
  O  O340  1  0.00334375  0.00817732  0.62151534  1
  O  O341  1  0.00161781  0.50530557  0.12340987  1
  O  O342  1  0.00609948  0.52382662  0.63346186  1
  O  O343  1  0.51209864  0.00819581  0.11872028  1
  O  O344  1  0.50406349  0.00208943  0.61663234  1
  O  O345  1  0.51372250  0.50031799  0.12672882  1
  O  O346  1  0.51131516  0.50387200  0.63236965  1
  O  O347  1  0.25102868  0.37634158  0.23688909  1
  O  O348  1  0.24980893  0.38553028  0.74302738  1
  O  O349  1  0.24030761  0.87783194  0.24013590  1
  O  O350  1  0.24525946  0.88584758  0.74065378  1
  O  O351  1  0.74303221  0.38188483  0.24323229  1
  O  O352  1  0.75479887  0.39653148  0.74491167  1
  O  O353  1  0.74291875  0.88950372  0.25067137  1
  O  O354  1  0.74101686  0.87762051  0.74518212  1
  O  O355  1  0.26299411  0.12054585  0.25327331  1
  O  O356  1  0.24517507  0.11263903  0.75893870  1
  O  O357  1  0.26060138  0.63673021  0.26429318  1
  O  O358  1  0.24807705  0.62119219  0.75412193  1
  O  O359  1  0.75041816  0.11503713  0.25693270  1
  O  O360  1  0.74433282  0.11324816  0.74464046  1
  O  O361  1  0.75154340  0.61448208  0.25939827  1
  O  O362  1  0.76049351  0.61693184  0.75700782  1
  O  O363  1  0.37447925  0.11774281  0.36649334  1
  O  O364  1  0.37018034  0.11304686  0.87834346  1
  O  O365  1  0.36992183  0.61368226  0.37839698  1
  O  O366  1  0.36018257  0.63662318  0.86693673  1
  O  O367  1  0.87046875  0.11764760  0.37305686  1
  O  O368  1  0.88396746  0.12324727  0.86755737  1
  O  O369  1  0.86639449  0.61543123  0.36747647  1
  O  O370  1  0.86786282  0.62118615  0.86896715  1
  O  O371  1  0.13475361  0.37761008  0.12801045  1
  O  O372  1  0.14286282  0.36341520  0.64100626  1
  O  O373  1  0.13478705  0.86826329  0.13056037  1
  O  O374  1  0.13174270  0.88235292  0.62327243  1
  O  O375  1  0.62948590  0.37884363  0.13037918  1
  O  O376  1  0.62974298  0.38979279  0.61837582  1
  O  O377  1  0.62440053  0.88984948  0.12834966  1
  O  O378  1  0.62260109  0.88090693  0.62151517  1
  O  O379  1  0.12743767  0.24152013  0.26053393  1
  O  O380  1  0.12315098  0.25636998  0.75549508  1
  O  O381  1  0.11959930  0.75986761  0.25569836  1
  O  O382  1  0.12889679  0.75342684  0.76530757  1
  O  O383  1  0.63503219  0.26167053  0.25193165  1
  O  O384  1  0.59970775  0.26710313  0.74301721  1
  O  O385  1  0.63533737  0.76891570  0.23815392  1
  O  O386  1  0.61294370  0.75136610  0.75103397  1
  O  O387  1  0.37825547  0.23746352  0.25629604  1
  O  O388  1  0.36020553  0.23975276  0.72982688  1
  O  O389  1  0.37455008  0.75783281  0.23553687  1
  O  O390  1  0.37743608  0.74782904  0.74143410  1
  O  O391  1  0.86702708  0.24778004  0.23473946  1
  O  O392  1  0.88456333  0.24942116  0.74237178  1
  O  O393  1  0.88410062  0.74552106  0.24302746  1
  O  O394  1  0.87563569  0.73630991  0.75685117  1
  O  O395  1  0.36795972  0.49385134  0.48122064  1
  O  O396  1  0.37670467  0.49110174  0.99684013  1
  O  O397  1  0.37903832  0.99766108  0.48482531  1
  O  O398  1  0.37702123  0.99064926  0.98607677  1
  O  O399  1  0.86757743  0.48732747  0.48644503  1
  O  O400  1  0.88528625  0.49226569  1.00335356  1
  O  O401  1  0.87991722  0.99439507  0.49441456  1
  O  O402  1  0.88203672  0.99945287  0.99465622  1
  O  O403  1  0.11894970  0.01193078  -0.00361444  1
  O  O404  1  0.11695068  0.00646527  0.50417764  1
  O  O405  1  0.12334601  0.51203782  -0.00604180  1
  O  O406  1  0.11204111  0.45240976  0.50986546  1
  O  O407  1  0.62411483  0.00812347  0.00384082  1
  O  O408  1  0.61768116  -0.00072638  0.50171960  1
  O  O409  1  0.62489775  0.50649770  0.01147812  1
  O  O410  1  0.63499398  0.50976831  0.51817517  1
  O  O411  1  0.36299410  0.38718567  0.12030719  1
  O  O412  1  0.36654930  0.36570003  0.62249373  1
  O  O413  1  0.37184442  0.86868100  0.11817852  1
  O  O414  1  0.35773506  0.87677347  0.61725372  1
  O  O415  1  0.86674232  0.36952544  0.12012760  1
  O  O416  1  0.87884605  0.36609792  0.61627893  1
  O  O417  1  0.87899890  0.85840270  0.12054769  1
  O  O418  1  0.87556580  0.87782307  0.60857446  1
  O  O419  1  0.12951714  0.13152456  0.37978850  1
  O  O420  1  0.13718060  0.12635026  0.88515493  1
  O  O421  1  0.13485133  0.63738795  0.37408305  1
  O  O422  1  0.13429707  0.63065925  0.88108924  1
  O  O423  1  0.62739582  0.12347984  0.38767375  1
  O  O424  1  0.61884732  0.12487544  0.88176526  1
  O  O425  1  0.64034732  0.61703184  0.38387867  1
  O  O426  1  0.63244299  0.61735099  0.88391611  1
