# generated using pymatgen
data_V85Zn86O256
_symmetry_space_group_name_H-M   'P 1'
_cell_length_a   16.91196830
_cell_length_b   16.91175632
_cell_length_c   16.91751765
_cell_angle_alpha   89.99659136
_cell_angle_beta   89.99599275
_cell_angle_gamma   89.97269385
_symmetry_Int_Tables_number   1
_chemical_formula_structural   V85Zn86O256
_chemical_formula_sum   'V85 Zn86 O256'
_cell_volume   4838.59703723
_cell_formula_units_Z   1
loop_
 _symmetry_equiv_pos_site_id
 _symmetry_equiv_pos_as_xyz
  1  'x, y, z'
loop_
 _atom_site_type_symbol
 _atom_site_label
 _atom_site_symmetry_multiplicity
 _atom_site_fract_x
 _atom_site_fract_y
 _atom_site_fract_z
 _atom_site_occupancy
  V  V0  1  0.87362420  0.87863916  0.01206534  1
  V  V1  1  0.87687929  -0.00307561  0.38828881  1
  V  V2  1  0.62930355  -0.01551632  0.12919870  1
  V  V3  1  0.87229239  0.49691865  0.87428826  1
  V  V4  1  0.00365211  0.12765839  0.12071587  1
  V  V5  1  0.87927449  0.37107069  0.00282099  1
  V  V6  1  0.50027648  0.24851978  0.24977058  1
  V  V7  1  0.12878336  0.25040550  0.37959507  1
  V  V8  1  0.37098435  0.11739783  0.25310496  1
  V  V9  1  0.37852723  0.87528977  0.50131092  1
  V  V10  1  0.62669112  0.37447421  0.25002201  1
  V  V11  1  0.37799268  0.62122935  0.25776274  1
  V  V12  1  0.74145912  0.50161729  0.75155982  1
  V  V13  1  0.62811530  0.49863028  0.12360894  1
  V  V14  1  0.62374597  0.24777319  0.37644908  1
  V  V15  1  0.50527941  0.12228951  0.12578138  1
  V  V16  1  0.63141625  0.62578729  -0.00609105  1
  V  V17  1  0.86851297  0.62788704  0.75572306  1
  V  V18  1  0.87607145  0.00147048  0.87212309  1
  V  V19  1  0.73543274  -0.00193820  0.74997076  1
  V  V20  1  0.37510734  0.75057498  0.12602524  1
  V  V21  1  0.11871571  0.50428944  0.12543902  1
  V  V22  1  0.32027242  0.05752043  0.91750388  1
  V  V23  1  0.49979655  0.62441481  0.12397645  1
  V  V24  1  -0.00657607  0.37237187  0.38027097  1
  V  V25  1  0.25334103  0.49880503  0.25482647  1
  V  V26  1  0.24636772  0.87533060  0.14031343  1
  V  V27  1  0.49857901  0.24727551  0.73372373  1
  V  V28  1  0.13693845  0.24574492  0.88100034  1
  V  V29  1  0.24737806  0.11689592  0.37385980  1
  V  V30  1  0.12299409  0.37490271  0.24976671  1
  V  V31  1  0.12595141  -0.00140796  0.14370920  1
  V  V32  1  0.75037795  -0.01540738  0.24753523  1
  V  V33  1  0.12652708  0.75529633  0.37435866  1
  V  V34  1  0.37169546  0.87467919  -0.00788540  1
  V  V35  1  0.62239698  0.12415074  0.51400669  1
  V  V36  1  0.37410368  0.25081756  0.12483993  1
  V  V37  1  0.25029783  0.50377792  0.74335912  1
  V  V38  1  0.11966069  -0.00025807  0.61947724  1
  V  V39  1  -0.00312279  0.87553987  0.38971054  1
  V  V40  1  0.36983305  0.36390464  0.49508772  1
  V  V41  1  0.75112450  0.12381066  0.37503743  1
  V  V42  1  0.49379106  0.50266881  0.48640254  1
  V  V43  1  -0.00526154  0.25047295  0.24565249  1
  V  V44  1  0.75328426  0.24903150  0.00660625  1
  V  V45  1  0.74929372  0.75371270  0.00264649  1
  V  V46  1  0.00950756  0.00224101  -0.00133586  1
  V  V47  1  0.37929264  0.12689940  0.73041868  1
  V  V48  1  0.25398793  0.00655326  0.74984956  1
  V  V49  1  0.00116041  0.49783506  -0.00740952  1
  V  V50  1  0.12896207  0.12831698  0.50344316  1
  V  V51  1  0.11859134  0.62745415  0.00240081  1
  V  V52  1  0.12505151  0.62364192  0.50168003  1
  V  V53  1  0.87534588  0.76012131  0.62430389  1
  V  V54  1  0.24800719  0.74958102  0.00200297  1
  V  V55  1  0.62734571  0.24884563  0.87311548  1
  V  V56  1  0.50473519  0.00197900  0.51438423  1
  V  V57  1  -0.00009696  0.74905556  0.75182340  1
  V  V58  1  0.75588625  0.75252501  0.49889004  1
  V  V59  1  0.12424439  0.87704273  0.75136882  1
  V  V60  1  0.74823002  0.38495036  0.61563543  1
  V  V61  1  0.73407079  0.88007749  0.62403776  1
  V  V62  1  0.49826035  0.37179339  0.87108482  1
  V  V63  1  0.00544880  0.75348541  0.24397878  1
  V  V64  1  -0.00374841  0.49704934  0.50285934  1
  V  V65  1  0.87329415  0.50025574  0.37649296  1
  V  V66  1  0.37910489  0.74453349  0.63679039  1
  V  V67  1  0.24701146  0.37336396  0.11956894  1
  V  V68  1  0.25236090  0.62589646  0.87210943  1
  V  V69  1  0.37212430  0.50033535  0.87023743  1
  V  V70  1  0.25313697  0.35642921  0.62465932  1
  V  V71  1  0.62909775  0.75284937  0.37528551  1
  V  V72  1  0.87621348  0.25808900  0.61537672  1
  V  V73  1  0.87978642  0.62379849  0.24214119  1
  V  V74  1  -0.00287922  0.25813739  0.75836378  1
  V  V75  1  0.50261260  -0.00042412  -0.00649527  1
  V  V76  1  0.51386198  0.86723606  0.87086328  1
  V  V77  1  0.49837474  0.49869851  -0.00175874  1
  V  V78  1  0.50131796  0.61347982  0.63226714  1
  V  V79  1  0.25311901  0.87463514  0.62522033  1
  V  V80  1  -0.00394035  0.12478279  0.62149252  1
  V  V81  1  0.87470496  0.12270169  0.24583313  1
  V  V82  1  0.50987311  0.75424386  0.24775789  1
  V  V83  1  0.50510868  0.87952182  0.37232545  1
  V  V84  1  0.25354642  0.74827061  0.50085891  1
  Zn  Zn85  1  0.12403674  0.49801575  0.62623918  1
  Zn  Zn86  1  0.37134418  -0.00451804  0.37266183  1
  Zn  Zn87  1  0.37093659  0.37180439  -0.00364026  1
  Zn  Zn88  1  0.62414803  0.37598648  0.74360249  1
  Zn  Zn89  1  0.51399132  0.74873947  0.75160199  1
  Zn  Zn90  1  0.75161241  0.50145365  0.25048174  1
  Zn  Zn91  1  0.12451525  0.74986050  0.87479269  1
  Zn  Zn92  1  0.75184776  0.62592857  0.37486065  1
  Zn  Zn93  1  0.63038640  0.12261489  -0.00007280  1
  Zn  Zn94  1  0.12223434  0.37763920  0.75418442  1
  Zn  Zn95  1  0.62791425  0.61544452  0.49958376  1
  Zn  Zn96  1  0.48991787  0.37778222  0.37047250  1
  Zn  Zn97  1  0.87618559  0.74893058  0.12523176  1
  Zn  Zn98  1  0.25304176  0.62025888  0.37753777  1
  Zn  Zn99  1  0.75546645  0.37101134  0.12689000  1
  Zn  Zn100  1  0.75115561  0.12670424  0.87315399  1
  Zn  Zn101  1  0.75278969  0.25343095  0.49859289  1
  Zn  Zn102  1  0.68434412  0.69542613  0.83514540  1
  Zn  Zn103  1  -0.00263351  0.62310125  0.62649715  1
  Zn  Zn104  1  0.24904444  0.22802380  -0.00039632  1
  Zn  Zn105  1  0.87257131  0.12541444  0.74723344  1
  Zn  Zn106  1  -0.00114644  0.87510750  0.87618126  1
  Zn  Zn107  1  0.18476282  0.18542774  0.18974452  1
  Zn  Zn108  1  0.18319116  0.18536267  0.69638753  1
  Zn  Zn109  1  0.18711619  0.68618278  0.18902609  1
  Zn  Zn110  1  0.18791074  0.68623839  0.68665428  1
  Zn  Zn111  1  0.68962666  0.18362093  0.18814624  1
  Zn  Zn112  1  0.69170976  0.19183075  0.68893908  1
  Zn  Zn113  1  0.69306591  0.68695263  0.18428586  1
  Zn  Zn114  1  0.68417969  0.68590560  0.67360197  1
  Zn  Zn115  1  0.30934509  0.30842544  0.31255148  1
  Zn  Zn116  1  0.31226645  0.30953020  0.80806408  1
  Zn  Zn117  1  0.31902557  0.80685879  0.31570425  1
  Zn  Zn118  1  0.31274922  0.81377822  0.81340451  1
  Zn  Zn119  1  0.81212878  0.31159042  0.31211192  1
  Zn  Zn120  1  0.81357980  0.31678624  0.81141925  1
  Zn  Zn121  1  0.82053312  0.81160037  0.31305752  1
  Zn  Zn122  1  0.81206327  0.82131254  0.81492203  1
  Zn  Zn123  1  0.18694149  0.43481622  0.44033455  1
  Zn  Zn124  1  0.18259591  0.43256528  0.93282488  1
  Zn  Zn125  1  0.18521309  0.93632117  0.43766065  1
  Zn  Zn126  1  0.18220800  0.93331971  0.94164678  1
  Zn  Zn127  1  0.68312010  0.43771589  0.43791072  1
  Zn  Zn128  1  0.68954451  0.43469948  0.93494497  1
  Zn  Zn129  1  0.68822280  0.93808675  0.43955989  1
  Zn  Zn130  1  0.69075124  0.93732088  0.93995412  1
  Zn  Zn131  1  0.31447404  0.05549923  0.08370676  1
  Zn  Zn132  1  0.31089778  0.06077870  0.55747191  1
  Zn  Zn133  1  0.31055898  0.56121799  0.06278227  1
  Zn  Zn134  1  0.31884267  0.56056806  0.55985565  1
  Zn  Zn135  1  0.81398760  0.06244031  0.06338216  1
  Zn  Zn136  1  0.80657330  0.06508643  0.56553102  1
  Zn  Zn137  1  0.81198400  0.56363976  0.06188690  1
  Zn  Zn138  1  0.81527685  0.56791125  0.56394946  1
  Zn  Zn139  1  0.43837279  0.43693183  0.18726664  1
  Zn  Zn140  1  0.43182132  0.43498321  0.68509464  1
  Zn  Zn141  1  0.43895485  0.93518221  0.18514042  1
  Zn  Zn142  1  0.43774565  0.93773621  0.69246843  1
  Zn  Zn143  1  0.93880123  0.43888818  0.18447220  1
  Zn  Zn144  1  0.93224538  0.43819212  0.68613302  1
  Zn  Zn145  1  0.94241091  0.93724578  0.19496400  1
  Zn  Zn146  1  0.93532553  0.93871141  0.68753581  1
  Zn  Zn147  1  0.05729041  0.06198205  0.31725765  1
  Zn  Zn148  1  0.06096810  0.06773738  0.80894143  1
  Zn  Zn149  1  0.06168902  0.56598515  0.31468054  1
  Zn  Zn150  1  0.06393046  0.56340910  0.81337186  1
  Zn  Zn151  1  0.56576155  0.06039847  0.31309613  1
  Zn  Zn152  1  0.55689074  0.06565255  0.81264357  1
  Zn  Zn153  1  0.56515820  0.56479337  0.31388083  1
  Zn  Zn154  1  0.55766540  0.56001025  0.80901051  1
  Zn  Zn155  1  0.43863435  0.18606484  0.44017055  1
  Zn  Zn156  1  0.44296761  0.19258107  0.94035980  1
  Zn  Zn157  1  0.43984534  0.68963289  0.43871352  1
  Zn  Zn158  1  0.43736064  0.68680264  0.93678159  1
  Zn  Zn159  1  0.94009704  0.18378955  0.43858539  1
  Zn  Zn160  1  0.93700005  0.18619805  0.93719535  1
  Zn  Zn161  1  0.93790456  0.68541533  0.43632516  1
  Zn  Zn162  1  0.93427208  0.68840602  0.93672988  1
  Zn  Zn163  1  0.06331404  0.31141263  0.05656912  1
  Zn  Zn164  1  0.06521824  0.31356725  0.56544268  1
  Zn  Zn165  1  0.06256574  0.81781200  0.06375636  1
  Zn  Zn166  1  0.06392819  0.80945671  0.56552534  1
  Zn  Zn167  1  0.56406677  0.31265575  0.05923941  1
  Zn  Zn168  1  0.56498652  0.32133869  0.55680805  1
  Zn  Zn169  1  0.56409085  0.81067396  0.05714875  1
  Zn  Zn170  1  0.56228135  0.80736934  0.56078237  1
  O  O171  1  0.11849592  0.11054265  0.12960387  1
  O  O172  1  0.12055187  0.11948723  0.62084262  1
  O  O173  1  0.13149949  0.61516547  0.11573493  1
  O  O174  1  0.12257651  0.62414034  0.61244372  1
  O  O175  1  0.61331625  0.12043163  0.12539442  1
  O  O176  1  0.62925955  0.13148807  0.61283201  1
  O  O177  1  0.61950985  0.61613466  0.11751318  1
  O  O178  1  0.60545394  0.62461658  0.61579200  1
  O  O179  1  0.36979568  0.37060744  0.38779180  1
  O  O180  1  0.38025788  0.37957528  0.87564929  1
  O  O181  1  0.38510640  0.87408746  0.38285822  1
  O  O182  1  0.37935100  0.87229552  0.88853101  1
  O  O183  1  0.88686658  0.38062188  0.36994649  1
  O  O184  1  0.87358999  0.38880704  0.88431832  1
  O  O185  1  0.88775808  0.88067522  0.37832166  1
  O  O186  1  0.87869189  0.88903455  0.88381057  1
  O  O187  1  0.24891549  0.01160185  0.37684827  1
  O  O188  1  0.24970883  -0.00483074  0.86701311  1
  O  O189  1  0.24079169  0.49896533  0.35864555  1
  O  O190  1  0.25417592  0.50382738  0.86751310  1
  O  O191  1  0.75698630  0.00382912  0.36805549  1
  O  O192  1  0.75564321  -0.00038189  0.86452024  1
  O  O193  1  0.76314142  0.49744505  0.37594758  1
  O  O194  1  0.75893583  0.49758784  0.86558191  1
  O  O195  1  0.24074830  0.49238336  0.13286067  1
  O  O196  1  0.25160668  0.50403001  0.63703108  1
  O  O197  1  0.23486749  0.99164336  0.12912372  1
  O  O198  1  0.24368180  0.99468868  0.63284236  1
  O  O199  1  0.73718440  0.49778820  0.12552383  1
  O  O200  1  0.75816627  0.49117890  0.63173673  1
  O  O201  1  0.74071238  1.00557933  0.13437273  1
  O  O202  1  0.75185797  0.98897240  0.63492859  1
  O  O203  1  0.00414302  0.36832714  0.25493974  1
  O  O204  1  0.00034386  0.36170657  0.74236875  1
  O  O205  1  -0.00303112  0.85864400  0.26320991  1
  O  O206  1  0.00811991  0.86907359  0.75032095  1
  O  O207  1  0.50922303  0.36873698  0.25047311  1
  O  O208  1  0.49918380  0.36945303  0.75698920  1
  O  O209  1  0.49445651  0.86467778  0.25787385  1
  O  O210  1  0.49775702  0.87623535  0.76820162  1
  O  O211  1  0.49482748  0.12932995  0.24456979  1
  O  O212  1  0.48825419  0.13018356  0.74631945  1
  O  O213  1  0.49517918  0.62993697  0.24367077  1
  O  O214  1  0.49709769  0.62410082  0.73621041  1
  O  O215  1  0.99525185  0.13116038  0.24401672  1
  O  O216  1  0.99830202  0.13750522  0.73661526  1
  O  O217  1  0.99366727  0.64064076  0.25861358  1
  O  O218  1  0.99409260  0.63330220  0.74831546  1
  O  O219  1  0.37130134  0.25004715  0.01247827  1
  O  O220  1  0.38030432  0.26457606  0.50091458  1
  O  O221  1  0.36995546  0.75615173  0.00757223  1
  O  O222  1  0.37127617  0.75661875  0.50652560  1
  O  O223  1  0.86777093  0.25995037  -0.00724111  1
  O  O224  1  0.87553516  0.24704567  0.51086853  1
  O  O225  1  0.87480504  0.75999248  0.00468324  1
  O  O226  1  0.86496014  0.74432149  0.50833972  1
  O  O227  1  0.12057515  0.24202696  0.49125911  1
  O  O228  1  0.12999919  0.24752323  0.98763536  1
  O  O229  1  0.13242823  0.74370394  0.49592483  1
  O  O230  1  0.12783523  0.74385995  0.99967179  1
  O  O231  1  0.62409856  0.24450885  0.49032793  1
  O  O232  1  0.63346321  0.24915190  0.99142143  1
  O  O233  1  0.63713705  0.74871609  0.49188124  1
  O  O234  1  0.63457115  0.73953501  1.00240457  1
  O  O235  1  0.49395385  0.24283026  0.12753601  1
  O  O236  1  0.50517644  0.26058456  0.63563067  1
  O  O237  1  0.49673966  0.74658228  0.13117613  1
  O  O238  1  0.49347016  0.74094063  0.62602676  1
  O  O239  1  1.00895443  0.24027053  0.13312306  1
  O  O240  1  0.99404101  0.24638776  0.63115438  1
  O  O241  1  1.00244926  0.75448225  0.14070519  1
  O  O242  1  0.99286694  0.74975858  0.63526644  1
  O  O243  1  0.00648128  0.25557640  0.36959198  1
  O  O244  1  -0.00007418  0.24734494  0.86057030  1
  O  O245  1  0.00583067  0.75843320  0.37241208  1
  O  O246  1  0.00137332  0.75194638  0.86295466  1
  O  O247  1  0.50692470  0.25112552  0.36679012  1
  O  O248  1  0.50622258  0.25797377  0.86922343  1
  O  O249  1  0.50840235  0.75808928  0.36892053  1
  O  O250  1  0.49601209  0.76260174  0.87461135  1
  O  O251  1  0.23760542  0.12396019  0.49303063  1
  O  O252  1  0.26689893  0.11068348  0.99240936  1
  O  O253  1  0.24443347  0.62761779  0.49742806  1
  O  O254  1  0.24046194  0.62953891  0.99547059  1
  O  O255  1  0.74014228  0.12747473  0.49217069  1
  O  O256  1  0.75086204  0.13325581  0.99581703  1
  O  O257  1  0.74736557  0.63480705  0.49830002  1
  O  O258  1  0.74111626  0.63137967  1.00145320  1
  O  O259  1  0.24972236  0.37776805  0.01359280  1
  O  O260  1  0.25957931  0.37846359  0.51056546  1
  O  O261  1  0.25494826  0.86885842  0.00702776  1
  O  O262  1  0.25635454  0.87047184  0.50644165  1
  O  O263  1  0.75807754  0.36687358  0.00114668  1
  O  O264  1  0.74922193  0.37601806  0.51142409  1
  O  O265  1  0.76110754  0.86923792  0.00012743  1
  O  O266  1  0.74896352  0.87149171  0.51512553  1
  O  O267  1  0.12723589  0.49707980  0.24214366  1
  O  O268  1  0.13361929  0.49702659  0.74872469  1
  O  O269  1  0.11852430  0.99774533  0.24229236  1
  O  O270  1  0.13192973  0.99606163  0.74262727  1
  O  O271  1  0.62522645  0.49220420  0.24356580  1
  O  O272  1  0.63728744  0.49853034  0.75361676  1
  O  O273  1  0.63727724  1.00349610  0.24215582  1
  O  O274  1  0.63674786  1.00222238  0.75629611  1
  O  O275  1  0.38069428  0.01302053  0.25064023  1
  O  O276  1  0.36791068  0.01316558  0.74844930  1
  O  O277  1  0.36626621  0.50820231  0.24247929  1
  O  O278  1  0.36724396  0.49690924  0.76250238  1
  O  O279  1  0.87045621  0.00618530  0.25831117  1
  O  O280  1  0.86894079  0.00193642  0.75834692  1
  O  O281  1  0.87770977  0.50553909  0.25772952  1
  O  O282  1  0.86823543  0.50814573  0.75617355  1
  O  O283  1  0.11712702  0.36778573  0.37009791  1
  O  O284  1  0.12595586  0.35679367  0.87034581  1
  O  O285  1  0.11608840  0.86343359  0.37960271  1
  O  O286  1  0.12319486  0.87307355  0.86214458  1
  O  O287  1  0.62326346  0.36402860  0.36670088  1
  O  O288  1  0.61640414  0.36593374  0.87154197  1
  O  O289  1  0.61953912  0.86320567  0.37748631  1
  O  O290  1  0.61215372  0.87230373  0.88417187  1
  O  O291  1  0.38578732  0.13016986  0.13335637  1
  O  O292  1  0.37320379  0.12463527  0.63169145  1
  O  O293  1  0.38018388  0.63017643  0.13114510  1
  O  O294  1  0.38782328  0.63430189  0.61854530  1
  O  O295  1  0.88601809  0.11798018  0.13873597  1
  O  O296  1  0.88142266  0.13324349  0.62500515  1
  O  O297  1  0.87788538  0.62130264  0.13800347  1
  O  O298  1  0.87504405  0.63774496  0.63865497  1
  O  O299  1  0.25502642  0.25385227  0.12263304  1
  O  O300  1  0.24756295  0.25830219  0.63008331  1
  O  O301  1  0.25379461  0.75589743  0.12116819  1
  O  O302  1  0.25850898  0.75391735  0.62097894  1
  O  O303  1  0.74539289  0.24983465  0.11118187  1
  O  O304  1  0.75997998  0.26178695  0.62425368  1
  O  O305  1  0.75732377  0.74685773  0.11107144  1
  O  O306  1  0.75534182  0.76098494  0.61817254  1
  O  O307  1  0.23426240  0.23946920  0.36887711  1
  O  O308  1  0.24283874  0.24868181  0.87834517  1
  O  O309  1  0.24248472  0.74818124  0.38114969  1
  O  O310  1  0.24913909  0.74232350  0.88123377  1
  O  O311  1  0.74340404  0.24400569  0.37680711  1
  O  O312  1  0.74266177  0.25071868  0.87943171  1
  O  O313  1  0.74665636  0.75318754  0.38185038  1
  O  O314  1  0.76292780  0.75117564  0.89205010  1
  O  O315  1  -0.00638048  0.11875134  0.01368584  1
  O  O316  1  0.01188761  0.12784553  0.51244837  1
  O  O317  1  0.01213086  0.61957150  -0.00474616  1
  O  O318  1  0.00783256  0.61814466  0.50184572  1
  O  O319  1  0.50100323  0.11635536  0.00866663  1
  O  O320  1  0.50936846  0.11359632  0.49339811  1
  O  O321  1  0.50479414  0.61851202  0.00604989  1
  O  O322  1  0.49713461  0.61300285  0.50328723  1
  O  O323  1  0.48783277  0.38402222  0.49642408  1
  O  O324  1  0.49731223  0.37946078  0.98807970  1
  O  O325  1  0.49815459  0.87993411  0.49232711  1
  O  O326  1  0.49142067  0.88094839  0.99482461  1
  O  O327  1  1.00557491  0.38306201  0.49085001  1
  O  O328  1  0.99314861  0.38449651  1.00140808  1
  O  O329  1  1.00254642  0.86990163  0.48913172  1
  O  O330  1  0.99425398  0.88436418  0.99694102  1
  O  O331  1  0.49521331  0.49952659  0.38141305  1
  O  O332  1  0.49066123  0.49225273  0.87636345  1
  O  O333  1  0.50113087  0.98723725  0.37608280  1
  O  O334  1  0.50510984  0.99077837  0.88794644  1
  O  O335  1  0.99286820  0.49202792  0.37988806  1
  O  O336  1  0.99415447  0.50307191  0.88551864  1
  O  O337  1  0.99406271  0.98416218  0.37299075  1
  O  O338  1  0.99565184  1.00253596  0.88198318  1
  O  O339  1  0.01015146  0.00428405  0.12222119  1
  O  O340  1  0.00828057  0.01000248  0.63220800  1
  O  O341  1  0.01286218  0.49739011  0.11427393  1
  O  O342  1  0.00113024  0.50094462  0.61686232  1
  O  O343  1  0.50484957  0.00508882  0.11621465  1
  O  O344  1  0.49973624  -0.00709793  0.61342390  1
  O  O345  1  0.50920335  0.50232698  0.11909890  1
  O  O346  1  0.49194492  0.51006319  0.61766324  1
  O  O347  1  0.24441301  0.37878126  0.24005968  1
  O  O348  1  0.25178601  0.38152830  0.73659230  1
  O  O349  1  0.25887054  0.86796224  0.23919731  1
  O  O350  1  0.24483263  0.88357989  0.74529219  1
  O  O351  1  0.73938568  0.37616728  0.24678147  1
  O  O352  1  0.75002288  0.38526697  0.74067207  1
  O  O353  1  0.75738383  0.88521679  0.25135321  1
  O  O354  1  0.75236135  0.88794143  0.73961406  1
  O  O355  1  0.25915204  0.12819766  0.25821755  1
  O  O356  1  0.26125400  0.11582564  0.74783601  1
  O  O357  1  0.25929264  0.61660490  0.25018137  1
  O  O358  1  0.24560591  0.61820834  0.76056244  1
  O  O359  1  0.76026060  0.12121014  0.25594364  1
  O  O360  1  0.75223128  0.11193103  0.74962337  1
  O  O361  1  0.76170632  0.62247273  0.25378902  1
  O  O362  1  0.75442474  0.61991058  0.74912721  1
  O  O363  1  0.36512710  0.12518938  0.36960001  1
  O  O364  1  0.38278928  0.12212366  0.86884897  1
  O  O365  1  0.37408996  0.63136151  0.36141203  1
  O  O366  1  0.36178604  0.61628653  0.88211144  1
  O  O367  1  0.87480504  0.11796661  0.36580132  1
  O  O368  1  0.87367595  0.11327252  0.87256236  1
  O  O369  1  0.87546152  0.61562809  0.36583205  1
  O  O370  1  0.87927494  0.61572896  0.86314218  1
  O  O371  1  0.13030313  0.37998530  0.12991390  1
  O  O372  1  0.14195492  0.37869550  0.62392173  1
  O  O373  1  0.13240550  0.88740737  0.12519774  1
  O  O374  1  0.12923738  0.88129685  0.63365069  1
  O  O375  1  0.62483058  0.38150208  0.13194645  1
  O  O376  1  0.64316936  0.37290821  0.62609060  1
  O  O377  1  0.61823049  0.88545298  0.12545543  1
  O  O378  1  0.63571680  0.87239048  0.62488800  1
  O  O379  1  0.11375424  0.25350466  0.25733672  1
  O  O380  1  0.11247307  0.25449946  0.75513229  1
  O  O381  1  0.11501268  0.74358511  0.25988548  1
  O  O382  1  0.11788948  0.75869400  0.74805196  1
  O  O383  1  0.62165830  0.25565020  0.25408908  1
  O  O384  1  0.61733365  0.25143374  0.75692177  1
  O  O385  1  0.61589370  0.74382934  0.25406793  1
  O  O386  1  0.62773939  0.74232433  0.75244895  1
  O  O387  1  0.37856151  0.24192668  0.24078269  1
  O  O388  1  0.38229663  0.23478374  0.75182981  1
  O  O389  1  0.38698802  0.74142168  0.24414869  1
  O  O390  1  0.37820703  0.75422072  0.73886691  1
  O  O391  1  0.88750338  0.24238685  0.25410328  1
  O  O392  1  0.88417869  0.24959275  0.74280343  1
  O  O393  1  0.88643371  0.74256287  0.24797026  1
  O  O394  1  0.87996369  0.74681936  0.74748052  1
  O  O395  1  0.38625100  0.48901253  0.49969136  1
  O  O396  1  0.37913704  0.49690919  0.99007523  1
  O  O397  1  0.38373172  0.99291776  0.49600292  1
  O  O398  1  0.37876870  0.99612179  0.99568213  1
  O  O399  1  0.88798991  0.50782185  0.49227880  1
  O  O400  1  0.88194924  0.49847876  0.99287653  1
  O  O401  1  0.87058026  1.00878838  0.48712007  1
  O  O402  1  0.88364695  0.99558169  0.99531807  1
  O  O403  1  0.11243381  -0.00258507  0.00730462  1
  O  O404  1  0.12855911  0.00580047  0.51387172  1
  O  O405  1  0.11957508  0.50514330  0.00357840  1
  O  O406  1  0.11511231  0.50735149  0.49835515  1
  O  O407  1  0.61918939  0.00197407  0.00869116  1
  O  O408  1  0.61712368  0.01147980  0.49423988  1
  O  O409  1  0.62001105  0.50257182  0.00619521  1
  O  O410  1  0.60265712  0.49668216  0.49488471  1
  O  O411  1  0.36734435  0.36593500  0.12542895  1
  O  O412  1  0.36011523  0.37627484  0.61516276  1
  O  O413  1  0.36820020  0.87238264  0.11448268  1
  O  O414  1  0.37216217  0.86810379  0.62049758  1
  O  O415  1  0.87257982  0.38244769  0.10929949  1
  O  O416  1  0.86281535  0.36878755  0.62607365  1
  O  O417  1  0.88232357  0.87841359  0.11496728  1
  O  O418  1  0.86885119  0.86350855  0.62924765  1
  O  O419  1  0.12686457  0.12897920  0.38269811  1
  O  O420  1  0.12177870  0.14560630  0.86572491  1
  O  O421  1  0.12561240  0.63575571  0.38612597  1
  O  O422  1  0.13600330  0.62634334  0.88342351  1
  O  O423  1  0.63039874  0.13623288  0.37459338  1
  O  O424  1  0.62363269  0.13776245  0.87756320  1
  O  O425  1  0.62804391  0.63819874  0.37737031  1
  O  O426  1  0.61831000  0.61677007  0.88956948  1
