# generated using pymatgen
data_V85Zn86O256
_symmetry_space_group_name_H-M   'P 1'
_cell_length_a   16.96016708
_cell_length_b   16.98535075
_cell_length_c   16.96750531
_cell_angle_alpha   90.05700258
_cell_angle_beta   90.05456921
_cell_angle_gamma   89.97559437
_symmetry_Int_Tables_number   1
_chemical_formula_structural   V85Zn86O256
_chemical_formula_sum   'V85 Zn86 O256'
_cell_volume   4887.89860694
_cell_formula_units_Z   1
loop_
 _symmetry_equiv_pos_site_id
 _symmetry_equiv_pos_as_xyz
  1  'x, y, z'
loop_
 _atom_site_type_symbol
 _atom_site_label
 _atom_site_symmetry_multiplicity
 _atom_site_fract_x
 _atom_site_fract_y
 _atom_site_fract_z
 _atom_site_occupancy
  V  V0  1  0.37688091  0.12608557  0.25695333  1
  V  V1  1  0.62360788  0.25057884  0.37453828  1
  V  V2  1  0.25129646  0.74987370  0.50230426  1
  V  V3  1  0.74647650  0.50308346  0.24440210  1
  V  V4  1  -0.00307655  0.75313052  0.24802010  1
  V  V5  1  -0.00239275  0.62902803  0.12392012  1
  V  V6  1  0.37600152  0.37544546  0.50742760  1
  V  V7  1  0.25001422  0.62456692  0.37250533  1
  V  V8  1  0.12586629  0.62560736  0.00102236  1
  V  V9  1  0.75360068  0.12009389  0.87405862  1
  V  V10  1  0.37132019  0.62405942  0.24765603  1
  V  V11  1  0.62456756  0.38120521  0.24307946  1
  V  V12  1  0.75411200  0.37969845  0.63253097  1
  V  V13  1  -0.00218683  0.87333633  0.87278836  1
  V  V14  1  0.87237224  0.12128756  0.24796273  1
  V  V15  1  -0.00205440  0.25777298  0.24553781  1
  V  V16  1  0.74187054  0.62033695  0.86566232  1
  V  V17  1  0.62560515  0.87351719  0.76302120  1
  V  V18  1  0.87612490  0.37729971  -0.00354893  1
  V  V19  1  0.24720216  0.37937650  0.12823621  1
  V  V20  1  0.62646830  0.62561628  0.00488267  1
  V  V21  1  0.49209908  -0.01800303  -0.00204123  1
  V  V22  1  0.62367867  0.24873401  0.86498551  1
  V  V23  1  0.25267607  0.62545514  0.87397821  1
  V  V24  1  0.50233623  0.50675657  0.50579098  1
  V  V25  1  0.12402476  0.62203823  0.50520992  1
  V  V26  1  0.11904008  0.25298840  0.37085698  1
  V  V27  1  0.25076114  0.24719953  -0.00138426  1
  V  V28  1  -0.00039455  0.50107143  0.50016433  1
  V  V29  1  0.49798569  0.12245646  0.12647036  1
  V  V30  1  0.62352355  0.00657546  0.63157996  1
  V  V31  1  0.75026103  0.75070149  -0.00791043  1
  V  V32  1  0.74548376  0.25251318  0.00348714  1
  V  V33  1  0.38681229  0.74679680  0.62227340  1
  V  V34  1  0.37399742  0.37371835  0.00052235  1
  V  V35  1  0.13172996  0.11772995  0.00075698  1
  V  V36  1  0.24959423  -0.00081631  0.25125892  1
  V  V37  1  0.74814654  0.86630395  0.12956934  1
  V  V38  1  0.62445636  0.63135759  0.49775952  1
  V  V39  1  0.00247694  0.62907498  0.63107416  1
  V  V40  1  0.25438861  0.87585982  0.12126552  1
  V  V41  1  0.01249554  -0.00110686  0.51478438  1
  V  V42  1  -0.00212423  0.12227965  0.11877211  1
  V  V43  1  0.87713077  0.50030680  0.37172799  1
  V  V44  1  0.88096151  0.87493074  0.00725151  1
  V  V45  1  0.75146135  0.75284138  0.49527451  1
  V  V46  1  0.25052521  0.88073843  0.62784666  1
  V  V47  1  0.62444576  -0.00769260  0.13259013  1
  V  V48  1  0.50091631  -0.00212101  0.50298217  1
  V  V49  1  0.24062506  0.38120678  0.62971167  1
  V  V50  1  0.24364415  0.12756538  0.37430333  1
  V  V51  1  0.87328305  0.63015626  0.24660208  1
  V  V52  1  0.87427408  0.62199834  0.74952868  1
  V  V53  1  0.10387832  0.38190757  0.76826394  1
  V  V54  1  0.12468285  0.38246642  0.24821343  1
  V  V55  1  0.62869578  0.50507688  0.63094984  1
  V  V56  1  0.62198258  0.12529012  0.50450510  1
  V  V57  1  0.37888539  -0.00935094  0.86061325  1
  V  V58  1  0.37930892  0.75289055  0.12302108  1
  V  V59  1  0.38170091  0.62302402  0.74358719  1
  V  V60  1  0.12414254  0.87190575  0.74619838  1
  V  V61  1  0.51271127  0.75205987  0.25309095  1
  V  V62  1  0.61926251  0.12335645  0.00136082  1
  V  V63  1  0.50036701  0.37156262  0.87369395  1
  V  V64  1  0.37513320  -0.00407357  0.37899676  1
  V  V65  1  0.37163336  0.50065152  0.37116831  1
  V  V66  1  0.50103302  0.37769289  0.37612731  1
  V  V67  1  0.26175319  0.12285195  0.86533043  1
  V  V68  1  0.75262525  0.25100344  0.50080320  1
  V  V69  1  0.12012196  -0.00280913  0.12551203  1
  V  V70  1  0.87792600  -0.00587531  0.38306858  1
  V  V71  1  0.12430988  0.75113513  0.37479222  1
  V  V72  1  0.50069284  0.25050977  0.25123796  1
  V  V73  1  0.87695740  0.37381034  0.49332094  1
  V  V74  1  0.87810957  0.75501766  0.62579674  1
  V  V75  1  0.50620723  0.49848323  0.00705140  1
  V  V76  1  -0.00219787  0.50210839  -0.00785611  1
  V  V77  1  0.24929919  0.25783123  0.50055556  1
  V  V78  1  0.12182390  0.74913105  0.87136904  1
  V  V79  1  0.25520550  0.75194641  0.00005848  1
  V  V80  1  0.49016065  0.24669564  0.73460223  1
  V  V81  1  0.75103574  0.87621002  0.62357254  1
  V  V82  1  0.37538965  0.49831387  0.87250668  1
  V  V83  1  0.51607670  0.87340505  0.37268693  1
  V  V84  1  0.50685220  0.74922017  0.76728870  1
  Zn  Zn85  1  0.12644828  0.50133801  0.12658179  1
  Zn  Zn86  1  0.91479862  0.12187070  0.73673995  1
  Zn  Zn87  1  0.50469104  0.61996851  0.12947699  1
  Zn  Zn88  1  0.74796633  -0.00787543  0.25302314  1
  Zn  Zn89  1  0.74591434  0.38285242  0.12124702  1
  Zn  Zn90  1  0.62926515  0.37929090  0.75027280  1
  Zn  Zn91  1  0.43179911  0.08984657  0.67909962  1
  Zn  Zn92  1  0.74534655  0.63235011  0.37186944  1
  Zn  Zn93  1  0.75015991  0.12233267  0.37373630  1
  Zn  Zn94  1  0.37437342  0.24912341  0.12833945  1
  Zn  Zn95  1  0.87144880  0.25286921  0.12625606  1
  Zn  Zn96  1  0.37670927  0.87021863  0.49641481  1
  Zn  Zn97  1  0.87360719  0.49591880  0.86588560  1
  Zn  Zn98  1  0.07908743  0.22334500  0.84956592  1
  Zn  Zn99  1  0.08788898  0.15292337  0.54007338  1
  Zn  Zn100  1  -0.00260486  0.87346949  0.38155441  1
  Zn  Zn101  1  0.24466672  0.50382388  0.74264424  1
  Zn  Zn102  1  0.12474939  0.87477989  0.25121120  1
  Zn  Zn103  1  0.76140279  -0.00184327  0.74987786  1
  Zn  Zn104  1  0.19024263  0.04411571  0.70270385  1
  Zn  Zn105  1  0.88132436  -0.00071364  0.87805619  1
  Zn  Zn106  1  0.90999696  0.24909465  0.62931285  1
  Zn  Zn107  1  0.18732264  0.19122086  0.18560412  1
  Zn  Zn108  1  0.09142425  0.19691564  0.69151500  1
  Zn  Zn109  1  0.18764556  0.68799727  0.18738429  1
  Zn  Zn110  1  0.19185936  0.69031811  0.68717412  1
  Zn  Zn111  1  0.68574066  0.18561139  0.18682825  1
  Zn  Zn112  1  0.76921492  0.18787170  0.68672006  1
  Zn  Zn113  1  0.68986484  0.68642925  0.18029610  1
  Zn  Zn114  1  0.68609003  0.68908661  0.68346519  1
  Zn  Zn115  1  0.31135201  0.31480673  0.31346513  1
  Zn  Zn116  1  0.31030260  0.30681918  0.80960253  1
  Zn  Zn117  1  0.31472632  0.81190561  0.30922144  1
  Zn  Zn118  1  0.31295126  0.80978223  0.80829353  1
  Zn  Zn119  1  0.81131147  0.31448948  0.31198870  1
  Zn  Zn120  1  0.82225264  0.30791138  0.81438415  1
  Zn  Zn121  1  0.81295443  0.81358152  0.31221951  1
  Zn  Zn122  1  0.81346523  0.80744388  0.81021488  1
  Zn  Zn123  1  0.18580284  0.43943909  0.43106085  1
  Zn  Zn124  1  0.18831984  0.44021362  0.93958639  1
  Zn  Zn125  1  0.18530847  0.93662333  0.44196394  1
  Zn  Zn126  1  0.19410369  0.93692386  0.93480672  1
  Zn  Zn127  1  0.69051783  0.44160595  0.43558233  1
  Zn  Zn128  1  0.68788255  0.43912964  0.93424070  1
  Zn  Zn129  1  0.69247018  0.93948633  0.44081761  1
  Zn  Zn130  1  0.68707144  0.93832039  0.94466765  1
  Zn  Zn131  1  0.31628286  0.05900994  0.06349581  1
  Zn  Zn132  1  0.26594309  0.09636703  0.58435052  1
  Zn  Zn133  1  0.31502451  0.56153357  0.06220672  1
  Zn  Zn134  1  0.31345649  0.56182136  0.56068318  1
  Zn  Zn135  1  0.80936343  0.05681651  0.06159459  1
  Zn  Zn136  1  0.81411696  0.06188939  0.56134672  1
  Zn  Zn137  1  0.81300493  0.56536850  0.06204736  1
  Zn  Zn138  1  0.81165318  0.56560578  0.56191839  1
  Zn  Zn139  1  0.43484422  0.43663981  0.18734328  1
  Zn  Zn140  1  0.44160354  0.43416891  0.68690151  1
  Zn  Zn141  1  0.43856525  0.93446059  0.19042188  1
  Zn  Zn142  1  0.44258579  0.92224334  0.68621753  1
  Zn  Zn143  1  0.93572629  0.43978712  0.17827031  1
  Zn  Zn144  1  0.93670326  0.44220501  0.68019400  1
  Zn  Zn145  1  0.93520068  0.93636291  0.18792367  1
  Zn  Zn146  1  0.93912600  0.93608385  0.69290483  1
  Zn  Zn147  1  0.05808308  0.06472760  0.31056819  1
  Zn  Zn148  1  0.06383064  0.05118384  0.82737548  1
  Zn  Zn149  1  0.05953906  0.56458395  0.31440269  1
  Zn  Zn150  1  0.06429407  0.56080643  0.80986870  1
  Zn  Zn151  1  0.56268500  0.06270921  0.31648543  1
  Zn  Zn152  1  0.56297870  0.06245317  0.81471563  1
  Zn  Zn153  1  0.56137862  0.56556173  0.31608795  1
  Zn  Zn154  1  0.56089969  0.56316248  0.81377236  1
  Zn  Zn155  1  0.41248382  0.16518948  0.49665753  1
  Zn  Zn156  1  0.43655720  0.18606019  0.93611511  1
  Zn  Zn157  1  0.44177903  0.68719440  0.43489548  1
  Zn  Zn158  1  0.43823200  0.68401856  0.93989160  1
  Zn  Zn159  1  0.93697099  0.18402535  0.43300569  1
  Zn  Zn160  1  0.93263724  0.18609453  0.94495925  1
  Zn  Zn161  1  0.93465589  0.68831783  0.43793895  1
  Zn  Zn162  1  0.93304340  0.69082915  0.93587821  1
  Zn  Zn163  1  0.04967411  0.29793650  0.03134117  1
  Zn  Zn164  1  0.06737405  0.32647308  0.55638096  1
  Zn  Zn165  1  0.06491594  0.81049681  0.06211655  1
  Zn  Zn166  1  0.06029030  0.81501411  0.56135408  1
  Zn  Zn167  1  0.56038503  0.31030019  0.06278734  1
  Zn  Zn168  1  0.56727863  0.31723004  0.56314206  1
  Zn  Zn169  1  0.56708313  0.80631365  0.06144089  1
  Zn  Zn170  1  0.56725148  0.81604734  0.56479324  1
  O  O171  1  0.12066796  0.11611418  0.12289439  1
  O  O172  1  0.15787294  0.12423005  0.62686115  1
  O  O173  1  0.11981989  0.62319586  0.11893600  1
  O  O174  1  0.11804799  0.63357948  0.61513216  1
  O  O175  1  0.61817729  0.11707035  0.11839906  1
  O  O176  1  0.63265599  0.10970688  0.61647422  1
  O  O177  1  0.62341425  0.62253274  0.11034133  1
  O  O178  1  0.63245487  0.61460982  0.61296743  1
  O  O179  1  0.37971457  0.38621018  0.37832512  1
  O  O180  1  0.37816355  0.38075584  0.87940564  1
  O  O181  1  0.38132707  0.88176638  0.37401724  1
  O  O182  1  0.37146650  0.89168413  0.86654106  1
  O  O183  1  0.87084951  0.38407859  0.38476832  1
  O  O184  1  0.86611847  0.37957174  0.89008326  1
  O  O185  1  0.87724849  0.89061566  0.36983772  1
  O  O186  1  0.88266273  0.87033696  0.88171546  1
  O  O187  1  0.25418047  0.00585579  0.37166537  1
  O  O188  1  0.26871277  0.00857896  0.87999241  1
  O  O189  1  0.26344525  0.50853568  0.37887425  1
  O  O190  1  0.26361313  0.50474278  0.87406555  1
  O  O191  1  0.76188844  0.00109904  0.37243681  1
  O  O192  1  0.74818133  0.01279722  0.87931971  1
  O  O193  1  0.76154824  0.50417187  0.36476315  1
  O  O194  1  0.75399204  0.51695475  0.87759842  1
  O  O195  1  0.24825711  0.48443282  0.11610041  1
  O  O196  1  0.25347802  0.48558938  0.62207119  1
  O  O197  1  0.24531501  0.99287281  0.13136828  1
  O  O198  1  0.25478004  0.98429745  0.62421415  1
  O  O199  1  0.75292200  0.50289568  0.14014298  1
  O  O200  1  0.74231555  0.49119776  0.61733497  1
  O  O201  1  0.73937087  0.98916731  0.12457612  1
  O  O202  1  0.74440467  0.99179693  0.62820436  1
  O  O203  1  0.00367410  0.36277017  0.23867605  1
  O  O204  1  0.00512887  0.38003034  0.74875566  1
  O  O205  1  0.00173280  0.86152582  0.24854807  1
  O  O206  1  0.00886049  0.86968729  0.76029966  1
  O  O207  1  0.50602956  0.37239645  0.25590482  1
  O  O208  1  0.50374970  0.36357038  0.75581342  1
  O  O209  1  0.49955911  0.86044041  0.25614676  1
  O  O210  1  0.50999290  0.85801661  0.75094751  1
  O  O211  1  0.49522839  0.12988366  0.24814464  1
  O  O212  1  0.50501586  0.14076429  0.75088262  1
  O  O213  1  0.49114016  0.63470541  0.25138430  1
  O  O214  1  0.49451526  0.63710309  0.75246168  1
  O  O215  1  0.98907857  0.13292052  0.23897855  1
  O  O216  1  1.02357966  0.14154697  0.77141545  1
  O  O217  1  0.99398559  0.63336664  0.24441303  1
  O  O218  1  0.99591943  0.62251660  0.73676093  1
  O  O219  1  0.36718820  0.25468693  0.00313051  1
  O  O220  1  0.36255689  0.26688719  0.48085403  1
  O  O221  1  0.37278665  0.74260018  0.01502144  1
  O  O222  1  0.37115250  0.74667371  0.50640100  1
  O  O223  1  0.86063078  0.25837830  0.00497458  1
  O  O224  1  0.86832039  0.25767828  0.49507505  1
  O  O225  1  0.86324629  0.76154313  -0.00242539  1
  O  O226  1  0.86534489  0.74403811  0.51343609  1
  O  O227  1  0.13172321  0.25428999  0.48552503  1
  O  O228  1  0.14417988  0.23284946  1.01085608  1
  O  O229  1  0.12859835  0.74086797  0.49196503  1
  O  O230  1  0.13423801  0.74403572  0.99221189  1
  O  O231  1  0.62829708  0.24430867  0.49283882  1
  O  O232  1  0.62663376  0.24191365  0.99374637  1
  O  O233  1  0.63486458  0.74129326  0.50937271  1
  O  O234  1  0.63304347  0.73796479  0.99728961  1
  O  O235  1  0.49798541  0.24154908  0.13313014  1
  O  O236  1  0.50414469  0.25426326  0.63532476  1
  O  O237  1  0.49509930  0.74802872  0.13518218  1
  O  O238  1  0.48879542  0.75461643  0.62784692  1
  O  O239  1  0.99753448  0.23866388  0.12770478  1
  O  O240  1  1.02168916  0.23636151  0.60826141  1
  O  O241  1  1.00724845  0.73804766  0.13341369  1
  O  O242  1  0.98979459  0.74121096  0.61687251  1
  O  O243  1  0.00933971  0.24451830  0.36114412  1
  O  O244  1  0.00997921  0.26164667  0.92534868  1
  O  O245  1  0.00691902  0.75103569  0.36897449  1
  O  O246  1  0.01237716  0.75792672  0.88316202  1
  O  O247  1  0.51497840  0.25919379  0.36942277  1
  O  O248  1  0.50691418  0.25547043  0.87496340  1
  O  O249  1  0.49658351  0.75814510  0.36157714  1
  O  O250  1  0.49805245  0.74831734  0.86542376  1
  O  O251  1  0.24919272  0.14159597  0.48031357  1
  O  O252  1  0.24952574  0.12932082  0.99892112  1
  O  O253  1  0.24198301  0.62958440  0.49556766  1
  O  O254  1  0.24679795  0.63009042  0.99418474  1
  O  O255  1  0.73943038  0.13418502  0.49649054  1
  O  O256  1  0.73712778  0.12881766  0.99626044  1
  O  O257  1  0.74368729  0.63504215  0.49730711  1
  O  O258  1  0.74510781  0.63065587  0.99247502  1
  O  O259  1  0.25332219  0.36507834  0.00298401  1
  O  O260  1  0.25551059  0.37680923  0.50139989  1
  O  O261  1  0.24778928  0.86847058  0.01333498  1
  O  O262  1  0.25128757  0.86542675  0.50685234  1
  O  O263  1  0.74994711  0.36774780  0.00191660  1
  O  O264  1  0.75842088  0.37065672  0.50300687  1
  O  O265  1  0.75583315  0.86616480  0.00464036  1
  O  O266  1  0.74432028  0.86817700  0.51487583  1
  O  O267  1  0.11583968  0.48626813  0.25126909  1
  O  O268  1  0.12908682  0.48716582  0.75054511  1
  O  O269  1  0.13244957  0.99884593  0.24326103  1
  O  O270  1  0.12390571  0.97837988  0.76114767  1
  O  O271  1  0.63265504  0.49330605  0.25785540  1
  O  O272  1  0.61714052  0.49953102  0.73528137  1
  O  O273  1  0.62564990  1.00608888  0.23617137  1
  O  O274  1  0.62303781  0.99159020  0.74512640  1
  O  O275  1  0.37074237  0.00441307  0.25998139  1
  O  O276  1  0.39275677  0.00349318  0.75772668  1
  O  O277  1  0.38272912  0.51021663  0.25979389  1
  O  O278  1  0.37938435  0.50751324  0.75520991  1
  O  O279  1  0.87293169  0.00737139  0.25597673  1
  O  O280  1  0.87937228  0.00990159  0.75947188  1
  O  O281  1  0.87122452  0.50585918  0.25543425  1
  O  O282  1  0.87739731  0.51564613  0.74733151  1
  O  O283  1  0.12924488  0.36455019  0.36246381  1
  O  O284  1  0.11737047  0.38678747  0.86820540  1
  O  O285  1  0.12517871  0.86154393  0.37319972  1
  O  O286  1  0.12234262  0.86521035  0.87316437  1
  O  O287  1  0.62196968  0.37055510  0.36745767  1
  O  O288  1  0.62050010  0.36682915  0.87236033  1
  O  O289  1  0.61521271  0.88325114  0.37499143  1
  O  O290  1  0.63343261  0.87920293  0.86215613  1
  O  O291  1  0.38150369  0.12330363  0.13742562  1
  O  O292  1  0.37154881  0.12815555  0.59695864  1
  O  O293  1  0.37814243  0.63001030  0.13312597  1
  O  O294  1  0.37100455  0.63036787  0.63638068  1
  O  O295  1  0.88193140  0.12216685  0.12739132  1
  O  O296  1  0.86065498  0.13645499  0.63061747  1
  O  O297  1  0.88233987  0.62326431  0.13777008  1
  O  O298  1  0.88153732  0.63092780  0.63008045  1
  O  O299  1  0.25476256  0.25966278  0.11878095  1
  O  O300  1  0.25110836  0.26931681  0.60268264  1
  O  O301  1  0.25770364  0.75679740  0.12153606  1
  O  O302  1  0.26181146  0.75445404  0.61859514  1
  O  O303  1  0.74526055  0.25004413  0.11201923  1
  O  O304  1  0.73941139  0.26399352  0.60684998  1
  O  O305  1  0.74574873  0.75691474  0.11011567  1
  O  O306  1  0.75634534  0.75740404  0.61834455  1
  O  O307  1  0.23966329  0.24539595  0.37401238  1
  O  O308  1  0.25916631  0.23435553  0.88389856  1
  O  O309  1  0.24472244  0.74456447  0.38051695  1
  O  O310  1  0.24828147  0.74454026  0.88192719  1
  O  O311  1  0.73997906  0.25247435  0.38398838  1
  O  O312  1  0.74211819  0.23959380  0.88592810  1
  O  O313  1  0.75548320  0.75394748  0.39077919  1
  O  O314  1  0.75252272  0.73678629  0.88376122  1
  O  O315  1  0.01174876  0.11947249  0.01360801  1
  O  O316  1  -0.00108107  0.10611200  0.48962656  1
  O  O317  1  0.00272922  0.62475059  0.00793709  1
  O  O318  1  0.00678283  0.62223737  0.50585706  1
  O  O319  1  0.50797464  0.12159818  0.00636456  1
  O  O320  1  0.51541478  0.11551510  0.49226106  1
  O  O321  1  0.50909303  0.61558860  -0.00041668  1
  O  O322  1  0.50815525  0.61711241  0.49766114  1
  O  O323  1  0.49389385  0.38154190  0.49381675  1
  O  O324  1  0.49540173  0.38026830  0.99414867  1
  O  O325  1  0.50068862  0.88040973  0.49161314  1
  O  O326  1  0.50357792  0.88439108  1.00059589  1
  O  O327  1  0.99117846  0.38914544  0.50002728  1
  O  O328  1  0.98811243  0.39352951  1.01338945  1
  O  O329  1  1.00347081  0.89112636  0.49720110  1
  O  O330  1  0.98486763  0.86488946  0.99904256  1
  O  O331  1  0.49239282  0.49670151  0.38483757  1
  O  O332  1  0.49110141  0.49319789  0.88054882  1
  O  O333  1  0.49393893  0.99128855  0.37766194  1
  O  O334  1  0.48940578  1.00477977  0.88835816  1
  O  O335  1  0.98524910  0.50921633  0.38406678  1
  O  O336  1  0.99376357  0.51325912  0.88888061  1
  O  O337  1  0.98880690  0.99635807  0.37228034  1
  O  O338  1  1.00078468  0.97839270  0.88629119  1
  O  O339  1  0.01317299  0.00455422  0.13258970  1
  O  O340  1  -0.00243924  -0.00018682  0.61398319  1
  O  O341  1  0.00231009  0.51608251  0.11873888  1
  O  O342  1  -0.00524798  0.51347741  0.60804352  1
  O  O343  1  0.50357233  0.00055895  0.11616892  1
  O  O344  1  0.50512502  -0.00080379  0.62082400  1
  O  O345  1  0.49394776  0.50005580  0.11064832  1
  O  O346  1  0.50906241  0.49336208  0.61166955  1
  O  O347  1  0.23986211  0.37033801  0.23958851  1
  O  O348  1  0.25941373  0.37776029  0.73361603  1
  O  O349  1  0.24758271  0.87937273  0.23947589  1
  O  O350  1  0.24173016  0.86672476  0.73909706  1
  O  O351  1  0.74157595  0.38429345  0.24849663  1
  O  O352  1  0.75240625  0.37009171  0.73555107  1
  O  O353  1  0.75416994  0.87272880  0.23412691  1
  O  O354  1  0.74342710  0.87458988  0.74198444  1
  O  O355  1  0.25689725  0.12201845  0.25711084  1
  O  O356  1  0.25175326  0.12194004  0.76683913  1
  O  O357  1  0.26308956  0.63048626  0.25530698  1
  O  O358  1  0.26041639  0.62306872  0.75621658  1
  O  O359  1  0.76298961  0.12511753  0.24803087  1
  O  O360  1  0.73708493  0.11933190  0.77146698  1
  O  O361  1  0.75624360  0.62240922  0.25119883  1
  O  O362  1  0.75348265  0.63021322  0.76073068  1
  O  O363  1  0.36735973  0.11507835  0.37166008  1
  O  O364  1  0.36721927  0.11397611  0.87956603  1
  O  O365  1  0.37125210  0.61969383  0.36802070  1
  O  O366  1  0.37332807  0.61685973  0.86617850  1
  O  O367  1  0.87229553  0.11491012  0.36409792  1
  O  O368  1  0.85906808  0.12209984  0.88698562  1
  O  O369  1  0.87223178  0.61955277  0.36296097  1
  O  O370  1  0.86541637  0.62641034  0.86507255  1
  O  O371  1  0.13254677  0.37630336  0.13209599  1
  O  O372  1  0.13838513  0.37769769  0.63279307  1
  O  O373  1  0.13178833  0.88224831  0.12629008  1
  O  O374  1  0.13483271  0.86223447  0.63612096  1
  O  O375  1  0.62365890  0.37175188  0.13955257  1
  O  O376  1  0.63606420  0.38654033  0.62468074  1
  O  O377  1  0.63414623  0.88153829  0.11868326  1
  O  O378  1  0.63197547  0.88577272  0.63379228  1
  O  O379  1  0.11642145  0.25843914  0.25130496  1
  O  O380  1  0.13336924  0.27701384  0.76196492  1
  O  O381  1  0.11743251  0.74834653  0.25914333  1
  O  O382  1  0.13149361  0.75410492  0.76487474  1
  O  O383  1  0.62248348  0.25691022  0.25696343  1
  O  O384  1  0.61828572  0.25197202  0.76346042  1
  O  O385  1  0.61086315  0.74010270  0.24739051  1
  O  O386  1  0.61285632  0.75427171  0.74614625  1
  O  O387  1  0.38368220  0.24421784  0.25347750  1
  O  O388  1  0.39125779  0.25094658  0.74902385  1
  O  O389  1  0.38197191  0.74251112  0.24005604  1
  O  O390  1  0.38730128  0.74287122  0.74462667  1
  O  O391  1  0.88062365  0.24487060  0.24778068  1
  O  O392  1  0.86559005  0.23712137  0.74090967  1
  O  O393  1  0.88414317  0.74163221  0.25510048  1
  O  O394  1  0.87067108  0.73659303  0.73597571  1
  O  O395  1  0.38397016  0.49649006  0.49265887  1
  O  O396  1  0.38233973  0.49448720  0.99057610  1
  O  O397  1  0.38402608  0.99559534  0.48510980  1
  O  O398  1  0.38934700  0.99817203  0.99695735  1
  O  O399  1  0.87868673  0.49617587  0.49127591  1
  O  O400  1  0.88043411  0.49566119  0.99916420  1
  O  O401  1  0.88044352  1.00356226  0.48568445  1
  O  O402  1  0.86699992  0.97905774  0.99606192  1
  O  O403  1  0.13672795  0.00954588  0.01091052  1
  O  O404  1  0.11407190  0.00390535  0.50078079  1
  O  O405  1  0.11635631  0.50958272  0.00092395  1
  O  O406  1  0.11528432  0.51356993  0.48856772  1
  O  O407  1  0.61328118  0.00625991  0.00764693  1
  O  O408  1  0.62053817  0.00673972  0.50624950  1
  O  O409  1  0.61489278  0.50719666  -0.00728573  1
  O  O410  1  0.61888517  0.50593752  0.50520433  1
  O  O411  1  0.36786985  0.37298548  0.11776204  1
  O  O412  1  0.37023904  0.38008106  0.61012607  1
  O  O413  1  0.36707030  0.86529541  0.13063671  1
  O  O414  1  0.36818131  0.86347933  0.62138554  1
  O  O415  1  0.86642162  0.37392529  0.11317547  1
  O  O416  1  0.87102965  0.37087338  0.61213454  1
  O  O417  1  0.86732414  0.87654179  0.11369083  1
  O  O418  1  0.86601787  0.86555994  0.63381501  1
  O  O419  1  0.13283643  0.13698660  0.36220265  1
  O  O420  1  0.14202960  0.12046136  0.88730895  1
  O  O421  1  0.12926731  0.63418632  0.37969991  1
  O  O422  1  0.13135402  0.63128315  0.87932240  1
  O  O423  1  0.62934567  0.13450746  0.37991876  1
  O  O424  1  0.62971393  0.13008744  0.88557819  1
  O  O425  1  0.62853971  0.62098255  0.39129518  1
  O  O426  1  0.63739114  0.62103656  0.88062930  1
