# generated using pymatgen
data_V85Zn86O256
_symmetry_space_group_name_H-M   'P 1'
_cell_length_a   16.93485298
_cell_length_b   16.93569863
_cell_length_c   16.93494354
_cell_angle_alpha   89.97965252
_cell_angle_beta   89.96045272
_cell_angle_gamma   89.96050073
_symmetry_Int_Tables_number   1
_chemical_formula_structural   V85Zn86O256
_chemical_formula_sum   'V85 Zn86 O256'
_cell_volume   4856.99958610
_cell_formula_units_Z   1
loop_
 _symmetry_equiv_pos_site_id
 _symmetry_equiv_pos_as_xyz
  1  'x, y, z'
loop_
 _atom_site_type_symbol
 _atom_site_label
 _atom_site_symmetry_multiplicity
 _atom_site_fract_x
 _atom_site_fract_y
 _atom_site_fract_z
 _atom_site_occupancy
  V  V0  1  0.00115684  0.49381476  0.49097922  1
  V  V1  1  0.49888794  0.12655979  0.12694535  1
  V  V2  1  0.74849732  0.25121001  -0.00036587  1
  V  V3  1  0.11736364  0.50197438  0.62653281  1
  V  V4  1  0.74802344  0.74900277  -0.00220454  1
  V  V5  1  0.74567168  0.38509611  0.12407578  1
  V  V6  1  0.49974197  0.87120589  0.87390441  1
  V  V7  1  0.87428002  0.50051535  0.87191436  1
  V  V8  1  0.50371471  0.49297400  0.50375692  1
  V  V9  1  0.12129638  0.62593545  0.50402911  1
  V  V10  1  0.80397916  0.91576956  0.56680988  1
  V  V11  1  0.87580179  0.25001051  0.12688988  1
  V  V12  1  -0.00050396  0.75129687  0.25211455  1
  V  V13  1  0.87544644  0.88052128  -0.00056880  1
  V  V14  1  0.87962737  0.74207421  0.62207083  1
  V  V15  1  0.11319963  0.10713188  0.51101816  1
  V  V16  1  0.49676620  0.25826873  0.25242727  1
  V  V17  1  0.75248806  -0.00281644  0.75220689  1
  V  V18  1  0.37080205  0.12624881  0.25777141  1
  V  V19  1  0.10138464  0.89668019  0.73112008  1
  V  V20  1  0.24878905  0.37389054  0.61898808  1
  V  V21  1  0.88218389  0.00759338  0.87598007  1
  V  V22  1  0.75228298  0.00158830  0.25060012  1
  V  V23  1  0.88187212  0.12312295  0.25377944  1
  V  V24  1  0.00969230  0.37385094  0.87122947  1
  V  V25  1  0.37674243  0.62726603  0.73348361  1
  V  V26  1  0.75106442  0.12771276  0.86860679  1
  V  V27  1  0.62548109  0.00275673  0.12610749  1
  V  V28  1  0.87397631  0.37751897  -0.00134880  1
  V  V29  1  0.39041745  0.74608132  0.13077296  1
  V  V30  1  0.37967454  0.25038449  0.62409281  1
  V  V31  1  0.12384046  0.87569105  0.25214196  1
  V  V32  1  0.61583085  0.61608139  0.01659835  1
  V  V33  1  0.62083856  0.25798009  0.37521827  1
  V  V34  1  0.37622668  0.37320240  0.49056940  1
  V  V35  1  0.48596877  0.48644349  -0.00188554  1
  V  V36  1  0.37669270  0.86957328  0.50372292  1
  V  V37  1  0.26153502  -0.00483554  0.74398547  1
  V  V38  1  0.00349007  0.26784901  0.26017173  1
  V  V39  1  0.25966665  0.62222879  0.87812814  1
  V  V40  1  0.75296424  0.74790970  0.50451088  1
  V  V41  1  0.37011863  0.25496003  0.12166611  1
  V  V42  1  -0.00611743  0.88069059  0.38902641  1
  V  V43  1  0.49795444  0.74452283  0.73547615  1
  V  V44  1  0.49974067  -0.00142923  0.00174625  1
  V  V45  1  0.25772597  0.86334444  0.62920918  1
  V  V46  1  0.50000298  0.12598054  0.63313632  1
  V  V47  1  0.87511820  0.62448315  0.24878270  1
  V  V48  1  0.75132878  0.62317410  0.37582857  1
  V  V49  1  0.62335741  0.74218894  0.87340169  1
  V  V50  1  0.61773301  0.62143903  0.51268788  1
  V  V51  1  0.62677932  -0.00236617  0.62368285  1
  V  V52  1  0.75221560  0.25445516  0.49989251  1
  V  V53  1  0.00638008  0.24055604  0.75046430  1
  V  V54  1  0.00872682  0.50371932  -0.00211691  1
  V  V55  1  0.39142483  0.62497424  0.25088437  1
  V  V56  1  0.61940229  0.87233295  0.24858991  1
  V  V57  1  0.12803170  0.74688686  0.87606114  1
  V  V58  1  0.23510254  0.24682149  -0.00339351  1
  V  V59  1  0.13405974  0.25127046  0.37992774  1
  V  V60  1  0.49681140  0.87737206  0.37257558  1
  V  V61  1  0.11861403  0.00299637  0.11684180  1
  V  V62  1  0.75060321  0.38006859  0.62226593  1
  V  V63  1  0.24768523  0.00390424  0.25434394  1
  V  V64  1  0.00225243  0.73943814  0.74798708  1
  V  V65  1  0.87915192  0.24159885  0.63308196  1
  V  V66  1  0.12807418  0.75224577  0.37784201  1
  V  V67  1  0.00256151  0.87439938  0.88191918  1
  V  V68  1  0.61969374  0.74721615  0.37262625  1
  V  V69  1  0.62834269  0.87215168  0.74536933  1
  V  V70  1  0.74968840  0.12681046  0.37343022  1
  V  V71  1  0.62317944  0.37755719  0.74679972  1
  V  V72  1  0.25388905  0.49975498  0.75285778  1
  V  V73  1  0.25211994  0.62096717  0.37193188  1
  V  V74  1  0.24648271  0.74053887  0.00814437  1
  V  V75  1  0.74571253  0.50354803  0.74547263  1
  V  V76  1  0.87447005  0.75189891  0.12365008  1
  V  V77  1  0.24368932  0.11746812  0.87532667  1
  V  V78  1  0.24851723  0.87024489  0.12575870  1
  V  V79  1  0.45456483  0.31172568  0.80730210  1
  V  V80  1  0.62129059  0.38339056  0.24704367  1
  V  V81  1  0.00747324  0.62864935  0.11816315  1
  V  V82  1  0.62222639  0.25509528  0.87259853  1
  V  V83  1  0.75053938  0.87709479  0.12567239  1
  V  V84  1  0.62156402  0.12744001  0.49978148  1
  Zn  Zn85  1  0.25130841  0.23032268  0.49773410  1
  Zn  Zn86  1  0.24737515  0.49416577  0.24607070  1
  Zn  Zn87  1  0.49590564  0.00202191  0.50020012  1
  Zn  Zn88  1  0.74489920  0.50391690  0.24646428  1
  Zn  Zn89  1  0.87915613  0.49203032  0.36885471  1
  Zn  Zn90  1  0.23760783  0.37433437  0.12802178  1
  Zn  Zn91  1  0.37512753  0.87156419  0.00192434  1
  Zn  Zn92  1  0.12697722  0.49690923  0.12845989  1
  Zn  Zn93  1  0.88412405  0.36693877  0.49366466  1
  Zn  Zn94  1  0.10820049  0.11792315  -0.01706235  1
  Zn  Zn95  1  0.38001589  0.00112004  0.87829683  1
  Zn  Zn96  1  0.12441857  0.37167798  0.74758917  1
  Zn  Zn97  1  0.37169207  0.37069861  -0.01622824  1
  Zn  Zn98  1  0.87924841  0.62020205  0.74663991  1
  Zn  Zn99  1  0.62431948  0.12783523  -0.00023135  1
  Zn  Zn100  1  0.37865768  0.12846226  0.75428775  1
  Zn  Zn101  1  0.36825435  0.00211253  0.37891123  1
  Zn  Zn102  1  -0.00227033  0.12276795  0.11914728  1
  Zn  Zn103  1  0.74845613  0.62284036  0.87576087  1
  Zn  Zn104  1  0.87579685  -0.00211385  0.39219608  1
  Zn  Zn105  1  0.25704574  0.74470271  0.50583860  1
  Zn  Zn106  1  0.37865001  0.49406367  0.37053196  1
  Zn  Zn107  1  0.18407234  0.18882283  0.18958385  1
  Zn  Zn108  1  0.18811404  0.18051714  0.68259479  1
  Zn  Zn109  1  0.18242354  0.66816422  0.19567085  1
  Zn  Zn110  1  0.18540293  0.68770427  0.69115024  1
  Zn  Zn111  1  0.68780392  0.19167780  0.18852888  1
  Zn  Zn112  1  0.68696703  0.19153057  0.68922705  1
  Zn  Zn113  1  0.68740786  0.68999796  0.18881146  1
  Zn  Zn114  1  0.69149430  0.68965200  0.68616254  1
  Zn  Zn115  1  0.30512029  0.31314635  0.31003578  1
  Zn  Zn116  1  0.28908966  0.30518363  0.81037434  1
  Zn  Zn117  1  0.31285844  0.80971263  0.31080964  1
  Zn  Zn118  1  0.31729989  0.80787747  0.81417005  1
  Zn  Zn119  1  0.81187561  0.31536524  0.31200124  1
  Zn  Zn120  1  0.81322317  0.31668336  0.81041872  1
  Zn  Zn121  1  0.81109840  0.81201863  0.31606080  1
  Zn  Zn122  1  0.81470245  0.81163694  0.81054424  1
  Zn  Zn123  1  0.18688324  0.43329101  0.43187084  1
  Zn  Zn124  1  0.18963285  0.43766094  0.94201221  1
  Zn  Zn125  1  0.18825504  0.93964036  0.44382995  1
  Zn  Zn126  1  0.19047678  0.93313335  0.93425007  1
  Zn  Zn127  1  0.68873068  0.43929840  0.43534320  1
  Zn  Zn128  1  0.68269521  0.43965174  0.93426374  1
  Zn  Zn129  1  0.68058073  0.94259954  0.43057878  1
  Zn  Zn130  1  0.68538358  0.93663959  0.93564321  1
  Zn  Zn131  1  0.31008638  0.06388350  0.06584364  1
  Zn  Zn132  1  0.30808249  0.05995998  0.56005987  1
  Zn  Zn133  1  0.31771521  0.56035245  0.06535643  1
  Zn  Zn134  1  0.30977743  0.55754596  0.55860572  1
  Zn  Zn135  1  0.81392041  0.06602564  0.05955322  1
  Zn  Zn136  1  0.81323509  0.08054425  0.56421774  1
  Zn  Zn137  1  0.81341562  0.56544675  0.05871022  1
  Zn  Zn138  1  0.81467886  0.56240251  0.56221956  1
  Zn  Zn139  1  0.43740842  0.44266958  0.17754879  1
  Zn  Zn140  1  0.43379091  0.44797458  0.67600534  1
  Zn  Zn141  1  0.43460856  0.93684149  0.18773401  1
  Zn  Zn142  1  0.44034040  0.93573251  0.68545033  1
  Zn  Zn143  1  0.93809790  0.44089292  0.18344627  1
  Zn  Zn144  1  0.93619920  0.43315882  0.68469472  1
  Zn  Zn145  1  0.93952920  0.93766554  0.19269889  1
  Zn  Zn146  1  0.93403697  0.93442001  0.69694304  1
  Zn  Zn147  1  0.06503634  0.06452288  0.32004359  1
  Zn  Zn148  1  0.06193800  0.05436795  0.79217671  1
  Zn  Zn149  1  0.06442604  0.56321996  0.31242904  1
  Zn  Zn150  1  0.06969451  0.56226835  0.81611950  1
  Zn  Zn151  1  0.56022718  0.06479315  0.31197978  1
  Zn  Zn152  1  0.56596695  0.06316605  0.81329632  1
  Zn  Zn153  1  0.56027102  0.55935016  0.32135110  1
  Zn  Zn154  1  0.55657773  0.55934092  0.81366750  1
  Zn  Zn155  1  0.43864043  0.18896848  0.43833175  1
  Zn  Zn156  1  0.43088005  0.18098317  0.94205678  1
  Zn  Zn157  1  0.43986821  0.68773893  0.43675628  1
  Zn  Zn158  1  0.43709947  0.68511510  0.93921415  1
  Zn  Zn159  1  0.94302440  0.18466534  0.43972059  1
  Zn  Zn160  1  0.93957724  0.18951554  0.93561207  1
  Zn  Zn161  1  0.93992281  0.68581703  0.43930989  1
  Zn  Zn162  1  0.93529937  0.68730518  0.93480692  1
  Zn  Zn163  1  0.05760512  0.31087741  0.06401083  1
  Zn  Zn164  1  0.06476546  0.30815579  0.56162106  1
  Zn  Zn165  1  0.06449270  0.81225958  0.06191283  1
  Zn  Zn166  1  0.06435184  0.81170122  0.56402886  1
  Zn  Zn167  1  0.55955831  0.31624209  0.06228289  1
  Zn  Zn168  1  0.56277088  0.31465810  0.56590249  1
  Zn  Zn169  1  0.56574459  0.81174434  0.05978282  1
  Zn  Zn170  1  0.56567787  0.81426002  0.55851796  1
  O  O171  1  0.12377378  0.10839057  0.12676567  1
  O  O172  1  0.12171293  0.12486202  0.61213178  1
  O  O173  1  0.10750626  0.63965540  0.11205964  1
  O  O174  1  0.13517170  0.61526324  0.61541205  1
  O  O175  1  0.61898728  0.12083095  0.12526851  1
  O  O176  1  0.61992288  0.12160696  0.62097426  1
  O  O177  1  0.62562711  0.63069279  0.11474867  1
  O  O178  1  0.63004329  0.62746794  0.61025699  1
  O  O179  1  0.37250461  0.36990443  0.38765760  1
  O  O180  1  0.38018220  0.35966300  0.86314491  1
  O  O181  1  0.38418523  0.87571751  0.37615112  1
  O  O182  1  0.39022952  0.87236024  0.87965396  1
  O  O183  1  0.86349091  0.38136107  0.38363045  1
  O  O184  1  0.88040363  0.38636667  0.87752378  1
  O  O185  1  0.88891640  0.87454913  0.37335112  1
  O  O186  1  0.88032370  0.88126216  0.88272893  1
  O  O187  1  0.24980561  -0.01138625  0.35787878  1
  O  O188  1  0.26221359  0.00078957  0.87296184  1
  O  O189  1  0.25548531  0.50797008  0.37294710  1
  O  O190  1  0.24304845  0.50925311  0.86545624  1
  O  O191  1  0.75286962  0.00766921  0.36832003  1
  O  O192  1  0.75308308  0.00779547  0.87001771  1
  O  O193  1  0.75051634  0.51488115  0.37226707  1
  O  O194  1  0.75763869  0.49897661  0.86547438  1
  O  O195  1  0.24702293  0.49684652  0.12291603  1
  O  O196  1  0.24282306  0.49103361  0.62993818  1
  O  O197  1  0.24293148  0.98995023  0.13308133  1
  O  O198  1  0.25713814  0.98841209  0.64038916  1
  O  O199  1  0.75561092  0.48846020  0.12525671  1
  O  O200  1  0.75413442  0.49241473  0.63165469  1
  O  O201  1  0.74496253  0.99590899  0.12871535  1
  O  O202  1  0.75074738  0.99512231  0.62987986  1
  O  O203  1  -0.00311390  0.36604202  0.24862723  1
  O  O204  1  0.00282295  0.37134139  0.75681086  1
  O  O205  1  0.00633917  0.86716804  0.25711946  1
  O  O206  1  -0.00366928  0.85599085  0.76775516  1
  O  O207  1  0.50417897  0.36516471  0.24203088  1
  O  O208  1  0.50475944  0.38102128  0.74335145  1
  O  O209  1  0.51211311  0.87991670  0.25470540  1
  O  O210  1  0.50625363  0.86652299  0.75679646  1
  O  O211  1  0.49420705  0.13457799  0.24382308  1
  O  O212  1  0.50091613  0.12187809  0.73770311  1
  O  O213  1  0.49046462  0.62865315  0.25859584  1
  O  O214  1  0.48528771  0.62780579  0.75178343  1
  O  O215  1  0.98762284  0.12519360  0.24760910  1
  O  O216  1  0.99716921  0.14251432  0.75739412  1
  O  O217  1  0.99113567  0.63304468  0.24178788  1
  O  O218  1  1.00159834  0.63529203  0.75674065  1
  O  O219  1  0.36322400  0.24735725  0.00777968  1
  O  O220  1  0.37110174  0.25427272  0.50698975  1
  O  O221  1  0.36855447  0.74868803  0.01530802  1
  O  O222  1  0.37433088  0.76367954  0.49295486  1
  O  O223  1  0.86879129  0.25744537  0.00793379  1
  O  O224  1  0.87094076  0.24808233  0.51252037  1
  O  O225  1  0.86767280  0.76077802  0.00126648  1
  O  O226  1  0.86729399  0.74643986  0.50706423  1
  O  O227  1  0.12809019  0.24534103  0.49145481  1
  O  O228  1  0.13303364  0.24085308  1.00348697  1
  O  O229  1  0.12829368  0.74234013  0.49517418  1
  O  O230  1  0.13569035  0.75690960  0.98949072  1
  O  O231  1  0.62821724  0.24789291  0.49232137  1
  O  O232  1  0.63063967  0.25117663  0.99132574  1
  O  O233  1  0.63168858  0.73981270  0.49384551  1
  O  O234  1  0.62878478  0.74207778  0.99217579  1
  O  O235  1  0.49240259  0.24411418  0.13076133  1
  O  O236  1  0.48832785  0.24357058  0.62128322  1
  O  O237  1  0.48820183  0.75587378  0.12389274  1
  O  O238  1  0.50781398  0.75253181  0.63689749  1
  O  O239  1  0.98790401  0.24882297  0.13625907  1
  O  O240  1  0.98768635  0.25992387  0.63713690  1
  O  O241  1  0.99146061  0.74881631  0.12918324  1
  O  O242  1  0.99248234  0.75565237  0.63539378  1
  O  O243  1  -0.00299786  0.25224725  0.36191882  1
  O  O244  1  -0.01045751  0.26188038  0.85938403  1
  O  O245  1  0.00953489  0.75585480  0.37247342  1
  O  O246  1  0.00930489  0.75269868  0.87364402  1
  O  O247  1  0.50857590  0.24671249  0.36466634  1
  O  O248  1  0.50578116  0.24464709  0.87341529  1
  O  O249  1  0.51319368  0.76118972  0.37888270  1
  O  O250  1  0.50635456  0.75454486  0.86931927  1
  O  O251  1  0.23240828  0.11792567  0.50216222  1
  O  O252  1  0.24530080  0.13015273  0.99338540  1
  O  O253  1  0.24442788  0.62550834  0.48908118  1
  O  O254  1  0.25599283  0.63415842  0.99417239  1
  O  O255  1  0.74073382  0.13539277  0.49421197  1
  O  O256  1  0.74711806  0.13234066  0.98828539  1
  O  O257  1  0.74273379  0.62930705  0.49402093  1
  O  O258  1  0.74090512  0.63352860  0.99806519  1
  O  O259  1  0.25226380  0.35713869  -0.00535656  1
  O  O260  1  0.25777717  0.37455604  0.50894585  1
  O  O261  1  0.25297349  0.86579397  0.01211871  1
  O  O262  1  0.25759670  0.87300267  0.51135554  1
  O  O263  1  0.75277366  0.37058944  0.00514213  1
  O  O264  1  0.74591786  0.36978009  0.50809410  1
  O  O265  1  0.75460944  0.86954536  0.00442823  1
  O  O266  1  0.74278956  0.86593617  0.49624964  1
  O  O267  1  0.13974287  0.54479382  0.23450805  1
  O  O268  1  0.13585466  0.50113468  0.74152863  1
  O  O269  1  0.12999761  0.99500003  0.24383288  1
  O  O270  1  0.15656403  0.98582406  0.76928244  1
  O  O271  1  0.62268841  0.48717425  0.25555168  1
  O  O272  1  0.63123464  0.48826067  0.75627505  1
  O  O273  1  0.63163248  0.99453993  0.24550676  1
  O  O274  1  0.63560038  0.99586407  0.74465914  1
  O  O275  1  0.36678650  0.00899619  0.24866292  1
  O  O276  1  0.37116226  0.00012656  0.75448587  1
  O  O277  1  0.37833940  0.51503818  0.24957952  1
  O  O278  1  0.36320903  0.51115539  0.74496139  1
  O  O279  1  0.86756826  0.00812353  0.24923933  1
  O  O280  1  0.86050678  -0.00407986  0.76159487  1
  O  O281  1  0.87403642  0.51443415  0.24878554  1
  O  O282  1  0.86779320  0.49976383  0.75459380  1
  O  O283  1  0.12371332  0.35324520  0.37997825  1
  O  O284  1  0.11252925  0.37821319  0.87341721  1
  O  O285  1  0.11760964  0.86843255  0.37260567  1
  O  O286  1  0.11653488  0.86829592  0.86779724  1
  O  O287  1  0.63041687  0.36404808  0.36613094  1
  O  O288  1  0.62789634  0.36268862  0.86718234  1
  O  O289  1  0.61846642  0.86885346  0.36729493  1
  O  O290  1  0.61637562  0.86430506  0.87032678  1
  O  O291  1  0.37963589  0.13379220  0.13388420  1
  O  O292  1  0.38233216  0.13241089  0.62715115  1
  O  O293  1  0.37516812  0.63695552  0.13808674  1
  O  O294  1  0.36720814  0.62573872  0.63493216  1
  O  O295  1  0.87235935  0.13390100  0.13367871  1
  O  O296  1  0.87395729  0.14190974  0.63504876  1
  O  O297  1  0.87834011  0.63372394  0.13083060  1
  O  O298  1  0.87352179  0.63768103  0.62776072  1
  O  O299  1  0.25313840  0.24598171  0.11332850  1
  O  O300  1  0.26227480  0.25681532  0.62725126  1
  O  O301  1  0.24845989  0.75314100  0.12164662  1
  O  O302  1  0.24998545  0.75958562  0.62672528  1
  O  O303  1  0.76034602  0.25737934  0.12223172  1
  O  O304  1  0.75993457  0.25607100  0.62235393  1
  O  O305  1  0.75528113  0.75880388  0.11914718  1
  O  O306  1  0.75728730  0.75227344  0.61259099  1
  O  O307  1  0.23799729  0.24441741  0.37539008  1
  O  O308  1  0.24570473  0.23527148  0.88718369  1
  O  O309  1  0.23876004  0.74742148  0.37747924  1
  O  O310  1  0.24616495  0.74680639  0.88462595  1
  O  O311  1  0.74149999  0.24401008  0.37881804  1
  O  O312  1  0.74505287  0.24505533  0.87651047  1
  O  O313  1  0.74383333  0.74246611  0.38492857  1
  O  O314  1  0.74127929  0.74925104  0.87942958  1
  O  O315  1  -0.00162619  0.12682247  0.00495125  1
  O  O316  1  0.01056487  0.12366406  0.50396481  1
  O  O317  1  -0.01242249  0.61592536  0.00735136  1
  O  O318  1  0.01510832  0.61660312  0.49741825  1
  O  O319  1  0.50244219  0.11600817  0.00784810  1
  O  O320  1  0.50599257  0.12442542  0.51001395  1
  O  O321  1  0.51303227  0.62306758  -0.00052750  1
  O  O322  1  0.51408788  0.62301858  0.49818920  1
  O  O323  1  0.49384616  0.38387955  0.50463472  1
  O  O324  1  0.49187354  0.37962759  0.99669947  1
  O  O325  1  0.49536686  0.87742649  0.49068688  1
  O  O326  1  0.50135062  0.88092859  0.99252829  1
  O  O327  1  1.00201317  0.39078079  0.50473104  1
  O  O328  1  0.99139655  0.38177822  0.99023033  1
  O  O329  1  1.00208622  0.87112820  0.48758907  1
  O  O330  1  0.99119477  0.86974591  0.99009248  1
  O  O331  1  0.49329712  0.50536103  0.39497574  1
  O  O332  1  0.51239722  0.50165418  0.89917866  1
  O  O333  1  0.50119311  0.98837834  0.37617656  1
  O  O334  1  0.50305431  0.99211447  0.88330292  1
  O  O335  1  1.00164764  0.50363470  0.38663628  1
  O  O336  1  0.99376705  0.49541965  0.87783539  1
  O  O337  1  0.99553266  0.98427044  0.37071514  1
  O  O338  1  0.98998895  0.98962632  0.86786961  1
  O  O339  1  0.01576609  -0.00376791  0.12825163  1
  O  O340  1  0.03558924  -0.02133619  0.69626827  1
  O  O341  1  -0.00099578  0.51183938  0.11479130  1
  O  O342  1  0.01345328  0.49763485  0.61985492  1
  O  O343  1  0.50550266  0.00416613  0.12071866  1
  O  O344  1  0.50803297  0.00848710  0.62299428  1
  O  O345  1  0.50089295  0.49834745  0.10073211  1
  O  O346  1  0.49757611  0.50865938  0.60461579  1
  O  O347  1  0.25232988  0.38006449  0.24266110  1
  O  O348  1  0.24618325  0.38329538  0.73962334  1
  O  O349  1  0.24392829  0.87718631  0.24006671  1
  O  O350  1  0.25963881  0.87980239  0.74404288  1
  O  O351  1  0.74001164  0.37683521  0.24033416  1
  O  O352  1  0.74360153  0.38500552  0.74326315  1
  O  O353  1  0.74190890  0.88056908  0.24658340  1
  O  O354  1  0.74110727  0.88423357  0.75745827  1
  O  O355  1  0.25853512  0.11621341  0.24386118  1
  O  O356  1  0.25482246  0.11167168  0.75388090  1
  O  O357  1  0.26653829  0.63227152  0.26523156  1
  O  O358  1  0.25985031  0.62092396  0.75536492  1
  O  O359  1  0.75937987  0.12373328  0.25474649  1
  O  O360  1  0.74407872  0.11777105  0.76169133  1
  O  O361  1  0.75648648  0.62613581  0.25708711  1
  O  O362  1  0.74886093  0.61281294  0.75072482  1
  O  O363  1  0.38141572  0.12222534  0.36189882  1
  O  O364  1  0.36351457  0.12131003  0.87187482  1
  O  O365  1  0.37065445  0.62832517  0.36580245  1
  O  O366  1  0.36286999  0.63100951  0.86714238  1
  O  O367  1  0.86960314  0.12083031  0.37009731  1
  O  O368  1  0.86611531  0.11433157  0.87926880  1
  O  O369  1  0.86844540  0.62549262  0.36669021  1
  O  O370  1  0.87118687  0.61223610  0.87204623  1
  O  O371  1  0.12292967  0.38392862  0.11263965  1
  O  O372  1  0.13414302  0.38201939  0.62364303  1
  O  O373  1  0.13065294  0.88194817  0.13067772  1
  O  O374  1  0.13625125  0.86991926  0.63521229  1
  O  O375  1  0.63485875  0.36641053  0.13428688  1
  O  O376  1  0.63870060  0.36887039  0.63371262  1
  O  O377  1  0.62982394  0.87925658  0.13214925  1
  O  O378  1  0.62243769  0.88534886  0.63090253  1
  O  O379  1  0.10929057  0.24238017  0.25999667  1
  O  O380  1  0.11105920  0.25099379  0.74255851  1
  O  O381  1  0.11948097  0.75300957  0.25935515  1
  O  O382  1  0.11720527  0.75989114  0.75518621  1
  O  O383  1  0.61629704  0.25770963  0.25630614  1
  O  O384  1  0.62579810  0.26434952  0.75708847  1
  O  O385  1  0.63212439  0.76063283  0.26065505  1
  O  O386  1  0.62037437  0.75095842  0.75620739  1
  O  O387  1  0.38077066  0.24404145  0.24548437  1
  O  O388  1  0.38153977  0.25362016  0.74541429  1
  O  O389  1  0.37597160  0.74286480  0.23863059  1
  O  O390  1  0.38354740  0.73643875  0.75027252  1
  O  O391  1  0.88233587  0.24438086  0.24528801  1
  O  O392  1  0.88173791  0.25929658  0.73817920  1
  O  O393  1  0.87784538  0.74247161  0.24600625  1
  O  O394  1  0.88174025  0.74499114  0.74335849  1
  O  O395  1  0.38232259  0.48953607  0.49871678  1
  O  O396  1  0.38068583  0.49322066  0.99413246  1
  O  O397  1  0.37610376  0.98765028  0.49619480  1
  O  O398  1  0.38867982  0.99570652  1.00540909  1
  O  O399  1  0.89547567  0.50642989  0.50144698  1
  O  O400  1  0.87957984  0.49518217  0.99057652  1
  O  O401  1  0.85817267  0.98916822  0.51061533  1
  O  O402  1  0.86810112  0.98799857  0.99176688  1
  O  O403  1  0.13168258  -0.00283861  0.01425893  1
  O  O404  1  0.11764722  0.00595087  0.49968834  1
  O  O405  1  0.11022742  0.50544681  -0.00701127  1
  O  O406  1  0.11817041  0.50492188  0.50386113  1
  O  O407  1  0.61564526  0.00077984  0.00645085  1
  O  O408  1  0.62507743  0.00941296  0.50670984  1
  O  O409  1  0.63002074  0.51509793  0.00189858  1
  O  O410  1  0.61731343  0.51155283  0.49510263  1
  O  O411  1  0.37371420  0.35923907  0.12264819  1
  O  O412  1  0.36895214  0.36826575  0.61657757  1
  O  O413  1  0.36648826  0.86201533  0.12821551  1
  O  O414  1  0.37123915  0.87491436  0.61625937  1
  O  O415  1  0.86784181  0.36880695  0.12056258  1
  O  O416  1  0.86343103  0.36869862  0.61849192  1
  O  O417  1  0.87174244  0.87304745  0.11807837  1
  O  O418  1  0.87239568  0.86580747  0.62942387  1
  O  O419  1  0.11389264  0.13943963  0.38789758  1
  O  O420  1  0.13846746  0.10940256  0.86980197  1
  O  O421  1  0.13307219  0.63428260  0.38279766  1
  O  O422  1  0.13956876  0.64028719  0.86771230  1
  O  O423  1  0.62833429  0.13505030  0.37850603  1
  O  O424  1  0.63169543  0.13764393  0.87511844  1
  O  O425  1  0.63249129  0.63323390  0.37968941  1
  O  O426  1  0.62562342  0.63555021  0.87676957  1
