# generated using pymatgen
data_V85Zn86O256
_symmetry_space_group_name_H-M   'P 1'
_cell_length_a   16.97612011
_cell_length_b   16.95498811
_cell_length_c   16.96338406
_cell_angle_alpha   89.98227610
_cell_angle_beta   90.04257676
_cell_angle_gamma   89.95694903
_symmetry_Int_Tables_number   1
_chemical_formula_structural   V85Zn86O256
_chemical_formula_sum   'V85 Zn86 O256'
_cell_volume   4882.56642145
_cell_formula_units_Z   1
loop_
 _symmetry_equiv_pos_site_id
 _symmetry_equiv_pos_as_xyz
  1  'x, y, z'
loop_
 _atom_site_type_symbol
 _atom_site_label
 _atom_site_symmetry_multiplicity
 _atom_site_fract_x
 _atom_site_fract_y
 _atom_site_fract_z
 _atom_site_occupancy
  V  V0  1  0.00198654  0.12890011  0.13223641  1
  V  V1  1  0.50034590  0.37769820  0.37523190  1
  V  V2  1  0.62835781  0.75306841  0.37505513  1
  V  V3  1  0.51121635  0.75111839  0.24686697  1
  V  V4  1  0.86114945  0.87548815  -0.00115404  1
  V  V5  1  0.37795407  0.12350480  0.25476850  1
  V  V6  1  0.00148153  0.73670812  0.74294027  1
  V  V7  1  0.50789484  0.25094893  0.74645369  1
  V  V8  1  0.62732612  0.49643336  0.63302526  1
  V  V9  1  0.24757839  0.25067541  0.49793053  1
  V  V10  1  0.36639987  0.38072618  0.00626095  1
  V  V11  1  0.12493876  0.48481283  0.12708628  1
  V  V12  1  0.75632934  0.37943150  0.13121765  1
  V  V13  1  0.24357260  0.49847161  0.74453425  1
  V  V14  1  0.87962963  0.37700480  0.49866829  1
  V  V15  1  0.88061199  0.13664012  0.75418967  1
  V  V16  1  0.75191169  0.51707078  0.25264378  1
  V  V17  1  0.87480108  0.87233131  0.50164605  1
  V  V18  1  0.87945730  0.74322782  0.11485322  1
  V  V19  1  0.37045271  0.49905762  0.87869601  1
  V  V20  1  0.62478676  -0.00339354  0.63089399  1
  V  V21  1  0.50698549  0.60705265  0.12164638  1
  V  V22  1  0.75086248  0.12260804  0.37556137  1
  V  V23  1  0.74867329  0.37548047  0.62223555  1
  V  V24  1  0.88051428  0.13081031  0.25436070  1
  V  V25  1  0.62900494  0.62372859  0.49656292  1
  V  V26  1  0.25574813  -0.00076211  0.25877455  1
  V  V27  1  0.12669737  0.63097782  0.51195966  1
  V  V28  1  0.49863393  0.12225945  0.62220265  1
  V  V29  1  0.87634573  -0.00232252  0.37327442  1
  V  V30  1  0.11788485  0.25127011  0.86747824  1
  V  V31  1  0.63082147  0.38412636  0.25263445  1
  V  V32  1  0.75777448  0.00286636  0.75686750  1
  V  V33  1  0.49046809  0.37068117  0.87540875  1
  V  V34  1  0.24219985  0.26056930  0.00244901  1
  V  V35  1  0.12138393  0.25136442  0.36350533  1
  V  V36  1  0.89287719  0.63377192  0.24861139  1
  V  V37  1  0.50052219  0.50085405  0.50010999  1
  V  V38  1  0.88309104  0.38402708  -0.00108883  1
  V  V39  1  -0.00193551  0.00289227  0.50264249  1
  V  V40  1  0.37335604  0.62784130  0.25004275  1
  V  V41  1  0.12596857  0.74941623  0.87788119  1
  V  V42  1  0.50222486  0.25476646  0.23694718  1
  V  V43  1  0.86907803  0.60183375  0.75420343  1
  V  V44  1  0.25437485  0.87799502  0.12466244  1
  V  V45  1  0.76077842  0.24444160  0.00005909  1
  V  V46  1  0.49819663  0.87539507  0.36931320  1
  V  V47  1  0.50085229  0.75355790  0.75841595  1
  V  V48  1  0.37374955  0.62437853  0.75097960  1
  V  V49  1  0.49607839  -0.00139271  0.48976689  1
  V  V50  1  0.37315729  0.25007128  0.62284047  1
  V  V51  1  0.38433679  0.75386640  0.12052451  1
  V  V52  1  0.24982585  0.87353710  0.62158369  1
  V  V53  1  0.62396887  0.24807103  0.37352254  1
  V  V54  1  0.37461916  0.37592195  0.49946147  1
  V  V55  1  0.12340816  0.87544084  0.74939732  1
  V  V56  1  0.36669067  0.25294892  0.12812083  1
  V  V57  1  0.25857589  0.75450149  -0.00183713  1
  V  V58  1  0.74789412  0.87201407  0.62728036  1
  V  V59  1  0.75186282  0.74341208  0.50031672  1
  V  V60  1  0.49501401  0.89761106  0.87481921  1
  V  V61  1  -0.00139787  0.86602146  0.37087650  1
  V  V62  1  0.12261015  0.12340652  -0.00005609  1
  V  V63  1  0.37049358  0.87547675  0.49442718  1
  V  V64  1  0.87567673  0.50803895  0.37451767  1
  V  V65  1  0.25018978  0.00055589  0.75007265  1
  V  V66  1  0.74250467  -0.00773652  0.24926703  1
  V  V67  1  0.00556551  0.37514294  0.36281937  1
  V  V68  1  0.62475614  0.12188658  0.49743275  1
  V  V69  1  0.50095062  0.62695420  0.62390063  1
  V  V70  1  0.12520015  -0.00167375  0.12642111  1
  V  V71  1  -0.00760346  -0.00035978  -0.00114619  1
  V  V72  1  0.12123230  0.86987759  0.24922034  1
  V  V73  1  0.24680312  0.49002793  0.24858836  1
  V  V74  1  0.11927125  0.00216090  0.62528834  1
  V  V75  1  0.24690852  0.63394688  0.37715953  1
  V  V76  1  0.37128464  0.75032630  0.61890879  1
  V  V77  1  0.75098679  0.24895615  0.49662352  1
  V  V78  1  0.24861753  0.11874599  0.87715271  1
  V  V79  1  -0.00421244  0.87828050  0.87519882  1
  V  V80  1  0.37470250  0.12066657  0.75001911  1
  V  V81  1  0.12147694  0.12756138  0.50159918  1
  V  V82  1  0.12131252  0.63431240  0.01864592  1
  V  V83  1  0.00968256  0.50282631  0.51081821  1
  V  V84  1  0.58237687  0.22308419  0.92968079  1
  Zn  Zn85  1  0.74103452  0.86479941  0.13338921  1
  Zn  Zn86  1  0.64491489  0.37449735  0.77684357  1
  Zn  Zn87  1  0.12329139  0.74837040  0.37528683  1
  Zn  Zn88  1  0.25244064  0.62548099  0.87862315  1
  Zn  Zn89  1  0.50136143  0.03888492  0.02094707  1
  Zn  Zn90  1  0.74941299  0.12604474  0.88027797  1
  Zn  Zn91  1  0.88046457  0.23922558  0.61643439  1
  Zn  Zn92  1  0.72101651  0.53736931  0.82694554  1
  Zn  Zn93  1  0.88013486  0.73987736  0.62471856  1
  Zn  Zn94  1  0.25134695  0.12114811  0.37694740  1
  Zn  Zn95  1  0.11783339  0.38360161  0.73572299  1
  Zn  Zn96  1  0.37437140  0.90834460  -0.00895039  1
  Zn  Zn97  1  0.00479674  0.25007371  0.73072264  1
  Zn  Zn98  1  -0.00404306  0.51457897  0.00103095  1
  Zn  Zn99  1  0.63513939  0.00772936  0.09687172  1
  Zn  Zn100  1  0.37092703  0.50311089  0.37675053  1
  Zn  Zn101  1  -0.00231796  0.38504208  0.86778275  1
  Zn  Zn102  1  0.66023380  0.82753139  0.79123371  1
  Zn  Zn103  1  0.88472231  0.25492149  0.13340633  1
  Zn  Zn104  1  0.24548117  0.38341329  0.61834298  1
  Zn  Zn105  1  0.68958463  0.69735005  -0.07570833  1
  Zn  Zn106  1  0.61758726  0.56634192  -0.00777924  1
  Zn  Zn107  1  0.19022708  0.18527442  0.18639065  1
  Zn  Zn108  1  0.18721715  0.18688202  0.68258278  1
  Zn  Zn109  1  0.19438559  0.69364473  0.19022725  1
  Zn  Zn110  1  0.19086041  0.68730810  0.69043536  1
  Zn  Zn111  1  0.69454615  0.19193434  0.18440922  1
  Zn  Zn112  1  0.69114021  0.18596422  0.68470758  1
  Zn  Zn113  1  0.68399144  0.69276969  0.09375013  1
  Zn  Zn114  1  0.69338649  0.68182945  0.69334658  1
  Zn  Zn115  1  0.31227136  0.31128255  0.31723574  1
  Zn  Zn116  1  0.30657951  0.30966432  0.81137662  1
  Zn  Zn117  1  0.31456191  0.81199658  0.31093650  1
  Zn  Zn118  1  0.31680648  0.81566271  0.81145888  1
  Zn  Zn119  1  0.81684672  0.31502563  0.31540178  1
  Zn  Zn120  1  0.80771422  0.33147077  0.82016141  1
  Zn  Zn121  1  0.81162289  0.80527962  0.31182260  1
  Zn  Zn122  1  0.82334761  0.80758171  0.81405276  1
  Zn  Zn123  1  0.18577498  0.44039654  0.43382593  1
  Zn  Zn124  1  0.16516109  0.44955489  0.92861183  1
  Zn  Zn125  1  0.18585171  0.93497408  0.43723296  1
  Zn  Zn126  1  0.18434672  0.93670486  0.93865519  1
  Zn  Zn127  1  0.69091373  0.44082771  0.43608287  1
  Zn  Zn128  1  0.68166143  0.40987744  0.94579664  1
  Zn  Zn129  1  0.68589072  0.93443118  0.43792108  1
  Zn  Zn130  1  0.67336909  0.94355295  0.93778240  1
  Zn  Zn131  1  0.31427049  0.06913157  0.06893420  1
  Zn  Zn132  1  0.31032729  0.06036874  0.56102707  1
  Zn  Zn133  1  0.30812400  0.56655977  0.06580604  1
  Zn  Zn134  1  0.31143317  0.56591854  0.56045726  1
  Zn  Zn135  1  0.81633292  0.06274057  0.06912205  1
  Zn  Zn136  1  0.81393921  0.06181728  0.56769219  1
  Zn  Zn137  1  0.80861427  0.56306977  0.06381223  1
  Zn  Zn138  1  0.81742565  0.56196253  0.57077231  1
  Zn  Zn139  1  0.42693379  0.43465666  0.19270214  1
  Zn  Zn140  1  0.43431556  0.43754765  0.68819047  1
  Zn  Zn141  1  0.44113419  0.93816993  0.18224385  1
  Zn  Zn142  1  0.43823940  0.93590871  0.68637491  1
  Zn  Zn143  1  0.94033090  0.44624142  0.18498968  1
  Zn  Zn144  1  0.94037216  0.43020842  0.68410777  1
  Zn  Zn145  1  0.93364421  0.93478782  0.18426946  1
  Zn  Zn146  1  0.93474844  0.93598123  0.68875964  1
  Zn  Zn147  1  0.06517607  0.05783915  0.31467818  1
  Zn  Zn148  1  0.05897919  0.06335887  0.81319872  1
  Zn  Zn149  1  0.06604081  0.56028338  0.31446367  1
  Zn  Zn150  1  0.06471680  0.56456242  0.82169936  1
  Zn  Zn151  1  0.56303806  0.06886372  0.22189943  1
  Zn  Zn152  1  0.57055138  0.06741537  0.81511867  1
  Zn  Zn153  1  0.56349252  0.56704689  0.31148141  1
  Zn  Zn154  1  0.54999493  0.55921353  0.81341263  1
  Zn  Zn155  1  0.43819517  0.18788088  0.43180514  1
  Zn  Zn156  1  0.41599621  0.18389019  0.93871017  1
  Zn  Zn157  1  0.43706550  0.68965990  0.43674455  1
  Zn  Zn158  1  0.44681522  0.68182641  0.94284316  1
  Zn  Zn159  1  0.94167369  0.18937193  0.43779455  1
  Zn  Zn160  1  0.93313888  0.18605546  0.93552087  1
  Zn  Zn161  1  0.93939563  0.68330593  0.43937667  1
  Zn  Zn162  1  0.93589467  0.68791415  0.93222795  1
  Zn  Zn163  1  0.06323797  0.31035591  0.06489176  1
  Zn  Zn164  1  0.06246383  0.31503812  0.56347250  1
  Zn  Zn165  1  0.05754065  0.81243248  0.06506490  1
  Zn  Zn166  1  0.06421624  0.81314900  0.56055749  1
  Zn  Zn167  1  0.55877299  0.36974301  0.06602449  1
  Zn  Zn168  1  0.56263333  0.31106052  0.56225101  1
  Zn  Zn169  1  0.57399540  0.83068520  0.04371286  1
  Zn  Zn170  1  0.56084572  0.81277628  0.56404018  1
  O  O171  1  0.12027436  0.11725115  0.12077967  1
  O  O172  1  0.12816664  0.11619454  0.61083236  1
  O  O173  1  0.12743536  0.63446105  0.12019217  1
  O  O174  1  0.13218937  0.62861508  0.61074304  1
  O  O175  1  0.63128579  0.11424291  0.14310180  1
  O  O176  1  0.61848572  0.11815646  0.61696992  1
  O  O177  1  0.60468419  0.62018443  0.14166464  1
  O  O178  1  0.62190406  0.61551232  0.61642808  1
  O  O179  1  0.38442390  0.37803596  0.38168422  1
  O  O180  1  0.37346782  0.37744977  0.88165872  1
  O  O181  1  0.38243839  0.86887676  0.38618058  1
  O  O182  1  0.38852092  0.87593645  0.87437232  1
  O  O183  1  0.88547374  0.38187132  0.38339780  1
  O  O184  1  0.88406740  0.37378263  0.89482501  1
  O  O185  1  0.88045890  0.87977720  0.38077990  1
  O  O186  1  0.88897446  0.87048993  0.88248244  1
  O  O187  1  0.24637197  -0.00075090  0.36228275  1
  O  O188  1  0.23945160  0.01152834  0.86876858  1
  O  O189  1  0.24747734  0.51175939  0.36284542  1
  O  O190  1  0.25629214  0.50155771  0.86618919  1
  O  O191  1  0.76304649  0.00055973  0.37540941  1
  O  O192  1  0.73989884  0.00332588  0.85778409  1
  O  O193  1  0.76877219  0.49522396  0.36974714  1
  O  O194  1  0.73000180  0.42818304  0.84776905  1
  O  O195  1  0.24356114  0.50702024  0.14212942  1
  O  O196  1  0.26008616  0.50231641  0.64133819  1
  O  O197  1  0.24498894  0.99552275  0.13266156  1
  O  O198  1  0.23740162  0.99520039  0.62902842  1
  O  O199  1  0.75797505  0.48685514  0.13979623  1
  O  O200  1  0.73989203  0.48803048  0.61668189  1
  O  O201  1  0.75524652  0.99922249  0.14335424  1
  O  O202  1  0.74308238  0.99215460  0.63086864  1
  O  O203  1  -0.00501846  0.37962127  0.26468031  1
  O  O204  1  0.00370544  0.36768681  0.75347952  1
  O  O205  1  0.00913440  0.88592414  0.25930724  1
  O  O206  1  0.00658182  0.87234322  0.75786188  1
  O  O207  1  0.50787449  0.37537381  0.25880101  1
  O  O208  1  0.49104337  0.36358591  0.75899413  1
  O  O209  1  0.49057005  0.86545549  0.26232073  1
  O  O210  1  0.49267269  0.86215019  0.75761314  1
  O  O211  1  0.48958262  0.14529024  0.26069591  1
  O  O212  1  0.49305238  0.13132268  0.74300466  1
  O  O213  1  0.48818693  0.63201972  0.24799385  1
  O  O214  1  0.49240762  0.63134340  0.74221171  1
  O  O215  1  0.99382854  0.11394916  0.24362057  1
  O  O216  1  0.98452236  0.12682594  0.75403327  1
  O  O217  1  0.99090095  0.62193961  0.25048272  1
  O  O218  1  1.00246869  0.63431913  0.75347727  1
  O  O219  1  0.35916099  0.25494049  0.01001094  1
  O  O220  1  0.36763322  0.25469511  0.50121196  1
  O  O221  1  0.37094758  0.74562935  0.00697300  1
  O  O222  1  0.37843778  0.75978784  0.50872378  1
  O  O223  1  0.87222202  0.25713767  0.00814962  1
  O  O224  1  0.86754575  0.25937076  0.49421774  1
  O  O225  1  0.87641933  0.75670594  0.00665806  1
  O  O226  1  0.86888911  0.75075467  0.50415028  1
  O  O227  1  0.13127657  0.24177883  0.49294433  1
  O  O228  1  0.12760607  0.24365120  0.99152758  1
  O  O229  1  0.11983967  0.73547025  0.49656249  1
  O  O230  1  0.13317602  0.75184936  0.99622584  1
  O  O231  1  0.63109297  0.24375337  0.49384027  1
  O  O232  1  0.64440360  0.25745791  1.00601364  1
  O  O233  1  0.63116427  0.74279372  0.49761008  1
  O  O234  1  0.62425670  0.73970330  1.00688065  1
  O  O235  1  0.49133078  0.26936234  0.13659002  1
  O  O236  1  0.49142189  0.24432135  0.62734868  1
  O  O237  1  0.49146327  0.74617670  0.13194479  1
  O  O238  1  0.48764644  0.74761018  0.62988469  1
  O  O239  1  1.00429129  0.23318487  0.12577245  1
  O  O240  1  0.99300850  0.24753178  0.61698247  1
  O  O241  1  0.97892124  0.76087091  0.12917480  1
  O  O242  1  1.00479813  0.75458731  0.64049784  1
  O  O243  1  0.00741162  0.26541330  0.38058864  1
  O  O244  1  0.01461860  0.24958976  0.87761969  1
  O  O245  1  -0.00120468  0.76353421  0.37898434  1
  O  O246  1  0.00941904  0.75799782  0.86543787  1
  O  O247  1  0.50392463  0.26434673  0.36977265  1
  O  O248  1  0.48794674  0.24867339  0.86272232  1
  O  O249  1  0.50501219  0.75681851  0.36921283  1
  O  O250  1  0.49871470  0.74354387  0.85933717  1
  O  O251  1  0.24214432  0.13123705  0.49663914  1
  O  O252  1  0.24121356  0.13147614  0.99267502  1
  O  O253  1  0.23566281  0.61730551  0.49100840  1
  O  O254  1  0.24381915  0.64242007  1.00073840  1
  O  O255  1  0.74825593  0.12998228  0.49491213  1
  O  O256  1  0.76121269  0.13979715  1.00291871  1
  O  O257  1  0.74442096  0.63537838  0.50774438  1
  O  O258  1  0.72609185  0.61678432  1.01139998  1
  O  O259  1  0.25018775  0.36381317  -0.01051609  1
  O  O260  1  0.25740447  0.36934474  0.49516391  1
  O  O261  1  0.25684806  0.86988881  0.00309130  1
  O  O262  1  0.25981156  0.88114780  0.50628702  1
  O  O263  1  0.76809797  0.36650437  0.01456180  1
  O  O264  1  0.75817447  0.36757243  0.50039961  1
  O  O265  1  0.76113013  0.88575062  -0.01040276  1
  O  O266  1  0.75531767  0.86459456  0.50658056  1
  O  O267  1  0.13637354  0.50474339  0.23885388  1
  O  O268  1  0.14110237  0.50408161  0.75378724  1
  O  O269  1  0.13420324  0.99087281  0.24566839  1
  O  O270  1  0.12699801  0.99723170  0.74144586  1
  O  O271  1  0.63861147  0.49395555  0.26550002  1
  O  O272  1  0.61506662  0.48917242  0.73666250  1
  O  O273  1  0.64578757  0.99947212  0.27081635  1
  O  O274  1  0.63466050  1.00812798  0.73596720  1
  O  O275  1  0.36738145  0.01152845  0.24403435  1
  O  O276  1  0.36765570  0.01381760  0.73699666  1
  O  O277  1  0.36307865  0.50942509  0.25391669  1
  O  O278  1  0.36779950  0.50588133  0.75819497  1
  O  O279  1  0.87147882  0.00638974  0.26027348  1
  O  O280  1  0.86126927  0.00592497  0.74643549  1
  O  O281  1  0.87379506  0.51092778  0.25631439  1
  O  O282  1  0.88539668  0.50314326  0.75538575  1
  O  O283  1  0.11266579  0.36886574  0.37728186  1
  O  O284  1  0.13313252  0.35452720  0.86697768  1
  O  O285  1  0.11587527  0.87405516  0.36839759  1
  O  O286  1  0.11829148  0.86607362  0.87129976  1
  O  O287  1  0.62042608  0.37019451  0.37098301  1
  O  O288  1  0.59670747  0.33761904  0.88417947  1
  O  O289  1  0.61311955  0.86123084  0.38443598  1
  O  O290  1  0.60248901  0.87930363  0.87154419  1
  O  O291  1  0.37133563  0.14478257  0.13927221  1
  O  O292  1  0.38041252  0.13023556  0.62707210  1
  O  O293  1  0.38249419  0.63239855  0.13228694  1
  O  O294  1  0.38037970  0.63336244  0.62695017  1
  O  O295  1  0.88560095  0.12605897  0.13811793  1
  O  O296  1  0.86602989  0.12510545  0.64539002  1
  O  O297  1  0.87775625  0.63452879  0.13308344  1
  O  O298  1  0.87691620  0.62482977  0.64569782  1
  O  O299  1  0.25268008  0.24974803  0.11502065  1
  O  O300  1  0.25572732  0.24844751  0.61043239  1
  O  O301  1  0.26340734  0.75843317  0.11864753  1
  O  O302  1  0.26345414  0.75701957  0.63238250  1
  O  O303  1  0.76054120  0.26169143  0.12256612  1
  O  O304  1  0.75127511  0.25052396  0.60572794  1
  O  O305  1  0.77136138  0.75312158  0.13441700  1
  O  O306  1  0.75126708  0.75704560  0.62114562  1
  O  O307  1  0.24144732  0.24977569  0.38542433  1
  O  O308  1  0.24072044  0.23780147  0.88038257  1
  O  O309  1  0.24892040  0.73786538  0.37095850  1
  O  O310  1  0.24529847  0.75418962  0.88264487  1
  O  O311  1  0.74651391  0.24649266  0.38257046  1
  O  O312  1  0.75700838  0.25361856  0.89681386  1
  O  O313  1  0.73980057  0.75459721  0.38660878  1
  O  O314  1  0.73238663  0.75100394  0.83738252  1
  O  O315  1  0.00267332  0.11690321  0.00597296  1
  O  O316  1  0.00600341  0.11072317  0.49549320  1
  O  O317  1  0.01530642  0.63036389  -0.00574602  1
  O  O318  1  0.01258165  0.61298951  0.49632090  1
  O  O319  1  0.51786490  0.16658692  -0.01313050  1
  O  O320  1  0.50234055  0.11676304  0.50178958  1
  O  O321  1  0.50451936  0.61470667  0.01633289  1
  O  O322  1  0.50777076  0.62211211  0.50572426  1
  O  O323  1  0.49514816  0.37895542  0.49315188  1
  O  O324  1  0.47324998  0.36120932  0.99031923  1
  O  O325  1  0.49162371  0.87943903  0.49404441  1
  O  O326  1  0.49145621  0.88022422  0.98043144  1
  O  O327  1  0.99494821  0.38753958  0.49148733  1
  O  O328  1  0.98712385  0.37374654  1.00737559  1
  O  O329  1  0.99571265  0.88426332  0.49363864  1
  O  O330  1  0.99441161  0.88197037  0.99291324  1
  O  O331  1  0.50010068  0.49106987  0.37975927  1
  O  O332  1  0.48156495  0.48303798  0.87025979  1
  O  O333  1  0.50409581  0.98875948  0.38849629  1
  O  O334  1  0.49348787  0.99636020  0.85884349  1
  O  O335  1  0.99462940  0.49147756  0.38021367  1
  O  O336  1  1.04597144  0.48514502  0.89878527  1
  O  O337  1  0.99093118  0.99224487  0.38285396  1
  O  O338  1  1.00804771  0.98954636  0.88588600  1
  O  O339  1  0.00541173  0.00618399  0.11824039  1
  O  O340  1  0.01086818  -0.00777139  0.61792879  1
  O  O341  1  0.02117102  0.50027314  0.12168529  1
  O  O342  1  -0.00132113  0.49678073  0.60846204  1
  O  O343  1  0.50934417  0.01119824  0.13605081  1
  O  O344  1  0.50848042  0.00177286  0.61800147  1
  O  O345  1  0.49300892  0.50859225  0.13567732  1
  O  O346  1  0.50532688  0.50490467  0.61845554  1
  O  O347  1  0.25459405  0.39179401  0.25735724  1
  O  O348  1  0.25164874  0.38982227  0.74798161  1
  O  O349  1  0.24700437  0.88178228  0.24469539  1
  O  O350  1  0.24365873  0.88180829  0.74458064  1
  O  O351  1  0.74768672  0.38103762  0.25010005  1
  O  O352  1  0.74911273  0.34837878  0.72188013  1
  O  O353  1  0.75756961  0.88911694  0.25484860  1
  O  O354  1  0.75230481  0.88685527  0.74274805  1
  O  O355  1  0.25682752  0.11561923  0.25206464  1
  O  O356  1  0.25493448  0.12009272  0.75419164  1
  O  O357  1  0.26053698  0.62347901  0.25575708  1
  O  O358  1  0.25702252  0.61718360  0.75500821  1
  O  O359  1  0.76278746  0.11517109  0.26058347  1
  O  O360  1  0.75443437  0.11710996  0.75290473  1
  O  O361  1  0.76227935  0.61502180  0.24843233  1
  O  O362  1  0.76137539  0.60582991  0.74641121  1
  O  O363  1  0.36856172  0.13283247  0.36050453  1
  O  O364  1  0.35990680  0.12623261  0.86158429  1
  O  O365  1  0.36874770  0.62507924  0.36831930  1
  O  O366  1  0.37577327  0.61443904  0.87343672  1
  O  O367  1  0.87396909  0.11593559  0.37326939  1
  O  O368  1  0.86821351  0.12502340  0.86122022  1
  O  O369  1  0.88119334  0.61950389  0.36292074  1
  O  O370  1  0.87769884  0.62936575  0.85338977  1
  O  O371  1  0.13020388  0.38625682  0.12075271  1
  O  O372  1  0.13400826  0.37368322  0.62415849  1
  O  O373  1  0.13097722  0.87932459  0.13087346  1
  O  O374  1  0.13075899  0.88125397  0.62870545  1
  O  O375  1  0.63842751  0.36858311  0.14770054  1
  O  O376  1  0.63304957  0.38486381  0.61329835  1
  O  O377  1  0.63403957  0.89238825  0.11346543  1
  O  O378  1  0.63667199  0.88291864  0.61913686  1
  O  O379  1  0.13000788  0.24196627  0.26481379  1
  O  O380  1  0.12346538  0.24143711  0.76006667  1
  O  O381  1  0.12998684  0.76646221  0.25215291  1
  O  O382  1  0.11909976  0.75410503  0.75744456  1
  O  O383  1  0.61873349  0.25874602  0.25796869  1
  O  O384  1  0.60980210  0.25635529  0.73472395  1
  O  O385  1  0.61208984  0.74619022  0.26152509  1
  O  O386  1  0.60270373  0.74722854  0.73028109  1
  O  O387  1  0.37928130  0.25120705  0.24466713  1
  O  O388  1  0.37624448  0.23941915  0.74074361  1
  O  O389  1  0.38131933  0.74373941  0.24151309  1
  O  O390  1  0.38348425  0.74370373  0.74305656  1
  O  O391  1  0.87476061  0.23500105  0.25610337  1
  O  O392  1  0.87348270  0.24149407  0.75127455  1
  O  O393  1  0.87754842  0.73689839  0.24769249  1
  O  O394  1  0.89597041  0.75067098  0.74539648  1
  O  O395  1  0.38175971  0.49486554  0.49803896  1
  O  O396  1  0.36037212  0.49067633  0.99400027  1
  O  O397  1  0.38475917  0.98965015  0.50640490  1
  O  O398  1  0.39004970  1.02185128  1.00313040  1
  O  O399  1  0.88454315  0.49834151  0.49296625  1
  O  O400  1  0.87964373  0.48925922  1.00757300  1
  O  O401  1  0.88158204  0.99564703  0.49581968  1
  O  O402  1  0.88630865  0.99298233  1.00587843  1
  O  O403  1  0.11607153  0.00387411  0.00693549  1
  O  O404  1  0.11771198  0.00513704  0.50486351  1
  O  O405  1  0.14286830  0.51724089  0.02244351  1
  O  O406  1  0.11480640  0.50894880  0.49577616  1
  O  O407  1  0.60831133  0.02003791  -0.01475297  1
  O  O408  1  0.61948535  0.00407702  0.50803280  1
  O  O409  1  0.61228236  0.45745586  0.01519352  1
  O  O410  1  0.62056171  0.50824822  0.50217273  1
  O  O411  1  0.36928600  0.36773850  0.11803399  1
  O  O412  1  0.37178822  0.36825587  0.61537391  1
  O  O413  1  0.37214042  0.86866958  0.11864805  1
  O  O414  1  0.37070920  0.86883709  0.61664990  1
  O  O415  1  0.87374160  0.37361834  0.12410057  1
  O  O416  1  0.86792500  0.37603621  0.60883220  1
  O  O417  1  0.86845720  0.86882330  0.11399811  1
  O  O418  1  0.86403363  0.87374189  0.61815118  1
  O  O419  1  0.12454149  0.12982938  0.38624510  1
  O  O420  1  0.12873367  0.13264731  0.87940583  1
  O  O421  1  0.13159146  0.62832008  0.38047844  1
  O  O422  1  0.13159994  0.64166800  0.88312557  1
  O  O423  1  0.63515424  0.13335095  0.38341436  1
  O  O424  1  0.62920138  0.15202801  0.87088276  1
  O  O425  1  0.61902268  0.63656621  0.38921833  1
  O  O426  1  0.63473924  0.59538688  0.87781852  1
