# generated using pymatgen
data_V85Zn86O256
_symmetry_space_group_name_H-M   'P 1'
_cell_length_a   16.93106068
_cell_length_b   16.93851040
_cell_length_c   16.92559147
_cell_angle_alpha   90.05842442
_cell_angle_beta   89.98812315
_cell_angle_gamma   89.94909427
_symmetry_Int_Tables_number   1
_chemical_formula_structural   V85Zn86O256
_chemical_formula_sum   'V85 Zn86 O256'
_cell_volume   4854.03416586
_cell_formula_units_Z   1
loop_
 _symmetry_equiv_pos_site_id
 _symmetry_equiv_pos_as_xyz
  1  'x, y, z'
loop_
 _atom_site_type_symbol
 _atom_site_label
 _atom_site_symmetry_multiplicity
 _atom_site_fract_x
 _atom_site_fract_y
 _atom_site_fract_z
 _atom_site_occupancy
  V  V0  1  0.74755021  0.62227974  0.37369922  1
  V  V1  1  0.87278393  0.37211198  0.50097044  1
  V  V2  1  0.49526379  0.75154264  0.74965846  1
  V  V3  1  0.74804651  0.74861900  0.50146391  1
  V  V4  1  0.87112014  0.12715389  0.75393654  1
  V  V5  1  -0.00736809  0.62389419  0.63192337  1
  V  V6  1  0.00356881  0.11577443  0.11911340  1
  V  V7  1  0.36751251  0.37425305  0.50192673  1
  V  V8  1  0.12301746  0.62338875  0.50155990  1
  V  V9  1  0.86854085  0.01198583  0.37711145  1
  V  V10  1  0.49869291  0.12725999  0.62960246  1
  V  V11  1  0.62214395  0.61829614  -0.00198612  1
  V  V12  1  0.13270781  0.49842384  0.64393734  1
  V  V13  1  0.24940668  0.75687373  0.00265777  1
  V  V14  1  -0.00023284  0.62550278  0.12777733  1
  V  V15  1  0.39082895  0.38064201  0.00339466  1
  V  V16  1  0.50076076  0.37186379  0.37384856  1
  V  V17  1  0.62216004  0.88275458  0.24741711  1
  V  V18  1  0.86745741  0.25687880  0.12148080  1
  V  V19  1  0.00663870  0.36604141  0.37783771  1
  V  V20  1  -0.00843721  0.75058555  0.75168905  1
  V  V21  1  0.00504648  0.24596435  0.24885120  1
  V  V22  1  0.00561432  0.37205641  0.87613471  1
  V  V23  1  0.13118789  0.24359003  0.87329596  1
  V  V24  1  0.24644610  0.75278737  0.50177616  1
  V  V25  1  0.87739542  0.24118871  0.62165627  1
  V  V26  1  0.00272122  0.01330450  0.50166761  1
  V  V27  1  0.00424494  0.24880487  0.74803570  1
  V  V28  1  -0.00438792  0.87203651  0.37023898  1
  V  V29  1  0.75568399  0.62939689  0.86997687  1
  V  V30  1  0.49490366  0.87929383  0.37610590  1
  V  V31  1  0.74997199  0.87701254  0.62636160  1
  V  V32  1  0.64789294  0.24667012  0.87931806  1
  V  V33  1  0.62264063  0.87625940  0.75008284  1
  V  V34  1  0.49991012  0.10391278  0.11222720  1
  V  V35  1  0.12527876  0.01663502  0.61905613  1
  V  V36  1  0.24763169  0.62247762  0.37440491  1
  V  V37  1  0.87456449  0.87698688  0.50010217  1
  V  V38  1  0.12468739  0.61941053  0.00127111  1
  V  V39  1  0.86837141  0.12756684  0.25101524  1
  V  V40  1  0.12697408  0.75184658  0.87372616  1
  V  V41  1  0.87809690  0.50338624  0.87152285  1
  V  V42  1  0.75048103  0.24466798  0.49575061  1
  V  V43  1  0.87637211  0.75114068  0.12774866  1
  V  V44  1  0.37421614  0.49944919  0.37433743  1
  V  V45  1  0.24953105  0.61438467  0.87222834  1
  V  V46  1  0.12855977  0.87200162  0.24380425  1
  V  V47  1  0.49997848  0.74700668  0.25098727  1
  V  V48  1  0.37256182  0.25244657  0.62714017  1
  V  V49  1  0.36751881  0.75578409  0.62545795  1
  V  V50  1  0.50108258  0.49866752  0.50043136  1
  V  V51  1  0.50118945  0.25163015  0.76317944  1
  V  V52  1  0.37126456  0.00211203  0.88356149  1
  V  V53  1  0.62320838  0.74984525  0.87525458  1
  V  V54  1  0.00139536  0.49871799  0.50085839  1
  V  V55  1  0.39218232  0.49681408  0.87423594  1
  V  V56  1  0.86151384  0.37495359  0.00116286  1
  V  V57  1  0.88061440  0.87942734  0.00149820  1
  V  V58  1  0.24956039  0.37433918  0.11139827  1
  V  V59  1  0.62357120  0.12792465  0.49881474  1
  V  V60  1  0.75315245  0.50255932  0.74714872  1
  V  V61  1  0.49572893  0.00290122  0.49809950  1
  V  V62  1  0.49503836  0.24895510  0.23459202  1
  V  V63  1  0.62633106  0.24410252  0.36897662  1
  V  V64  1  0.36945678  0.12379344  0.75500668  1
  V  V65  1  0.37082998  0.75297686  0.12580661  1
  V  V66  1  0.74648752  0.88099236  0.12685559  1
  V  V67  1  0.75003333  0.49791747  0.23892090  1
  V  V68  1  0.87862044  0.62853360  0.25187026  1
  V  V69  1  0.25368396  0.24123309  0.00255845  1
  V  V70  1  0.36628507  0.88083491  0.49903590  1
  V  V71  1  0.63176156  0.37064008  0.24152579  1
  V  V72  1  0.24899967  -0.00314645  0.74854315  1
  V  V73  1  0.49604925  0.87724892  0.88655307  1
  V  V74  1  0.00512667  0.88480377  0.87739542  1
  V  V75  1  0.49861074  0.62575678  0.62445607  1
  V  V76  1  0.25027289  0.49628892  0.24833302  1
  V  V77  1  0.12703724  0.87402945  0.73624787  1
  V  V78  1  0.62412571  0.00255755  0.62770081  1
  V  V79  1  0.87209354  0.00491520  0.87778441  1
  V  V80  1  0.62069132  0.37696273  0.75377579  1
  V  V81  1  0.37668863  0.11592704  0.25528787  1
  V  V82  1  0.12845110  0.36997976  0.24988716  1
  V  V83  1  0.11655466  0.74829545  0.37119701  1
  V  V84  1  0.50024416  0.61778006  0.12160111  1
  Zn  Zn85  1  0.63476175  0.11376169  0.00119581  1
  Zn  Zn86  1  0.62291587  0.74909730  0.37511884  1
  Zn  Zn87  1  0.62374598  0.62369409  0.49881532  1
  Zn  Zn88  1  0.74790779  0.00717248  0.75287299  1
  Zn  Zn89  1  0.87143902  0.74780092  0.62981015  1
  Zn  Zn90  1  0.62384562  0.49182473  0.11606458  1
  Zn  Zn91  1  0.36807764  0.62057809  0.74802629  1
  Zn  Zn92  1  0.62429260  0.49921263  0.62536367  1
  Zn  Zn93  1  0.74764966  0.37476321  0.62439919  1
  Zn  Zn94  1  0.25671668  -0.00744638  0.25213522  1
  Zn  Zn95  1  -0.00149631  0.49626767  0.00178074  1
  Zn  Zn96  1  0.13620169  -0.01173068  0.11450822  1
  Zn  Zn97  1  0.37114154  0.88204341  0.00798406  1
  Zn  Zn98  1  0.74920934  0.75116428  0.00015757  1
  Zn  Zn99  1  0.24926715  0.37660693  0.64378043  1
  Zn  Zn100  1  0.12476476  0.11585769  -0.00563063  1
  Zn  Zn101  1  0.23864548  0.12314152  0.38218658  1
  Zn  Zn102  1  0.74343350  0.00505622  0.25483225  1
  Zn  Zn103  1  0.12354743  0.49937636  0.12462329  1
  Zn  Zn104  1  0.37428298  0.62238615  0.24787466  1
  Zn  Zn105  1  0.23417814  0.24204013  0.49931017  1
  Zn  Zn106  1  0.87565634  0.49694843  0.37335240  1
  Zn  Zn107  1  0.19013100  0.18544873  0.18778999  1
  Zn  Zn108  1  0.19060119  0.19061401  0.68846663  1
  Zn  Zn109  1  0.18695005  0.68861325  0.18977429  1
  Zn  Zn110  1  0.18415187  0.68631779  0.68867850  1
  Zn  Zn111  1  0.70344180  0.16846418  0.14919840  1
  Zn  Zn112  1  0.68878321  0.19122568  0.68858381  1
  Zn  Zn113  1  0.68667385  0.69012295  0.18622691  1
  Zn  Zn114  1  0.68440199  0.68713845  0.68750364  1
  Zn  Zn115  1  0.30978350  0.30609835  0.31331401  1
  Zn  Zn116  1  0.31885180  0.31100678  0.82231179  1
  Zn  Zn117  1  0.31171402  0.80963530  0.31627752  1
  Zn  Zn118  1  0.30916758  0.81370104  0.81469471  1
  Zn  Zn119  1  0.81359089  0.31019759  0.31370808  1
  Zn  Zn120  1  0.81707513  0.31969403  0.80910502  1
  Zn  Zn121  1  0.81050537  0.81154255  0.31330559  1
  Zn  Zn122  1  0.81228635  0.81820702  0.81425070  1
  Zn  Zn123  1  0.18459943  0.43215189  0.43991809  1
  Zn  Zn124  1  0.18832681  0.43292189  0.82194514  1
  Zn  Zn125  1  0.18817301  0.94552971  0.43135389  1
  Zn  Zn126  1  0.18783500  0.94252298  0.93539392  1
  Zn  Zn127  1  0.68651850  0.43499332  0.43250251  1
  Zn  Zn128  1  0.68520607  0.43772074  0.93042966  1
  Zn  Zn129  1  0.68296956  0.93768212  0.43704828  1
  Zn  Zn130  1  0.68997226  0.93811722  0.94190925  1
  Zn  Zn131  1  0.31367381  0.06257556  0.07747004  1
  Zn  Zn132  1  0.30703266  0.06331019  0.56166649  1
  Zn  Zn133  1  0.31285485  0.56175955  0.05994029  1
  Zn  Zn134  1  0.31229241  0.56470082  0.56251472  1
  Zn  Zn135  1  0.81698847  0.06080789  0.06222813  1
  Zn  Zn136  1  0.81183456  0.06533661  0.56219776  1
  Zn  Zn137  1  0.81178944  0.56332788  0.05692074  1
  Zn  Zn138  1  0.81432419  0.56214294  0.56176463  1
  Zn  Zn139  1  0.43758722  0.43422187  0.18573297  1
  Zn  Zn140  1  0.43576557  0.43715686  0.69237766  1
  Zn  Zn141  1  0.43769549  0.93638143  0.18539649  1
  Zn  Zn142  1  0.43617561  0.93764833  0.68784322  1
  Zn  Zn143  1  0.93856504  0.43848845  0.18832666  1
  Zn  Zn144  1  0.93884400  0.43323018  0.68888451  1
  Zn  Zn145  1  0.93815951  0.93704478  0.19316017  1
  Zn  Zn146  1  0.94015046  0.94136727  0.68707257  1
  Zn  Zn147  1  0.05998317  0.05536590  0.30880334  1
  Zn  Zn148  1  0.05980438  0.06618476  0.80818734  1
  Zn  Zn149  1  0.06137155  0.55698733  0.31212620  1
  Zn  Zn150  1  0.05703851  0.56800640  0.81726528  1
  Zn  Zn151  1  0.55674974  0.06511083  0.31214443  1
  Zn  Zn152  1  0.57704943  0.04822869  0.84463363  1
  Zn  Zn153  1  0.56468587  0.56009491  0.31024243  1
  Zn  Zn154  1  0.56361854  0.56617481  0.80910845  1
  Zn  Zn155  1  0.42923073  0.19242225  0.43522415  1
  Zn  Zn156  1  0.43365446  0.18881517  0.94146231  1
  Zn  Zn157  1  0.43438726  0.68815420  0.43703751  1
  Zn  Zn158  1  0.43503374  0.68629234  0.93949899  1
  Zn  Zn159  1  1.07460806  0.18857360  0.43748826  1
  Zn  Zn160  1  0.93421109  0.19004742  0.93946872  1
  Zn  Zn161  1  0.93382895  0.68652486  0.44024412  1
  Zn  Zn162  1  0.93764091  0.69150567  0.93924997  1
  Zn  Zn163  1  0.06360722  0.31001731  0.06025448  1
  Zn  Zn164  1  0.06161306  0.31835936  0.57318947  1
  Zn  Zn165  1  0.05896161  0.80616881  0.06041244  1
  Zn  Zn166  1  0.05715912  0.81361515  0.55883133  1
  Zn  Zn167  1  0.57122826  0.30715715  0.05859528  1
  Zn  Zn168  1  0.56127963  0.31402261  0.56648209  1
  Zn  Zn169  1  0.56315001  0.80758748  0.06456912  1
  Zn  Zn170  1  0.56097541  0.81316624  0.56157570  1
  O  O171  1  0.10982405  0.12451211  0.12918241  1
  O  O172  1  0.12313553  0.11472774  0.62876163  1
  O  O173  1  0.11505328  0.62812189  0.12034331  1
  O  O174  1  0.11549289  0.61488906  0.62216610  1
  O  O175  1  0.60188415  0.12193507  0.12802639  1
  O  O176  1  0.61631550  0.12386121  0.62154858  1
  O  O177  1  0.61928954  0.62578894  0.11533394  1
  O  O178  1  0.61062131  0.62318284  0.62212327  1
  O  O179  1  0.38144910  0.38060435  0.38342472  1
  O  O180  1  0.37807848  0.38999868  0.88722468  1
  O  O181  1  0.38586957  0.86928507  0.38429568  1
  O  O182  1  0.38004103  0.88109356  0.87837545  1
  O  O183  1  0.88309275  0.37495870  0.38663393  1
  O  O184  1  0.88318249  0.38208098  0.88335108  1
  O  O185  1  0.87879495  0.87995672  0.38010841  1
  O  O186  1  0.88450205  0.87934748  0.88366849  1
  O  O187  1  0.24707955  0.00799700  0.36322392  1
  O  O188  1  0.25752619  -0.00374515  0.85839818  1
  O  O189  1  0.25335172  0.50231919  0.37008276  1
  O  O190  1  0.25290159  0.51267974  0.87987420  1
  O  O191  1  0.76409107  -0.00563549  0.37625805  1
  O  O192  1  0.76940095  -0.01142772  0.86910164  1
  O  O193  1  0.75195223  0.51112655  0.37043866  1
  O  O194  1  0.75703599  0.50800453  0.86467431  1
  O  O195  1  0.24854449  0.49356625  0.13172169  1
  O  O196  1  0.23485283  0.50585134  0.62583590  1
  O  O197  1  0.24749725  0.99897227  0.13937621  1
  O  O198  1  0.23450497  0.99942266  0.63441639  1
  O  O199  1  0.74741350  0.50685746  0.13606372  1
  O  O200  1  0.74903809  0.50363858  0.63649374  1
  O  O201  1  0.76112924  0.98283251  0.13450247  1
  O  O202  1  0.74232553  0.99421537  0.62543075  1
  O  O203  1  0.00795051  0.37071852  0.25641744  1
  O  O204  1  -0.00867163  0.36101197  0.76227343  1
  O  O205  1  0.00326483  0.87123584  0.26428577  1
  O  O206  1  0.00690833  0.86935647  0.75654224  1
  O  O207  1  0.50682719  0.36531558  0.25235124  1
  O  O208  1  0.50842144  0.36479957  0.74633022  1
  O  O209  1  0.50298829  0.86849788  0.25685780  1
  O  O210  1  0.50402144  0.86647756  0.75277136  1
  O  O211  1  0.49616367  0.13499532  0.24248289  1
  O  O212  1  0.49182406  0.13122131  0.73847760  1
  O  O213  1  0.49952334  0.63265581  0.24518105  1
  O  O214  1  0.49555880  0.63397265  0.74151529  1
  O  O215  1  0.98929467  0.13171692  0.24316862  1
  O  O216  1  0.98743720  0.13987466  0.75293503  1
  O  O217  1  0.98980531  0.61917656  0.24316490  1
  O  O218  1  1.00484482  0.63748221  0.74372170  1
  O  O219  1  0.36214990  0.26784546  -0.01046743  1
  O  O220  1  0.38420813  0.26217901  0.51406512  1
  O  O221  1  0.36530167  0.74972051  0.00808868  1
  O  O222  1  0.36764550  0.75731968  0.50631085  1
  O  O223  1  0.87567963  0.25802127  0.01378098  1
  O  O224  1  0.86539637  0.25714834  0.50659402  1
  O  O225  1  0.87196024  0.76167638  0.00758647  1
  O  O226  1  0.86225529  0.75568493  0.50321615  1
  O  O227  1  0.12259722  0.26802495  0.49757611  1
  O  O228  1  0.13688702  0.24463760  0.99360910  1
  O  O229  1  0.12765268  0.74458447  0.49336894  1
  O  O230  1  0.13044439  0.74111908  0.99419578  1
  O  O231  1  0.63054299  0.24842898  0.49419092  1
  O  O232  1  0.62647564  0.24756296  0.98131329  1
  O  O233  1  0.63658616  0.74882428  0.49916332  1
  O  O234  1  0.62786998  0.74073665  0.99184899  1
  O  O235  1  0.50265723  0.25117731  0.13477972  1
  O  O236  1  0.49140031  0.24459127  0.63356849  1
  O  O237  1  0.49425059  0.74028114  0.13380250  1
  O  O238  1  0.49187230  0.74387270  0.62810912  1
  O  O239  1  0.99486494  0.24667530  0.13675642  1
  O  O240  1  0.98930785  0.25796876  0.63624262  1
  O  O241  1  0.98537384  0.73893937  0.12317954  1
  O  O242  1  0.99925315  0.74171450  0.63251541  1
  O  O243  1  -0.00046138  0.26138066  0.36261666  1
  O  O244  1  0.00455270  0.25629355  0.87084291  1
  O  O245  1  0.00662551  0.75673564  0.38468603  1
  O  O246  1  0.00643310  0.75725264  0.86799768  1
  O  O247  1  0.50782486  0.25690515  0.36946658  1
  O  O248  1  0.50054150  0.24715821  0.86403221  1
  O  O249  1  0.49966366  0.75506493  0.36730149  1
  O  O250  1  0.50024302  0.75588707  0.86757424  1
  O  O251  1  0.24361253  0.12702101  0.50060994  1
  O  O252  1  0.25632827  0.13980978  1.00645670  1
  O  O253  1  0.24145713  0.62908376  0.49416752  1
  O  O254  1  0.24313734  0.63211213  0.99214193  1
  O  O255  1  0.74143865  0.13746462  0.50405489  1
  O  O256  1  0.73847966  0.13436892  1.04265149  1
  O  O257  1  0.74937022  0.63055208  0.49345670  1
  O  O258  1  0.74417910  0.62812781  0.98622523  1
  O  O259  1  0.25147133  0.37104721  0.00982818  1
  O  O260  1  0.26299368  0.37941502  0.50596293  1
  O  O261  1  0.24931049  0.85990847  -0.00644669  1
  O  O262  1  0.25881191  0.86868725  0.49233282  1
  O  O263  1  0.76202287  0.38338958  -0.00266090  1
  O  O264  1  0.75671135  0.36958186  0.50016061  1
  O  O265  1  0.75736669  0.87327538  0.00870241  1
  O  O266  1  0.75226052  0.86842242  0.50658399  1
  O  O267  1  0.13276111  0.48921795  0.24748755  1
  O  O268  1  0.12480140  0.50405709  0.74741900  1
  O  O269  1  0.11680836  0.97679766  0.24495186  1
  O  O270  1  0.12740050  0.99526018  0.74013579  1
  O  O271  1  0.63337705  0.48931403  0.24888569  1
  O  O272  1  0.63255283  0.49431730  0.75086332  1
  O  O273  1  0.62433721  0.98712739  0.25739379  1
  O  O274  1  0.62622157  0.99318358  0.74729371  1
  O  O275  1  0.38077753  0.01179887  0.24961758  1
  O  O276  1  0.36518003  0.00565658  0.74952631  1
  O  O277  1  0.36684268  0.49796413  0.25596580  1
  O  O278  1  0.37888991  0.50314314  0.76786657  1
  O  O279  1  0.87452180  0.00690670  0.26274656  1
  O  O280  1  0.87707807  0.01041265  0.75656136  1
  O  O281  1  0.86761958  0.50895205  0.25130111  1
  O  O282  1  0.86871187  0.49435263  0.76172376  1
  O  O283  1  0.11726405  0.37989103  0.36365861  1
  O  O284  1  0.11191195  0.36458900  0.87671744  1
  O  O285  1  0.11449341  0.86612695  0.37041033  1
  O  O286  1  0.11886031  0.87105820  0.86548274  1
  O  O287  1  0.61882387  0.36646197  0.36567025  1
  O  O288  1  0.62869376  0.36444636  0.86223951  1
  O  O289  1  0.61226920  0.87059387  0.37019147  1
  O  O290  1  0.61617962  0.86683345  0.86823766  1
  O  O291  1  0.39290697  0.12488752  0.13716303  1
  O  O292  1  0.38089799  0.13299742  0.63180820  1
  O  O293  1  0.38295755  0.63222387  0.12517094  1
  O  O294  1  0.38284598  0.63404750  0.62535321  1
  O  O295  1  0.88636088  0.13776303  0.13172450  1
  O  O296  1  0.87589992  0.13647396  0.62924626  1
  O  O297  1  0.87836668  0.63104322  0.12982555  1
  O  O298  1  0.88873619  0.62604536  0.62326047  1
  O  O299  1  0.24685881  0.25799356  0.11121741  1
  O  O300  1  0.26292545  0.25441901  0.62391067  1
  O  O301  1  0.25893890  0.74151238  0.11692279  1
  O  O302  1  0.25740214  0.74225302  0.61701969  1
  O  O303  1  0.77084832  0.26378982  0.14226206  1
  O  O304  1  0.75807663  0.25370917  0.61630284  1
  O  O305  1  0.76124779  0.75760013  0.12472164  1
  O  O306  1  0.75036127  0.75503316  0.61891427  1
  O  O307  1  0.27127687  0.23778774  0.38942293  1
  O  O308  1  0.24172038  0.25410129  0.88944345  1
  O  O309  1  0.24065189  0.74103148  0.38228576  1
  O  O310  1  0.24540307  0.74116355  0.88285524  1
  O  O311  1  0.73946910  0.25398578  0.38389713  1
  O  O312  1  0.74705181  0.25446354  0.87240426  1
  O  O313  1  0.74894231  0.73866630  0.38226561  1
  O  O314  1  0.74483219  0.74460739  0.87374833  1
  O  O315  1  0.00005389  0.13246777  0.01702961  1
  O  O316  1  0.00172308  0.11196477  0.49291983  1
  O  O317  1  0.00654438  0.62674968  0.00800150  1
  O  O318  1  0.00354579  0.61703153  0.50752743  1
  O  O319  1  0.49935830  0.12906879  0.01153539  1
  O  O320  1  0.50123392  0.12374782  0.51094220  1
  O  O321  1  0.50955135  0.63152742  0.00936115  1
  O  O322  1  0.49899047  0.61751926  0.50590974  1
  O  O323  1  0.49274674  0.38293535  0.49712283  1
  O  O324  1  0.48920941  0.37337741  1.00762626  1
  O  O325  1  0.49244123  0.87975432  0.49343437  1
  O  O326  1  0.49701341  0.86793805  0.98911136  1
  O  O327  1  0.99350586  0.38141793  0.49467252  1
  O  O328  1  0.99321660  0.37544604  0.99126852  1
  O  O329  1  0.99121956  0.88157732  0.49101573  1
  O  O330  1  0.99304799  0.86874850  0.98932730  1
  O  O331  1  0.49515068  0.49416484  0.38117788  1
  O  O332  1  0.49026442  0.50923352  0.87854381  1
  O  O333  1  0.50305978  0.99080153  0.38552508  1
  O  O334  1  0.48156325  0.98459405  0.85995034  1
  O  O335  1  0.99820215  0.48969925  0.38481750  1
  O  O336  1  0.99335065  0.49290155  0.87560420  1
  O  O337  1  0.98863327  0.99091128  0.38118979  1
  O  O338  1  0.99288860  0.98900327  0.86748093  1
  O  O339  1  -0.00394974  0.01464677  0.12937669  1
  O  O340  1  0.01348403  -0.00335563  0.61625704  1
  O  O341  1  0.00009120  0.51281800  0.12245456  1
  O  O342  1  0.00813089  0.50513156  0.62362639  1
  O  O343  1  0.49753213  0.00370752  0.11555160  1
  O  O344  1  0.50471948  0.00866486  0.62113618  1
  O  O345  1  0.50366883  0.51405823  0.13290883  1
  O  O346  1  0.49744221  0.50854390  0.61828307  1
  O  O347  1  0.24573172  0.37595223  0.24220410  1
  O  O348  1  0.25500598  0.37379602  0.75612131  1
  O  O349  1  0.23164756  0.86756617  0.25686360  1
  O  O350  1  0.23887315  0.88207460  0.75106779  1
  O  O351  1  0.74322802  0.38649632  0.26007186  1
  O  O352  1  0.74413165  0.38658208  0.74689382  1
  O  O353  1  0.73817352  0.87269162  0.24623058  1
  O  O354  1  0.74211774  0.87481390  0.74024614  1
  O  O355  1  0.27301220  0.13469895  0.24736435  1
  O  O356  1  0.26237539  0.11758018  0.74506037  1
  O  O357  1  0.24939806  0.61499517  0.25645742  1
  O  O358  1  0.25029688  0.63223176  0.76726554  1
  O  O359  1  0.76396135  0.12308774  0.24165919  1
  O  O360  1  0.76564376  0.12530667  0.74361783  1
  O  O361  1  0.75425672  0.61953385  0.25670569  1
  O  O362  1  0.74516515  0.61990766  0.76111783  1
  O  O363  1  0.39061500  0.12247384  0.35634473  1
  O  O364  1  0.38166916  0.11567429  0.86437153  1
  O  O365  1  0.36730632  0.61681458  0.37375008  1
  O  O366  1  0.36563442  0.61386538  0.87847698  1
  O  O367  1  0.87554460  0.11210557  0.36878879  1
  O  O368  1  0.87956228  0.11642674  0.86986466  1
  O  O369  1  0.86875066  0.62263422  0.36749997  1
  O  O370  1  0.86823945  0.61754487  0.87935468  1
  O  O371  1  0.13163586  0.37842248  0.13006020  1
  O  O372  1  0.12732635  0.39567172  0.62956448  1
  O  O373  1  0.11528871  0.86362742  0.14129391  1
  O  O374  1  0.11984188  0.87598803  0.63451140  1
  O  O375  1  0.62481104  0.37448444  0.13637510  1
  O  O376  1  0.62723516  0.37852073  0.63687158  1
  O  O377  1  0.63339647  0.86870352  0.13382652  1
  O  O378  1  0.62845536  0.88098307  0.63029559  1
  O  O379  1  0.11940655  0.26241100  0.24230428  1
  O  O380  1  0.11641254  0.24610508  0.75734361  1
  O  O381  1  0.12371191  0.75401757  0.26394282  1
  O  O382  1  0.11754788  0.75776516  0.75411471  1
  O  O383  1  0.61734925  0.25468972  0.25657425  1
  O  O384  1  0.61967750  0.25912424  0.75410314  1
  O  O385  1  0.61311819  0.75784775  0.25082020  1
  O  O386  1  0.61585669  0.75551227  0.75480890  1
  O  O387  1  0.39325040  0.24862951  0.25061913  1
  O  O388  1  0.38168257  0.24220663  0.74772917  1
  O  O389  1  0.38324496  0.74705145  0.24534864  1
  O  O390  1  0.37782033  0.74972832  0.74165599  1
  O  O391  1  0.88455374  0.24535864  0.24665311  1
  O  O392  1  0.87862354  0.24578352  0.74209650  1
  O  O393  1  0.86946427  0.73704340  0.24369740  1
  O  O394  1  0.88776139  0.75722598  0.74963090  1
  O  O395  1  0.38366058  0.49457535  0.49741466  1
  O  O396  1  0.37359350  0.48925217  0.99123453  1
  O  O397  1  0.38122703  0.98764075  0.51246979  1
  O  O398  1  0.36328114  1.00030872  0.98681782  1
  O  O399  1  0.88611493  0.49284852  0.50089571  1
  O  O400  1  0.87669860  0.49496005  0.98870021  1
  O  O401  1  0.88030389  0.99871463  0.49246359  1
  O  O402  1  0.87610847  0.98868674  0.99448503  1
  O  O403  1  0.12513392  0.00300356  0.00247065  1
  O  O404  1  0.11816511  -0.00735214  0.51329504  1
  O  O405  1  0.12166012  0.51674871  0.00257475  1
  O  O406  1  0.11374109  0.50295904  0.50595047  1
  O  O407  1  0.61297217  0.01487283  -0.04869349  1
  O  O408  1  0.61746119  0.00756330  0.50677569  1
  O  O409  1  0.62991207  0.51286315  -0.00168156  1
  O  O410  1  0.61222110  0.49873816  0.50074253  1
  O  O411  1  0.36792252  0.38127143  0.11048755  1
  O  O412  1  0.37445794  0.36967652  0.62030806  1
  O  O413  1  0.38076858  0.85823772  0.12375513  1
  O  O414  1  0.37919173  0.86234900  0.61609188  1
  O  O415  1  0.88549854  0.36543902  0.11623812  1
  O  O416  1  0.87409670  0.36956710  0.61313948  1
  O  O417  1  0.87403604  0.86817611  0.12160526  1
  O  O418  1  0.86747988  0.87590090  0.61884590  1
  O  O419  1  0.12322102  0.13158272  0.35582584  1
  O  O420  1  0.11856960  0.13858712  0.87621500  1
  O  O421  1  0.12474174  0.62995632  0.38062018  1
  O  O422  1  0.13261908  0.63030196  0.88204638  1
  O  O423  1  0.61821316  0.13690633  0.38108860  1
  O  O424  1  0.63182662  0.14758294  0.86000779  1
  O  O425  1  0.63328277  0.62739393  0.37711307  1
  O  O426  1  0.63087794  0.63162959  0.87909266  1
