# generated using pymatgen
data_V85Zn86O256
_symmetry_space_group_name_H-M   'P 1'
_cell_length_a   16.94354794
_cell_length_b   16.94031111
_cell_length_c   16.94185834
_cell_angle_alpha   89.99574933
_cell_angle_beta   89.96959231
_cell_angle_gamma   90.03411592
_symmetry_Int_Tables_number   1
_chemical_formula_structural   V85Zn86O256
_chemical_formula_sum   'V85 Zn86 O256'
_cell_volume   4862.80264513
_cell_formula_units_Z   1
loop_
 _symmetry_equiv_pos_site_id
 _symmetry_equiv_pos_as_xyz
  1  'x, y, z'
loop_
 _atom_site_type_symbol
 _atom_site_label
 _atom_site_symmetry_multiplicity
 _atom_site_fract_x
 _atom_site_fract_y
 _atom_site_fract_z
 _atom_site_occupancy
  V  V0  1  0.64123663  0.74540553  0.37856988  1
  V  V1  1  0.37336804  0.49441250  0.88197511  1
  V  V2  1  0.87711362  0.63020801  0.75217415  1
  V  V3  1  0.37721459  -0.00034730  0.88493308  1
  V  V4  1  0.74998323  0.49758052  0.75405905  1
  V  V5  1  -0.00171607  0.37435989  0.37272945  1
  V  V6  1  0.50145490  0.25113282  0.24886791  1
  V  V7  1  0.12858577  0.12600463  0.00448881  1
  V  V8  1  0.12273859  0.62020731  -0.00571633  1
  V  V9  1  0.37541472  0.12483374  0.24836691  1
  V  V10  1  0.87555534  0.25318677  0.62445179  1
  V  V11  1  0.87162937  0.36866800  0.49529232  1
  V  V12  1  0.50030230  0.86967866  0.37487122  1
  V  V13  1  0.50037558  0.74969167  0.75012633  1
  V  V14  1  0.50066446  0.62378263  0.62492433  1
  V  V15  1  0.12455254  -0.00153884  0.12764583  1
  V  V16  1  0.62564111  0.87802334  0.24228887  1
  V  V17  1  0.74993562  0.36849261  0.62268805  1
  V  V18  1  0.00373443  -0.00126059  0.49857977  1
  V  V19  1  0.50730711  0.24722271  0.75476195  1
  V  V20  1  0.75919028  0.87582332  0.12663142  1
  V  V21  1  0.61905579  0.11838746  -0.00531368  1
  V  V22  1  0.50469451  0.12219858  0.62477206  1
  V  V23  1  0.81715517  0.55433322  0.42231766  1
  V  V24  1  0.00570101  0.62870643  0.62060780  1
  V  V25  1  0.12338240  0.86098959  0.24998127  1
  V  V26  1  0.00400401  0.37846244  0.88454326  1
  V  V27  1  0.37187000  0.62797083  0.25028638  1
  V  V28  1  0.00290387  0.24966481  0.75012691  1
  V  V29  1  0.12580891  0.74565539  0.39320853  1
  V  V30  1  -0.00319399  0.87023662  0.37228585  1
  V  V31  1  0.37498222  0.12285537  0.75037846  1
  V  V32  1  0.24758413  0.49977374  0.23964459  1
  V  V33  1  0.74498296  0.13588867  0.87444254  1
  V  V34  1  0.37643756  -0.00178858  0.37636152  1
  V  V35  1  0.24571511  0.62550926  0.38911021  1
  V  V36  1  0.87596519  0.12480310  0.74938248  1
  V  V37  1  0.37213692  0.50049373  0.37488779  1
  V  V38  1  0.74503747  0.00020115  0.74884861  1
  V  V39  1  0.75489522  0.01253827  0.24328277  1
  V  V40  1  0.50364035  -0.00311537  0.50674600  1
  V  V41  1  0.25057573  0.50289424  0.75628341  1
  V  V42  1  -0.00335403  0.64400172  0.12464259  1
  V  V43  1  0.50312332  0.11039593  0.12142366  1
  V  V44  1  0.50212017  0.62258204  0.12733919  1
  V  V45  1  0.37409418  0.62387974  0.75655731  1
  V  V46  1  0.62798006  0.13659762  0.49904218  1
  V  V47  1  0.87357312  0.62910810  0.24328728  1
  V  V48  1  0.50109518  0.50027821  0.49900888  1
  V  V49  1  0.25048723  0.37318949  0.62516151  1
  V  V50  1  0.00282955  0.76076047  0.75011938  1
  V  V51  1  0.62762997  0.74783835  0.87668099  1
  V  V52  1  0.87267373  -0.00000276  0.87551459  1
  V  V53  1  0.74983174  0.50109660  0.22283490  1
  V  V54  1  0.12607536  0.37601390  0.75123030  1
  V  V55  1  0.00612634  0.12850939  0.61232201  1
  V  V56  1  0.75653843  0.75033252  0.00619829  1
  V  V57  1  0.50252375  0.87850587  0.88560510  1
  V  V58  1  0.24732370  -0.00936326  0.75175275  1
  V  V59  1  0.12702410  0.36657581  0.24945123  1
  V  V60  1  0.12462037  -0.00238966  0.62897209  1
  V  V61  1  0.68518906  -0.05601127  0.57869190  1
  V  V62  1  0.25231253  0.26367043  0.00548994  1
  V  V63  1  0.86314159  0.75745332  0.61653122  1
  V  V64  1  0.62437325  0.49851550  0.62741414  1
  V  V65  1  0.25264038  0.74522689  -0.00205175  1
  V  V66  1  0.24596396  0.12650455  0.38407074  1
  V  V67  1  0.12963986  0.75756130  0.87268415  1
  V  V68  1  0.10625646  0.49762061  0.12587988  1
  V  V69  1  0.12630495  0.24887169  0.87632893  1
  V  V70  1  0.86446230  0.37260250  0.00177549  1
  V  V71  1  0.50399728  0.37000453  0.87910907  1
  V  V72  1  0.62692758  0.61977567  0.00676151  1
  V  V73  1  0.00578390  0.50572727  0.49288465  1
  V  V74  1  0.49911516  0.49331333  0.00467462  1
  V  V75  1  -0.00157771  0.00104057  0.00066791  1
  V  V76  1  0.37230340  0.26286300  0.12304156  1
  V  V77  1  0.75819693  0.13519976  0.37600273  1
  V  V78  1  0.37542191  0.37086796  0.49938509  1
  V  V79  1  0.36728049  0.86819116  0.50621570  1
  V  V80  1  0.62833804  0.87530115  0.74719547  1
  V  V81  1  0.12487108  0.50236304  0.62202695  1
  V  V82  1  0.62536741  0.38279695  0.23540687  1
  V  V83  1  0.88295099  0.50144778  0.87672914  1
  V  V84  1  0.24925125  -0.00245070  0.25149995  1
  Zn  Zn85  1  0.73778357  0.25566091  0.00787089  1
  Zn  Zn86  1  0.00288252  0.87924794  0.87161714  1
  Zn  Zn87  1  0.50268910  0.74769561  0.25020131  1
  Zn  Zn88  1  0.86220903  0.87806949  0.49711732  1
  Zn  Zn89  1  0.62637271  0.25339706  0.37227172  1
  Zn  Zn90  1  0.36659096  0.74399100  0.62291382  1
  Zn  Zn91  1  0.25238322  0.87117295  0.12481284  1
  Zn  Zn92  1  0.87866981  0.87132087  0.00145846  1
  Zn  Zn93  1  0.50145518  0.37484567  0.37336546  1
  Zn  Zn94  1  0.24517441  0.24469641  0.50505614  1
  Zn  Zn95  1  0.23638295  0.86342630  0.62701004  1
  Zn  Zn96  1  0.11728713  0.24437449  0.38232016  1
  Zn  Zn97  1  -0.00379960  0.13167369  0.15145867  1
  Zn  Zn98  1  0.37731569  0.87403400  0.00441972  1
  Zn  Zn99  1  0.88167340  0.00819969  0.37012117  1
  Zn  Zn100  1  0.37479343  0.75017065  0.12368776  1
  Zn  Zn101  1  0.63951937  0.62678311  0.49676520  1
  Zn  Zn102  1  0.62879812  0.36745984  0.75519108  1
  Zn  Zn103  1  0.25188776  0.12480613  0.87537373  1
  Zn  Zn104  1  0.86420001  0.24033571  0.14854371  1
  Zn  Zn105  1  0.37551543  0.24729420  0.62646734  1
  Zn  Zn106  1  0.75205375  0.62602657  0.87791314  1
  Zn  Zn107  1  0.18921578  0.18589128  0.18897434  1
  Zn  Zn108  1  0.18876675  0.18354189  0.68740122  1
  Zn  Zn109  1  0.18813789  0.68294869  0.18434740  1
  Zn  Zn110  1  0.18819126  0.68806670  0.68861591  1
  Zn  Zn111  1  0.68286687  0.19121837  0.18084932  1
  Zn  Zn112  1  0.68608174  0.18388089  0.68453416  1
  Zn  Zn113  1  0.68903204  0.68882363  0.18968529  1
  Zn  Zn114  1  0.68727507  0.68488884  0.68820385  1
  Zn  Zn115  1  0.31164216  0.31259320  0.31048570  1
  Zn  Zn116  1  0.31619516  0.31212722  0.81550291  1
  Zn  Zn117  1  0.30840325  0.80955568  0.31626636  1
  Zn  Zn118  1  0.31339416  0.81073728  0.81603697  1
  Zn  Zn119  1  0.80270260  0.32716459  0.31612543  1
  Zn  Zn120  1  0.81655462  0.31282046  0.81485878  1
  Zn  Zn121  1  0.81493581  0.81441119  0.30873294  1
  Zn  Zn122  1  0.81148826  0.81510760  0.81204768  1
  Zn  Zn123  1  0.18697162  0.43679792  0.43546017  1
  Zn  Zn124  1  0.18741895  0.44120776  0.94147526  1
  Zn  Zn125  1  0.18385392  0.93871906  0.43854918  1
  Zn  Zn126  1  0.19102139  0.93451579  0.93871897  1
  Zn  Zn127  1  0.67957505  0.42994007  0.43767530  1
  Zn  Zn128  1  0.68454214  0.44094666  0.93634457  1
  Zn  Zn129  1  0.68575478  0.94480626  0.41342274  1
  Zn  Zn130  1  0.68634175  0.94003680  0.94016613  1
  Zn  Zn131  1  0.31134249  0.06645073  0.06500997  1
  Zn  Zn132  1  0.31479131  0.05529542  0.56583388  1
  Zn  Zn133  1  0.31096450  0.56473302  0.06171676  1
  Zn  Zn134  1  0.31525763  0.55879435  0.56730812  1
  Zn  Zn135  1  0.80599441  0.06452218  0.06207759  1
  Zn  Zn136  1  0.82242057  0.07196734  0.55315008  1
  Zn  Zn137  1  0.82039891  0.56257378  0.05854512  1
  Zn  Zn138  1  0.81809867  0.56049012  0.58318608  1
  Zn  Zn139  1  0.43848509  0.43986733  0.18783920  1
  Zn  Zn140  1  0.43716280  0.43416709  0.69082355  1
  Zn  Zn141  1  0.43458254  0.93317501  0.18843244  1
  Zn  Zn142  1  0.43858022  0.93726470  0.69071402  1
  Zn  Zn143  1  0.92026222  0.40794572  0.20421095  1
  Zn  Zn144  1  0.94007295  0.43864689  0.68871794  1
  Zn  Zn145  1  0.93890612  0.93943731  0.18920998  1
  Zn  Zn146  1  0.93399926  0.93841547  0.68372533  1
  Zn  Zn147  1  0.06642579  0.05814578  0.31515053  1
  Zn  Zn148  1  0.06263356  0.06481198  0.81281869  1
  Zn  Zn149  1  0.05994862  0.56640038  0.30844843  1
  Zn  Zn150  1  0.06325278  0.56708870  0.81060091  1
  Zn  Zn151  1  0.56567428  0.06211867  0.31260717  1
  Zn  Zn152  1  0.56296622  0.05927245  0.81373989  1
  Zn  Zn153  1  0.56646439  0.56192939  0.31250478  1
  Zn  Zn154  1  0.56250157  0.56017501  0.81669160  1
  Zn  Zn155  1  0.43666021  0.18574208  0.43621687  1
  Zn  Zn156  1  0.43683614  0.18740949  0.94112065  1
  Zn  Zn157  1  0.43803300  0.68712144  0.43626007  1
  Zn  Zn158  1  0.43957225  0.68433093  0.93724151  1
  Zn  Zn159  1  0.93507697  0.20423583  0.31224853  1
  Zn  Zn160  1  0.93664895  0.18947061  1.01115013  1
  Zn  Zn161  1  0.94058786  0.69331805  0.43740619  1
  Zn  Zn162  1  0.94289234  0.68822336  0.93875967  1
  Zn  Zn163  1  0.06150285  0.31427476  0.06855991  1
  Zn  Zn164  1  0.06269825  0.31391701  0.55631462  1
  Zn  Zn165  1  0.06718880  0.81505831  0.05795767  1
  Zn  Zn166  1  0.05750416  0.81698289  0.56393036  1
  Zn  Zn167  1  0.56125403  0.30454037  0.06116626  1
  Zn  Zn168  1  0.55990113  0.31187918  0.56776146  1
  Zn  Zn169  1  0.56586101  0.80676918  0.06557430  1
  Zn  Zn170  1  0.55818801  0.80362162  0.55775223  1
  O  O171  1  0.12208364  0.11776829  0.11978247  1
  O  O172  1  0.11660036  0.11400075  0.63033078  1
  O  O173  1  0.11169778  0.61968161  0.12072946  1
  O  O174  1  0.11175761  0.61906630  0.63212723  1
  O  O175  1  0.60851173  0.12410425  0.11867210  1
  O  O176  1  0.61867617  0.12546412  0.61257128  1
  O  O177  1  0.61657683  0.62985374  0.11677652  1
  O  O178  1  0.61931974  0.61868348  0.61964842  1
  O  O179  1  0.37614470  0.38133111  0.38302962  1
  O  O180  1  0.38657596  0.38682730  0.87132658  1
  O  O181  1  0.38119600  0.87784845  0.38325230  1
  O  O182  1  0.38596974  0.88130828  0.87677503  1
  O  O183  1  0.88169542  0.38264458  0.38572381  1
  O  O184  1  0.88553212  0.38481490  0.87448048  1
  O  O185  1  0.88351154  0.87534321  0.37683497  1
  O  O186  1  0.87408505  0.88856102  0.87593267  1
  O  O187  1  0.25398562  0.00806322  0.37235518  1
  O  O188  1  0.25773640  0.00025855  0.86808711  1
  O  O189  1  0.25353453  0.50754060  0.36662926  1
  O  O190  1  0.25955384  0.49421272  0.86803573  1
  O  O191  1  0.75785616  0.01536162  0.36281280  1
  O  O192  1  0.75365221  0.00477036  0.86577577  1
  O  O193  1  0.75175687  0.49826459  0.37088034  1
  O  O194  1  0.75754233  0.50303509  0.86461628  1
  O  O195  1  0.24342380  0.50696146  0.13708905  1
  O  O196  1  0.24708748  0.49007654  0.63371897  1
  O  O197  1  0.23890179  0.99918221  0.13065629  1
  O  O198  1  0.24128231  0.99744798  0.63306336  1
  O  O199  1  0.74636315  0.50051787  0.12434584  1
  O  O200  1  0.74639649  0.49099828  0.63772684  1
  O  O201  1  0.74794073  0.99524416  0.13629429  1
  O  O202  1  0.75224824  1.00774551  0.62997033  1
  O  O203  1  0.01713811  0.38888073  0.26161096  1
  O  O204  1  0.00781940  0.36930655  0.75511783  1
  O  O205  1  0.00884341  0.88131104  0.26292841  1
  O  O206  1  -0.00431563  0.86376536  0.74916503  1
  O  O207  1  0.50676685  0.37028077  0.25101990  1
  O  O208  1  0.50087762  0.36390552  0.75744711  1
  O  O209  1  0.50775996  0.87442381  0.25804748  1
  O  O210  1  0.51097825  0.87047656  0.75654086  1
  O  O211  1  0.49779562  0.12991108  0.24169801  1
  O  O212  1  0.49499133  0.12747433  0.74644260  1
  O  O213  1  0.49225132  0.62245189  0.24378207  1
  O  O214  1  0.49668720  0.62597717  0.74166156  1
  O  O215  1  0.99788418  0.12662875  0.26271410  1
  O  O216  1  0.99380724  0.13169248  0.74402723  1
  O  O217  1  0.99007753  0.62042682  0.23438703  1
  O  O218  1  0.98964682  0.63212711  0.74374849  1
  O  O219  1  0.36405925  0.24461458  0.00980891  1
  O  O220  1  0.37441893  0.26112660  0.50202966  1
  O  O221  1  0.36548347  0.74661131  -0.00295208  1
  O  O222  1  0.38051495  0.76497561  0.50068003  1
  O  O223  1  0.86459881  0.26936765  -0.02247550  1
  O  O224  1  0.87527481  0.26775339  0.51071395  1
  O  O225  1  0.86020832  0.75230704  -0.00987575  1
  O  O226  1  0.87543981  0.75315018  0.51264821  1
  O  O227  1  0.13388709  0.25711666  0.49469773  1
  O  O228  1  0.13072841  0.24355257  0.99553496  1
  O  O229  1  0.12353862  0.75224551  0.49163146  1
  O  O230  1  0.13055492  0.74289720  0.99165215  1
  O  O231  1  0.61754491  0.23969838  0.49635045  1
  O  O232  1  0.62294881  0.23125613  1.00147084  1
  O  O233  1  0.62408198  0.74573637  0.48502695  1
  O  O234  1  0.63324081  0.74101076  0.99313979  1
  O  O235  1  0.49070137  0.24188713  0.13452241  1
  O  O236  1  0.49571431  0.24205209  0.63535908  1
  O  O237  1  0.49721693  0.73656213  0.12828629  1
  O  O238  1  0.49551631  0.73884292  0.63138585  1
  O  O239  1  0.98741920  0.24071815  0.10566337  1
  O  O240  1  0.99793675  0.24550952  0.62969235  1
  O  O241  1  1.00304098  0.74257982  0.12429924  1
  O  O242  1  0.99446106  0.74468153  0.63154281  1
  O  O243  1  0.00084928  0.27060458  0.38251702  1
  O  O244  1  0.01666298  0.26020195  0.86897311  1
  O  O245  1  0.01415953  0.75595407  0.37614409  1
  O  O246  1  0.00582629  0.75436136  0.86692455  1
  O  O247  1  0.49755929  0.24792076  0.35877917  1
  O  O248  1  0.49209838  0.25895842  0.86922650  1
  O  O249  1  0.50269755  0.76109136  0.37356966  1
  O  O250  1  0.51162225  0.75415057  0.87015791  1
  O  O251  1  0.26204735  0.12332323  0.48716509  1
  O  O252  1  0.23842612  0.12971037  0.99803711  1
  O  O253  1  0.25574997  0.61560292  0.48829552  1
  O  O254  1  0.23737974  0.63447192  1.00407392  1
  O  O255  1  0.74311830  0.12310981  0.48474191  1
  O  O256  1  0.73811172  0.12571391  0.98843780  1
  O  O257  1  0.76074149  0.60772771  0.49050570  1
  O  O258  1  0.74385916  0.63128145  1.00004600  1
  O  O259  1  0.24535134  0.36287247  0.00127845  1
  O  O260  1  0.26020378  0.37876811  0.50912378  1
  O  O261  1  0.25153297  0.85963314  0.00153588  1
  O  O262  1  0.26540231  0.88299543  0.50175508  1
  O  O263  1  0.75974142  0.37522449  -0.01085493  1
  O  O264  1  0.75758448  0.38487590  0.51148760  1
  O  O265  1  0.74782189  0.86889204  0.00964358  1
  O  O266  1  0.74265008  0.89520492  0.50519333  1
  O  O267  1  0.13170356  0.49719397  0.24278593  1
  O  O268  1  0.13351011  0.49713918  0.74612393  1
  O  O269  1  0.13103997  0.99036689  0.24391303  1
  O  O270  1  0.13665383  1.00481577  0.74559374  1
  O  O271  1  0.63258895  0.49179896  0.24881417  1
  O  O272  1  0.63510307  0.50072569  0.74643179  1
  O  O273  1  0.63978373  0.98844383  0.26091267  1
  O  O274  1  0.63605311  0.99296697  0.74870829  1
  O  O275  1  0.36849661  0.00233552  0.25775053  1
  O  O276  1  0.37114286  0.00789672  0.75736139  1
  O  O277  1  0.36769730  0.50832112  0.25452606  1
  O  O278  1  0.36911858  0.50340927  0.75765756  1
  O  O279  1  0.85898272  -0.00088091  0.25032521  1
  O  O280  1  0.86354672  0.00250662  0.75257667  1
  O  O281  1  0.85565675  0.50062004  0.24073525  1
  O  O282  1  0.87016837  0.50850119  0.75523798  1
  O  O283  1  0.11906495  0.37556384  0.36482651  1
  O  O284  1  0.12108167  0.37276234  0.87085010  1
  O  O285  1  0.12187019  0.86319256  0.37085208  1
  O  O286  1  0.12286485  0.86205472  0.87694355  1
  O  O287  1  0.61951829  0.37132162  0.36269440  1
  O  O288  1  0.60945581  0.38075044  0.87155445  1
  O  O289  1  0.61782876  0.86449528  0.36715755  1
  O  O290  1  0.62074509  0.86915399  0.86846210  1
  O  O291  1  0.38508057  0.12858460  0.13084287  1
  O  O292  1  0.38340164  0.12306498  0.63318963  1
  O  O293  1  0.38088764  0.62612406  0.13479468  1
  O  O294  1  0.38367505  0.62090988  0.63823667  1
  O  O295  1  0.88578717  0.13071744  0.10368856  1
  O  O296  1  0.88285021  0.13465525  0.62984762  1
  O  O297  1  0.88928910  0.62389921  0.12658563  1
  O  O298  1  0.88603417  0.63580092  0.63391581  1
  O  O299  1  0.25956727  0.24338540  0.11759835  1
  O  O300  1  0.25367668  0.26159064  0.62772110  1
  O  O301  1  0.25110020  0.74895158  0.11437681  1
  O  O302  1  0.25431549  0.75263579  0.62958520  1
  O  O303  1  0.75517619  0.24769777  0.12036022  1
  O  O304  1  0.75485472  0.26261106  0.63226807  1
  O  O305  1  0.74509870  0.76071051  0.11656314  1
  O  O306  1  0.76524205  0.74304639  0.62714597  1
  O  O307  1  0.25615783  0.23263256  0.37495395  1
  O  O308  1  0.24142456  0.25110278  0.88204265  1
  O  O309  1  0.23575939  0.74117992  0.37603014  1
  O  O310  1  0.24106573  0.74829318  0.88052825  1
  O  O311  1  0.74567723  0.23867674  0.36617992  1
  O  O312  1  0.74783176  0.23713385  0.86798589  1
  O  O313  1  0.73943191  0.75455221  0.37553424  1
  O  O314  1  0.73934511  0.74981716  0.87905491  1
  O  O315  1  0.01699787  0.11043502  -0.01095717  1
  O  O316  1  -0.00176102  0.11705400  0.51256035  1
  O  O317  1  0.00676637  0.62820921  0.01424689  1
  O  O318  1  -0.00557852  0.61831387  0.50911361  1
  O  O319  1  0.50451025  0.12397532  0.01128557  1
  O  O320  1  0.50819696  0.11538212  0.50137298  1
  O  O321  1  0.50735915  0.61788339  0.00700082  1
  O  O322  1  0.49467570  0.61712721  0.51247743  1
  O  O323  1  0.49323673  0.38198338  0.50033022  1
  O  O324  1  0.50446161  0.38558695  0.99611840  1
  O  O325  1  0.49458754  0.88019757  0.49400937  1
  O  O326  1  0.50259447  0.86713526  0.98870816  1
  O  O327  1  0.98941158  0.38876825  0.49760737  1
  O  O328  1  0.99410838  0.37394781  0.98630037  1
  O  O329  1  0.99746385  0.88106124  0.48859922  1
  O  O330  1  0.99968181  0.88851732  0.99779397  1
  O  O331  1  0.49266440  0.50183299  0.38489163  1
  O  O332  1  0.49292966  0.49366609  0.88371154  1
  O  O333  1  0.49984191  0.98847360  0.38488023  1
  O  O334  1  0.49116444  0.98905880  0.87022016  1
  O  O335  1  1.00836628  0.49627981  0.38709180  1
  O  O336  1  0.99332646  0.49206341  0.86529089  1
  O  O337  1  1.00127716  0.99112848  0.38383203  1
  O  O338  1  0.99122120  0.99915350  0.87902012  1
  O  O339  1  0.01031120  0.00212656  0.11872921  1
  O  O340  1  0.00486349  0.00764300  0.62238646  1
  O  O341  1  0.00745972  0.50066063  0.12768769  1
  O  O342  1  0.00233307  0.50881331  0.61672237  1
  O  O343  1  0.49587141  0.01233445  0.13030457  1
  O  O344  1  0.49810533  0.00303613  0.61343506  1
  O  O345  1  0.49388008  0.51142246  0.11628782  1
  O  O346  1  0.50435067  0.50402081  0.62100752  1
  O  O347  1  0.23640860  0.38531344  0.25739857  1
  O  O348  1  0.24847259  0.38305676  0.74481627  1
  O  O349  1  0.24206159  0.88127467  0.25173142  1
  O  O350  1  0.26016027  0.88776320  0.74727724  1
  O  O351  1  0.73498662  0.38945821  0.24616580  1
  O  O352  1  0.74982633  0.38242363  0.74606393  1
  O  O353  1  0.74516537  0.88360197  0.24405540  1
  O  O354  1  0.73702101  0.88116252  0.75000839  1
  O  O355  1  0.25619393  0.11663680  0.25829286  1
  O  O356  1  0.26109728  0.11655905  0.75181830  1
  O  O357  1  0.25599332  0.61848884  0.25742623  1
  O  O358  1  0.25949294  0.61058490  0.74740524  1
  O  O359  1  0.73997083  0.11641738  0.25653348  1
  O  O360  1  0.75245409  0.11751416  0.75367119  1
  O  O361  1  0.75347895  0.60857249  0.24197628  1
  O  O362  1  0.76241169  0.61812780  0.75052443  1
  O  O363  1  0.37098011  0.11612400  0.36818967  1
  O  O364  1  0.37553144  0.11632105  0.86900415  1
  O  O365  1  0.36773470  0.62021528  0.37002527  1
  O  O366  1  0.38453399  0.61233342  0.86251742  1
  O  O367  1  0.86080321  0.13181228  0.37522995  1
  O  O368  1  0.86250042  0.11158650  0.86558770  1
  O  O369  1  0.87796644  0.61810829  0.36788337  1
  O  O370  1  0.87687213  0.61959314  0.86855040  1
  O  O371  1  0.12152347  0.38161025  0.13939635  1
  O  O372  1  0.13244805  0.38115943  0.63269009  1
  O  O373  1  0.12615531  0.88167613  0.13332612  1
  O  O374  1  0.12123231  0.89045470  0.62513582  1
  O  O375  1  0.61484728  0.37576534  0.13684819  1
  O  O376  1  0.63269123  0.38038054  0.62871155  1
  O  O377  1  0.63087618  0.87007921  0.13833466  1
  O  O378  1  0.62234100  0.87315136  0.62935864  1
  O  O379  1  0.13087215  0.26370150  0.25459251  1
  O  O380  1  0.12541776  0.25491647  0.75796338  1
  O  O381  1  0.12989598  0.75960725  0.25251627  1
  O  O382  1  0.11396654  0.73919970  0.76170307  1
  O  O383  1  0.61592525  0.26163557  0.24796186  1
  O  O384  1  0.61125031  0.24677210  0.74824667  1
  O  O385  1  0.62456709  0.75753046  0.26146412  1
  O  O386  1  0.62222189  0.75462235  0.75629592  1
  O  O387  1  0.37946756  0.24432807  0.24304788  1
  O  O388  1  0.38190503  0.23619551  0.75195919  1
  O  O389  1  0.37577445  0.73689304  0.25331097  1
  O  O390  1  0.38327174  0.73933387  0.75391356  1
  O  O391  1  0.88634246  0.28930300  0.24957212  1
  O  O392  1  0.88308002  0.24619616  0.74457213  1
  O  O393  1  0.86298618  0.72828738  0.25191333  1
  O  O394  1  0.88032330  0.74550036  0.74442409  1
  O  O395  1  0.38444201  0.49001349  0.49876553  1
  O  O396  1  0.38354969  0.50686355  0.99161575  1
  O  O397  1  0.38548378  0.99038694  0.49519034  1
  O  O398  1  0.36750880  0.99865350  0.98797818  1
  O  O399  1  0.87741302  0.50091944  0.49428891  1
  O  O400  1  0.87126963  0.49110582  0.98291059  1
  O  O401  1  0.88941583  0.99783668  0.49722695  1
  O  O402  1  0.88245675  0.99964627  0.99110042  1
  O  O403  1  0.12310962  0.00449647  0.00777292  1
  O  O404  1  0.11268081  -0.00206401  0.50858886  1
  O  O405  1  0.13003476  0.50967710  0.01213840  1
  O  O406  1  0.11665034  0.49483777  0.50921519  1
  O  O407  1  0.62643907  0.01649450  0.00029488  1
  O  O408  1  0.62226811  0.00080426  0.50424323  1
  O  O409  1  0.61561246  0.51270651  -0.00568865  1
  O  O410  1  0.61361977  0.50320842  0.50446692  1
  O  O411  1  0.37670858  0.36252817  0.13015046  1
  O  O412  1  0.36747814  0.37397692  0.61879503  1
  O  O413  1  0.37196063  0.86883064  0.12176727  1
  O  O414  1  0.37890355  0.87469002  0.61165245  1
  O  O415  1  0.87903040  0.37803815  0.10055743  1
  O  O416  1  0.86806577  0.37510268  0.62098248  1
  O  O417  1  0.86352165  0.87848320  0.12326263  1
  O  O418  1  0.87452479  0.86140403  0.62165640  1
  O  O419  1  0.14317182  0.12471340  0.37356678  1
  O  O420  1  0.12937644  0.13468659  0.88115199  1
  O  O421  1  0.12950172  0.63809091  0.37229550  1
  O  O422  1  0.11584478  0.63154496  0.88955261  1
  O  O423  1  0.63308660  0.12661621  0.38306807  1
  O  O424  1  0.63015852  0.12056726  0.88309553  1
  O  O425  1  0.62219491  0.64060137  0.37620013  1
  O  O426  1  0.62675873  0.63313358  0.88247758  1
