# generated using pymatgen
data_V85Zn86O256
_symmetry_space_group_name_H-M   'P 1'
_cell_length_a   16.99056408
_cell_length_b   16.98758569
_cell_length_c   16.96678779
_cell_angle_alpha   90.09953036
_cell_angle_beta   90.03816416
_cell_angle_gamma   89.95779245
_symmetry_Int_Tables_number   1
_chemical_formula_structural   V85Zn86O256
_chemical_formula_sum   'V85 Zn86 O256'
_cell_volume   4897.09147678
_cell_formula_units_Z   1
loop_
 _symmetry_equiv_pos_site_id
 _symmetry_equiv_pos_as_xyz
  1  'x, y, z'
loop_
 _atom_site_type_symbol
 _atom_site_label
 _atom_site_symmetry_multiplicity
 _atom_site_fract_x
 _atom_site_fract_y
 _atom_site_fract_z
 _atom_site_occupancy
  V  V0  1  0.63379082  0.24343840  0.37407349  1
  V  V1  1  0.62528819  0.24927939  0.87592538  1
  V  V2  1  0.37601463  0.24805013  0.62513333  1
  V  V3  1  0.62293889  0.00176329  0.12496991  1
  V  V4  1  0.74938968  0.74801817  0.00092817  1
  V  V5  1  0.38209478  0.37322160  0.49499847  1
  V  V6  1  0.87858349  0.87395833  -0.00012257  1
  V  V7  1  0.62318278  0.87487767  0.24967594  1
  V  V8  1  0.87620630  0.50149315  0.87302838  1
  V  V9  1  0.49857201  0.37291582  0.87530583  1
  V  V10  1  0.48977808  0.12863149  0.12330931  1
  V  V11  1  0.75027982  0.50130069  0.25716984  1
  V  V12  1  0.25540010  0.12393439  0.37372818  1
  V  V13  1  0.24703004  0.74672009  -0.00176106  1
  V  V14  1  0.12657082  -0.00301471  0.63620779  1
  V  V15  1  0.24713458  0.74027056  0.49427697  1
  V  V16  1  0.62637794  0.61929926  0.50216180  1
  V  V17  1  0.50043910  0.11862021  0.62007336  1
  V  V18  1  0.75108623  0.37543763  0.12676981  1
  V  V19  1  0.87925102  0.24718585  0.13010391  1
  V  V20  1  0.76095148  0.00972946  0.26070672  1
  V  V21  1  0.25487426  0.87564661  0.12343751  1
  V  V22  1  0.11549716  0.50372667  0.62373081  1
  V  V23  1  0.49776476  0.87498220  0.37424821  1
  V  V24  1  0.24614361  0.61998619  0.86391175  1
  V  V25  1  0.12821550  0.87528033  0.25184236  1
  V  V26  1  0.88249836  0.62633915  0.74779885  1
  V  V27  1  0.49945716  0.49792436  0.00039035  1
  V  V28  1  0.49641213  0.62419124  0.12706512  1
  V  V29  1  0.12522031  0.12122153  0.50332750  1
  V  V30  1  0.12152046  0.75526837  0.85949919  1
  V  V31  1  -0.00085522  0.62772243  0.60837930  1
  V  V32  1  0.00041834  -0.00048338  0.00075157  1
  V  V33  1  0.75044529  0.75720736  0.51730354  1
  V  V34  1  0.74966971  0.12308978  0.87721049  1
  V  V35  1  0.87245660  0.87626379  0.48964618  1
  V  V36  1  0.62509441  0.49732607  0.12489842  1
  V  V37  1  -0.05541714  0.19624618  0.30932153  1
  V  V38  1  0.37051813  0.49763886  0.86817740  1
  V  V39  1  0.87491840  0.62558377  0.24667037  1
  V  V40  1  0.00315516  0.49644446  -0.00406386  1
  V  V41  1  0.49573497  0.75033317  0.75247063  1
  V  V42  1  0.85628778  0.26866370  0.61825943  1
  V  V43  1  0.37117191  0.87770279  0.49927940  1
  V  V44  1  0.12593500  0.00209948  0.12391584  1
  V  V45  1  0.25044439  0.36616819  0.12750360  1
  V  V46  1  0.00916652  0.36241600  0.85754814  1
  V  V47  1  0.50079730  0.24692410  0.75078793  1
  V  V48  1  0.37524017  0.87646715  -0.01614585  1
  V  V49  1  0.00113678  0.75109937  0.24734483  1
  V  V50  1  0.12830886  0.25323911  0.37256679  1
  V  V51  1  0.74991577  0.63495538  0.37213437  1
  V  V52  1  0.12873963  0.73750489  0.37333768  1
  V  V53  1  0.62263730  0.12229821  0.00017694  1
  V  V54  1  0.25076268  0.38640678  0.63946923  1
  V  V55  1  0.00047318  0.13025219  0.12915669  1
  V  V56  1  0.12887039  0.49851166  0.12414402  1
  V  V57  1  0.74621781  -0.00763789  0.74431703  1
  V  V58  1  0.00116979  0.62391752  0.12244519  1
  V  V59  1  0.49214639  0.25219339  0.25207406  1
  V  V60  1  0.61704538  0.75420338  0.87744506  1
  V  V61  1  0.87360182  -0.00103045  0.87711346  1
  V  V62  1  0.85855138  0.38485926  0.49527816  1
  V  V63  1  0.63700977  0.12119906  0.49377761  1
  V  V64  1  0.37509217  0.36915337  0.00510694  1
  V  V65  1  0.37345702  0.74820321  0.62344142  1
  V  V66  1  0.37846539  0.49995729  0.37534712  1
  V  V67  1  0.24807087  0.25452543  0.50221069  1
  V  V68  1  0.24653589  0.87653162  0.63407138  1
  V  V69  1  0.12299625  0.13204251  -0.00536899  1
  V  V70  1  0.62097968  0.37428665  0.26239120  1
  V  V71  1  0.49528156  -0.00490256  -0.01194665  1
  V  V72  1  -0.00184192  0.00254436  0.49458724  1
  V  V73  1  0.87375759  0.13056513  0.74441270  1
  V  V74  1  0.37302516  0.10978805  0.75284942  1
  V  V75  1  0.74823673  0.87789981  0.12315477  1
  V  V76  1  0.11572939  0.37580607  0.25388291  1
  V  V77  1  0.87474440  0.37170191  -0.00145712  1
  V  V78  1  0.62475072  0.86863841  0.74230951  1
  V  V79  1  0.62357792  0.62312688  0.00052402  1
  V  V80  1  0.36759512  0.62527666  0.25332284  1
  V  V81  1  0.24932262  0.25118463  -0.01087301  1
  V  V82  1  0.24934614  0.11120216  0.86955669  1
  V  V83  1  0.50128000  0.61684623  0.62221056  1
  V  V84  1  0.93510901  0.80233175  0.68286377  1
  Zn  Zn85  1  0.74979901  0.62517703  0.87097129  1
  Zn  Zn86  1  0.37123167  0.12619178  0.24352597  1
  Zn  Zn87  1  0.75028525  0.24938542  0.00291532  1
  Zn  Zn88  1  0.62591754  -0.00835494  0.61862381  1
  Zn  Zn89  1  0.62898782  0.38348063  0.72746290  1
  Zn  Zn90  1  0.25343979  0.00157266  0.24875549  1
  Zn  Zn91  1  0.49740283  0.74954403  0.24937729  1
  Zn  Zn92  1  0.87674748  0.74892133  0.12260870  1
  Zn  Zn93  1  0.24806874  0.50086362  0.25955004  1
  Zn  Zn94  1  0.37421019  0.74841316  0.12395972  1
  Zn  Zn95  1  0.02401202  0.40304750  0.42228465  1
  Zn  Zn96  1  0.12505225  0.62495010  -0.00491090  1
  Zn  Zn97  1  -0.00196434  0.87927088  0.37014531  1
  Zn  Zn98  1  0.49976548  -0.00002313  0.49682116  1
  Zn  Zn99  1  0.74990318  0.49808147  0.72895659  1
  Zn  Zn100  1  0.88867330  0.50719162  0.38128437  1
  Zn  Zn101  1  0.00331777  0.87244776  0.86219320  1
  Zn  Zn102  1  0.37229061  0.61767048  0.74461458  1
  Zn  Zn103  1  0.37478794  0.00004296  0.36943266  1
  Zn  Zn104  1  0.03110817  0.16390772  0.66938035  1
  Zn  Zn105  1  0.50831924  0.48845803  0.49719503  1
  Zn  Zn106  1  0.62358968  0.75147227  0.37545913  1
  Zn  Zn107  1  0.18704621  0.19017222  0.18652219  1
  Zn  Zn108  1  0.19262341  0.19501860  0.69056935  1
  Zn  Zn109  1  0.18778525  0.68677490  0.18514885  1
  Zn  Zn110  1  0.18441485  0.68454010  0.68175724  1
  Zn  Zn111  1  0.68686508  0.18764515  0.18857709  1
  Zn  Zn112  1  0.68365161  0.18159622  0.68834931  1
  Zn  Zn113  1  0.68505075  0.68957969  0.18503923  1
  Zn  Zn114  1  0.68907020  0.67511003  0.68855824  1
  Zn  Zn115  1  0.31242752  0.31672425  0.31286581  1
  Zn  Zn116  1  0.31581199  0.30536088  0.81455884  1
  Zn  Zn117  1  0.31325450  0.81018137  0.31169430  1
  Zn  Zn118  1  0.30940040  0.80629589  0.81083560  1
  Zn  Zn119  1  0.80805712  0.32019584  0.32211364  1
  Zn  Zn120  1  0.81474946  0.31177017  0.81117252  1
  Zn  Zn121  1  0.81220219  0.81636280  0.30772163  1
  Zn  Zn122  1  0.80630794  0.81323082  0.81942495  1
  Zn  Zn123  1  0.19722687  0.44541968  0.44527408  1
  Zn  Zn124  1  0.18557516  0.43464179  0.93177634  1
  Zn  Zn125  1  0.18961774  0.93612881  0.43817717  1
  Zn  Zn126  1  0.18539927  0.93504241  0.93642780  1
  Zn  Zn127  1  0.68736468  0.44325467  0.56170156  1
  Zn  Zn128  1  0.68949245  0.43795499  0.87182324  1
  Zn  Zn129  1  0.68788397  0.93703760  0.43500714  1
  Zn  Zn130  1  0.68370801  0.93454851  0.93424067  1
  Zn  Zn131  1  0.31208552  0.05993628  0.05626562  1
  Zn  Zn132  1  0.30994441  0.06045111  0.56379833  1
  Zn  Zn133  1  0.31148479  0.55916907  0.05838266  1
  Zn  Zn134  1  0.31468025  0.56016903  0.55879882  1
  Zn  Zn135  1  0.81226789  0.06440477  0.06766244  1
  Zn  Zn136  1  0.80933234  0.05555216  0.56048831  1
  Zn  Zn137  1  0.81272325  0.55971472  0.06101620  1
  Zn  Zn138  1  0.81944874  0.57096400  0.55893976  1
  Zn  Zn139  1  0.43610986  0.43635487  0.18936932  1
  Zn  Zn140  1  0.44182620  0.43291160  0.68535035  1
  Zn  Zn141  1  0.43614218  0.94095951  0.18544384  1
  Zn  Zn142  1  0.43958142  0.93196290  0.68740840  1
  Zn  Zn143  1  0.93826074  0.43850956  0.18912646  1
  Zn  Zn144  1  0.93662474  0.44392599  0.68386035  1
  Zn  Zn145  1  0.93821946  0.93856680  0.18517610  1
  Zn  Zn146  1  0.93604921  0.96547461  0.68014250  1
  Zn  Zn147  1  0.07077422  0.05969138  0.31706215  1
  Zn  Zn148  1  0.06231200  0.05959121  0.81951007  1
  Zn  Zn149  1  0.06341155  0.56178924  0.31026996  1
  Zn  Zn150  1  0.06419384  0.56119637  0.80410594  1
  Zn  Zn151  1  0.56074606  0.06103766  0.31033815  1
  Zn  Zn152  1  0.56219679  0.06003190  0.80917829  1
  Zn  Zn153  1  0.56018690  0.56188989  0.31614953  1
  Zn  Zn154  1  0.55964756  0.56628965  0.81360262  1
  Zn  Zn155  1  0.44080325  0.18948292  0.43519437  1
  Zn  Zn156  1  0.43293535  0.18339584  0.93712505  1
  Zn  Zn157  1  0.43716608  0.68808346  0.43564133  1
  Zn  Zn158  1  0.43251616  0.68537919  0.93737379  1
  Zn  Zn159  1  0.95786844  0.22358482  0.48330025  1
  Zn  Zn160  1  0.93791941  0.18955359  0.93604194  1
  Zn  Zn161  1  0.93309682  0.69707073  0.43205892  1
  Zn  Zn162  1  0.94150132  0.68768623  0.93510322  1
  Zn  Zn163  1  0.06127867  0.31238869  0.06133770  1
  Zn  Zn164  1  0.05673388  0.31358064  0.60000351  1
  Zn  Zn165  1  0.06605974  0.81209064  0.06152535  1
  Zn  Zn166  1  0.06740588  0.81812786  0.55352700  1
  Zn  Zn167  1  0.56410076  0.31000604  0.06528934  1
  Zn  Zn168  1  0.56377382  0.30176338  0.55797531  1
  Zn  Zn169  1  0.55761001  0.81286958  0.06242092  1
  Zn  Zn170  1  0.56004843  0.80590676  0.56101974  1
  O  O171  1  0.12009829  0.12248854  0.11858154  1
  O  O172  1  0.13182462  0.11076972  0.61750717  1
  O  O173  1  0.12051483  0.61439727  0.12132599  1
  O  O174  1  0.10690587  0.62309719  0.62456971  1
  O  O175  1  0.61800050  0.11753343  0.11868701  1
  O  O176  1  0.61693073  0.12310732  0.61182444  1
  O  O177  1  0.61605492  0.61845625  0.12176533  1
  O  O178  1  0.61257653  0.63615533  0.61358614  1
  O  O179  1  0.37378345  0.38437460  0.38263874  1
  O  O180  1  0.37980044  0.37823695  0.88220106  1
  O  O181  1  0.38035171  0.87603258  0.38102006  1
  O  O182  1  0.36825626  0.87042423  0.88492196  1
  O  O183  1  0.87798793  0.37867216  0.39003842  1
  O  O184  1  0.88358125  0.38184406  0.88300621  1
  O  O185  1  0.87691090  0.87231526  0.38567029  1
  O  O186  1  0.87685396  0.87829035  0.88710067  1
  O  O187  1  0.25045631  0.01066096  0.37322623  1
  O  O188  1  0.24681103  0.01264042  0.87716643  1
  O  O189  1  0.26930873  0.49937217  0.37492102  1
  O  O190  1  0.25723464  0.50782692  0.88033346  1
  O  O191  1  0.74839086  -0.00297925  0.35956592  1
  O  O192  1  0.75228617  0.00574549  0.87002271  1
  O  O193  1  0.75438821  0.51757138  0.35995776  1
  O  O194  1  0.77291197  0.51002073  0.89637171  1
  O  O195  1  0.23756367  0.48867744  0.11770962  1
  O  O196  1  0.26556844  0.48666807  0.63251950  1
  O  O197  1  0.24323574  0.99220270  0.12251516  1
  O  O198  1  0.23694230  0.99109132  0.62100103  1
  O  O199  1  0.74554215  0.49537387  0.13427357  1
  O  O200  1  0.74028965  0.52286262  0.62018321  1
  O  O201  1  0.73663046  0.99540062  0.12485005  1
  O  O202  1  0.74355255  1.00025595  0.64064878  1
  O  O203  1  0.01633614  0.37703113  0.24629071  1
  O  O204  1  -0.00661367  0.37928489  0.75920959  1
  O  O205  1  0.00981827  0.86971458  0.24669240  1
  O  O206  1  -0.01583710  0.86999437  0.74174462  1
  O  O207  1  0.50746298  0.36043496  0.24006530  1
  O  O208  1  0.50408818  0.36345677  0.75721907  1
  O  O209  1  0.50599139  0.87437774  0.25402774  1
  O  O210  1  0.50585294  0.85826981  0.74812136  1
  O  O211  1  0.49828640  0.13345177  0.24052625  1
  O  O212  1  0.49421617  0.12825967  0.74387853  1
  O  O213  1  0.49163245  0.62481617  0.24180715  1
  O  O214  1  0.49937395  0.63352781  0.74081358  1
  O  O215  1  1.00164418  0.12858447  0.25181768  1
  O  O216  1  0.97910254  0.11287836  0.75651135  1
  O  O217  1  0.99546785  0.63091098  0.24043387  1
  O  O218  1  0.98797816  0.62479005  0.74201370  1
  O  O219  1  0.36688287  0.26114608  -0.00409553  1
  O  O220  1  0.36804456  0.25451524  0.50229558  1
  O  O221  1  0.36256315  0.75568453  0.00033225  1
  O  O222  1  0.36583193  0.75929904  0.50111942  1
  O  O223  1  0.87448090  0.25646389  0.00992860  1
  O  O224  1  0.85220156  0.26671135  0.51137704  1
  O  O225  1  0.86727624  0.75634258  -0.00063527  1
  O  O226  1  0.85838831  0.75927772  0.49703079  1
  O  O227  1  0.13550833  0.24375961  0.49218152  1
  O  O228  1  0.13173198  0.23786152  1.00389903  1
  O  O229  1  0.13841768  0.75441149  0.48850620  1
  O  O230  1  0.13747035  0.74853492  0.99514605  1
  O  O231  1  0.61922239  0.23468112  0.48317690  1
  O  O232  1  0.62696470  0.23869425  0.99493076  1
  O  O233  1  0.63847797  0.74801469  0.49604472  1
  O  O234  1  0.62891485  0.74677422  0.99602383  1
  O  O235  1  0.50692923  0.23858367  0.13686553  1
  O  O236  1  0.49583602  0.23583552  0.63216628  1
  O  O237  1  0.49666345  0.73555728  0.12439623  1
  O  O238  1  0.49053519  0.74254028  0.63093230  1
  O  O239  1  0.99342148  0.24296473  0.12407731  1
  O  O240  1  0.95953773  0.23041007  0.60864360  1
  O  O241  1  1.00194757  0.74295235  0.12967811  1
  O  O242  1  1.00342889  0.74801558  0.62595096  1
  O  O243  1  0.01119202  0.24989347  0.37310434  1
  O  O244  1  -0.00487690  0.26360457  0.87250397  1
  O  O245  1  0.01018736  0.75436991  0.36469606  1
  O  O246  1  0.01724466  0.75334987  0.87971332  1
  O  O247  1  0.50931114  0.24293076  0.35702659  1
  O  O248  1  0.50480285  0.24904199  0.86885843  1
  O  O249  1  0.50132648  0.76277160  0.37154668  1
  O  O250  1  0.50567404  0.74117894  0.86639059  1
  O  O251  1  0.24402906  0.13320059  0.49558896  1
  O  O252  1  0.24484293  0.13068948  0.99001041  1
  O  O253  1  0.25778349  0.64250231  0.50148673  1
  O  O254  1  0.24867865  0.63221525  0.99060538  1
  O  O255  1  0.73533798  0.11964854  0.50156334  1
  O  O256  1  0.74458518  0.12271200  0.98962667  1
  O  O257  1  0.74638163  0.64030608  0.48949789  1
  O  O258  1  0.74302445  0.63486716  1.00502389  1
  O  O259  1  0.25410062  0.36703928  0.00270852  1
  O  O260  1  0.26126171  0.36718538  0.50894723  1
  O  O261  1  0.25463924  0.86861903  0.00537791  1
  O  O262  1  0.25720617  0.86783968  0.50626912  1
  O  O263  1  0.76804809  0.37449500  0.00751015  1
  O  O264  1  0.75964930  0.38531720  0.49212922  1
  O  O265  1  0.75566456  0.86890322  0.00338231  1
  O  O266  1  0.75485790  0.86543543  0.49882860  1
  O  O267  1  0.13088812  0.49378925  0.24022223  1
  O  O268  1  0.13130270  0.51140766  0.72561168  1
  O  O269  1  0.12915031  0.99152302  0.24231711  1
  O  O270  1  0.11724554  1.00272447  0.73489151  1
  O  O271  1  0.62920272  0.49213816  0.24694638  1
  O  O272  1  0.63552641  0.49220241  0.77935297  1
  O  O273  1  0.62766695  0.99067723  0.24151707  1
  O  O274  1  0.62945165  0.98674912  0.75157445  1
  O  O275  1  0.37125060  0.00701777  0.25072094  1
  O  O276  1  0.38005871  0.01097579  0.74598942  1
  O  O277  1  0.37445866  0.50407517  0.25983953  1
  O  O278  1  0.38439414  0.49746920  0.76524433  1
  O  O279  1  0.85968536  -0.00430731  0.24285780  1
  O  O280  1  0.86303333  0.00351855  0.75998625  1
  O  O281  1  0.86650952  0.50767984  0.24803400  1
  O  O282  1  0.87212722  0.50827528  0.75849097  1
  O  O283  1  0.12980552  0.37148558  0.37360153  1
  O  O284  1  0.10797341  0.37737051  0.87369679  1
  O  O285  1  0.12809553  0.87007869  0.35999250  1
  O  O286  1  0.12467647  0.86094439  0.87443846  1
  O  O287  1  0.62209895  0.35996052  0.36236053  1
  O  O288  1  0.61358092  0.35538029  0.89069925  1
  O  O289  1  0.61660120  0.87445935  0.36561703  1
  O  O290  1  0.62508143  0.85952043  0.86794187  1
  O  O291  1  0.38659902  0.12293462  0.12036617  1
  O  O292  1  0.37951418  0.12868514  0.63062983  1
  O  O293  1  0.38214914  0.62124422  0.12940493  1
  O  O294  1  0.38186443  0.63097871  0.62455474  1
  O  O295  1  0.87999645  0.14002529  0.12211614  1
  O  O296  1  0.86632040  0.11164215  0.64522626  1
  O  O297  1  0.88273572  0.62574568  0.12856797  1
  O  O298  1  0.89063891  0.62767304  0.63093522  1
  O  O299  1  0.24529250  0.26143421  0.11338153  1
  O  O300  1  0.25921646  0.25659262  0.61476611  1
  O  O301  1  0.25012028  0.75730324  0.11528323  1
  O  O302  1  0.25215734  0.75497752  0.61344351  1
  O  O303  1  0.75884099  0.25683289  0.12618069  1
  O  O304  1  0.76049067  0.24422562  0.63428273  1
  O  O305  1  0.74912680  0.75803604  0.11394600  1
  O  O306  1  0.74779049  0.74812757  0.61457092  1
  O  O307  1  0.24682696  0.24735879  0.38426182  1
  O  O308  1  0.24909744  0.24330691  0.88565070  1
  O  O309  1  0.24434686  0.75482406  0.38630340  1
  O  O310  1  0.23976394  0.74182527  0.87977700  1
  O  O311  1  0.73235562  0.24543107  0.36355340  1
  O  O312  1  0.74209263  0.24012161  0.87819665  1
  O  O313  1  0.74772812  0.74221613  0.37015148  1
  O  O314  1  0.74143245  0.74688342  0.88877654  1
  O  O315  1  0.00769927  0.12114360  0.00314962  1
  O  O316  1  0.01868395  0.12114573  0.49532233  1
  O  O317  1  0.00210832  0.61497389  0.00564448  1
  O  O318  1  -0.00766301  0.63643644  0.51007491  1
  O  O319  1  0.50319629  0.11875002  0.00558594  1
  O  O320  1  0.50337825  0.12158467  0.50702487  1
  O  O321  1  0.50141753  0.61897230  0.00774434  1
  O  O322  1  0.50989190  0.63013471  0.50629540  1
  O  O323  1  0.48548159  0.37017059  0.50418319  1
  O  O324  1  0.49096117  0.37602290  0.99888783  1
  O  O325  1  0.49146928  0.87433095  0.49241355  1
  O  O326  1  0.48716303  0.88268995  1.00524714  1
  O  O327  1  0.98678357  0.35026527  0.51165664  1
  O  O328  1  0.99213091  0.38049707  0.99541238  1
  O  O329  1  0.99131192  0.88255583  0.49495671  1
  O  O330  1  0.99187995  0.88113467  1.00351392  1
  O  O331  1  0.48627613  0.50013425  0.37831686  1
  O  O332  1  0.49191131  0.49377932  0.88422476  1
  O  O333  1  0.49706050  0.98730785  0.37497923  1
  O  O334  1  0.50496330  1.00326440  0.88930614  1
  O  O335  1  1.00112584  0.49760759  0.37227047  1
  O  O336  1  0.99378172  0.49621126  0.88074536  1
  O  O337  1  1.00780844  0.99703407  0.38900167  1
  O  O338  1  0.99327242  0.99163960  0.88292321  1
  O  O339  1  0.00529757  0.00934673  0.12002596  1
  O  O340  1  0.01634135  0.00243140  0.61034727  1
  O  O341  1  0.01106620  0.50136183  0.11727115  1
  O  O342  1  0.00743258  0.51036768  0.61858119  1
  O  O343  1  0.50969215  0.00764283  0.11862903  1
  O  O344  1  0.50277068  0.00915414  0.62410345  1
  O  O345  1  0.50320670  0.50751780  0.12149092  1
  O  O346  1  0.49497179  0.51309987  0.62052829  1
  O  O347  1  0.24327019  0.37728483  0.24048192  1
  O  O348  1  0.25630237  0.36454863  0.73638596  1
  O  O349  1  0.24446060  0.87450651  0.24038387  1
  O  O350  1  0.25525395  0.86825813  0.73289448  1
  O  O351  1  0.74225350  0.38520360  0.24850110  1
  O  O352  1  0.74061632  0.38625448  0.77360988  1
  O  O353  1  0.74132411  0.88221092  0.24077303  1
  O  O354  1  0.73858056  0.88124596  0.75720290  1
  O  O355  1  0.25175308  0.12758815  0.25843930  1
  O  O356  1  0.25668039  0.13190770  0.76179971  1
  O  O357  1  0.26431442  0.61958364  0.23905456  1
  O  O358  1  0.25356275  0.63136169  0.76077527  1
  O  O359  1  0.74516336  0.10769482  0.24352762  1
  O  O360  1  0.75317539  0.11618788  0.76199225  1
  O  O361  1  0.75363134  0.62254956  0.25131063  1
  O  O362  1  0.76600571  0.62502877  0.75422134  1
  O  O363  1  0.36325719  0.12536129  0.37717121  1
  O  O364  1  0.36032046  0.12639612  0.86726538  1
  O  O365  1  0.38013428  0.61548310  0.36515496  1
  O  O366  1  0.36545583  0.61387956  0.87383861  1
  O  O367  1  0.89276246  0.15029789  0.37635491  1
  O  O368  1  0.86558830  0.12105135  0.86999440  1
  O  O369  1  0.86761066  0.62713393  0.36536934  1
  O  O370  1  0.87944146  0.61900088  0.86735534  1
  O  O371  1  0.13066495  0.37938348  0.13110800  1
  O  O372  1  0.14296207  0.39302065  0.62154787  1
  O  O373  1  0.13559905  0.87891241  0.13178864  1
  O  O374  1  0.13251506  0.88777985  0.61970522  1
  O  O375  1  0.63242845  0.37938843  0.13203984  1
  O  O376  1  0.61905842  0.37531399  0.61739683  1
  O  O377  1  0.62574323  0.88316406  0.12942019  1
  O  O378  1  0.61854425  0.87191025  0.63818292  1
  O  O379  1  0.13423216  0.25946760  0.26550638  1
  O  O380  1  0.09853507  0.25216345  0.68804758  1
  O  O381  1  0.12235294  0.75739733  0.25215968  1
  O  O382  1  0.12778456  0.74911063  0.76130140  1
  O  O383  1  0.61694689  0.25337253  0.25487945  1
  O  O384  1  0.61407175  0.24523896  0.75888870  1
  O  O385  1  0.62221420  0.76472164  0.24710194  1
  O  O386  1  0.62005692  0.75162057  0.75809328  1
  O  O387  1  0.38874259  0.24984463  0.25276952  1
  O  O388  1  0.38771974  0.24063482  0.74710535  1
  O  O389  1  0.37658191  0.74005427  0.24588070  1
  O  O390  1  0.38211314  0.74513106  0.74383529  1
  O  O391  1  0.87932370  0.25537221  0.24984506  1
  O  O392  1  0.86897979  0.23500920  0.74344984  1
  O  O393  1  0.88253573  0.74569059  0.24481921  1
  O  O394  1  0.87354391  0.74861121  0.74772859  1
  O  O395  1  0.37933832  0.49182801  0.49084116  1
  O  O396  1  0.37916998  0.48807124  0.99150310  1
  O  O397  1  0.37511480  0.98702290  0.49892096  1
  O  O398  1  0.38329835  0.98886135  1.00162435  1
  O  O399  1  0.87712755  0.48927445  0.50030731  1
  O  O400  1  0.88906662  0.49280926  0.99904474  1
  O  O401  1  0.88466506  0.98976022  0.50807146  1
  O  O402  1  0.87862963  0.99382922  0.99697719  1
  O  O403  1  0.12072613  0.00973453  0.00457462  1
  O  O404  1  0.12225188  0.00646843  0.50347199  1
  O  O405  1  0.11525220  0.49807816  0.00434853  1
  O  O406  1  0.14753130  0.51017851  0.52507052  1
  O  O407  1  0.61839169  0.00199313  0.00631352  1
  O  O408  1  0.62198462  0.00856872  0.49948912  1
  O  O409  1  0.61536904  0.50690575  0.00777561  1
  O  O410  1  0.62283576  0.51675409  0.49190811  1
  O  O411  1  0.36390082  0.38194128  0.11552181  1
  O  O412  1  0.37018342  0.36669490  0.61983491  1
  O  O413  1  0.36306132  0.87327218  0.12006917  1
  O  O414  1  0.36972549  0.86821902  0.61658959  1
  O  O415  1  0.87419802  0.36518887  0.12157410  1
  O  O416  1  0.86586425  0.37326744  0.62305086  1
  O  O417  1  0.86898224  0.87368424  0.11278663  1
  O  O418  1  0.88552403  0.86701199  0.62134257  1
  O  O419  1  0.13847792  0.13377092  0.38044458  1
  O  O420  1  0.13535024  0.12361004  0.88170461  1
  O  O421  1  0.13033122  0.63897311  0.36138529  1
  O  O422  1  0.13002577  0.63195271  0.87446777  1
  O  O423  1  0.62006751  0.12851993  0.38475808  1
  O  O424  1  0.63002540  0.13141865  0.87829923  1
  O  O425  1  0.63229223  0.63052865  0.37887375  1
  O  O426  1  0.62661148  0.63669806  0.88467880  1
