# generated using pymatgen
data_V85Zn86O256
_symmetry_space_group_name_H-M   'P 1'
_cell_length_a   16.92501075
_cell_length_b   16.92632423
_cell_length_c   16.92801887
_cell_angle_alpha   89.95090998
_cell_angle_beta   90.01741509
_cell_angle_gamma   90.00373665
_symmetry_Int_Tables_number   1
_chemical_formula_structural   V85Zn86O256
_chemical_formula_sum   'V85 Zn86 O256'
_cell_volume   4849.50669531
_cell_formula_units_Z   1
loop_
 _symmetry_equiv_pos_site_id
 _symmetry_equiv_pos_as_xyz
  1  'x, y, z'
loop_
 _atom_site_type_symbol
 _atom_site_label
 _atom_site_symmetry_multiplicity
 _atom_site_fract_x
 _atom_site_fract_y
 _atom_site_fract_z
 _atom_site_occupancy
  V  V0  1  0.49954387  0.12410276  0.62166052  1
  V  V1  1  0.49536252  0.50005087  -0.00081378  1
  V  V2  1  0.61811422  0.36562659  0.24885082  1
  V  V3  1  0.12673164  0.62325658  -0.00213869  1
  V  V4  1  -0.00915044  0.37449250  0.38003606  1
  V  V5  1  0.87098384  0.50634606  0.37604679  1
  V  V6  1  0.12654243  0.74828861  0.37599228  1
  V  V7  1  0.38065086  -0.00301190  0.37614017  1
  V  V8  1  0.25607990  0.87071907  0.62523280  1
  V  V9  1  0.12657577  0.49687911  0.12626682  1
  V  V10  1  0.75094380  0.37586465  0.62006635  1
  V  V11  1  -0.00299641  0.36622078  0.87224359  1
  V  V12  1  0.13378684  0.87489570  0.24872346  1
  V  V13  1  0.12416124  0.37207925  0.25461403  1
  V  V14  1  0.60929038  0.00748391  0.12278192  1
  V  V15  1  0.62884243  0.75395523  0.87532247  1
  V  V16  1  0.63224572  0.12274318  0.51041460  1
  V  V17  1  0.38680955  0.13596496  0.25374651  1
  V  V18  1  0.25148535  0.12836379  0.87762664  1
  V  V19  1  0.62466676  0.36929151  0.74908503  1
  V  V20  1  0.49883432  0.75475941  0.27013941  1
  V  V21  1  0.61575362  0.24824673  0.37573169  1
  V  V22  1  0.37432658  0.61792160  0.25314096  1
  V  V23  1  0.24323258  0.12363698  0.38003200  1
  V  V24  1  0.50113420  0.63396722  0.62143533  1
  V  V25  1  0.49665046  0.63413716  0.12405296  1
  V  V26  1  0.86837580  0.87327945  0.49920446  1
  V  V27  1  0.13351638  -0.00284603  0.12209777  1
  V  V28  1  0.62521864  0.62747062  0.00017918  1
  V  V29  1  0.24687784  0.00049290  0.74846759  1
  V  V30  1  0.24978951  0.62067069  0.86811777  1
  V  V31  1  0.49502723  0.50251881  0.49774850  1
  V  V32  1  0.86218877  -0.00156950  0.87775178  1
  V  V33  1  0.00360963  0.12542160  0.12516769  1
  V  V34  1  0.25075358  0.75249702  0.00571838  1
  V  V35  1  0.38247969  0.86979463  0.49918033  1
  V  V36  1  0.50883090  0.87708193  0.87804486  1
  V  V37  1  0.25308154  0.61281375  0.37784324  1
  V  V38  1  0.24704939  0.36229730  0.12048433  1
  V  V39  1  0.00234657  0.75131663  0.24336903  1
  V  V40  1  0.23947857  0.24666685  0.50495295  1
  V  V41  1  0.74976695  0.12746393  0.37498470  1
  V  V42  1  0.00270236  0.62354036  0.62650007  1
  V  V43  1  0.37353819  0.25309163  0.62404120  1
  V  V44  1  0.25471443  0.74690592  0.50460292  1
  V  V45  1  0.48982130  0.37646751  0.37361547  1
  V  V46  1  0.62146507  0.49810939  0.12335645  1
  V  V47  1  0.62374319  0.50435687  0.62146008  1
  V  V48  1  0.86116330  0.75081417  0.62177629  1
  V  V49  1  0.25773288  -0.00086477  0.23989412  1
  V  V50  1  0.88005026  0.62704864  0.24125636  1
  V  V51  1  -0.00287346  0.49641697  -0.00045406  1
  V  V52  1  0.62041384  0.87503303  0.26423858  1
  V  V53  1  0.00250755  0.87965657  0.38074416  1
  V  V54  1  0.12568483  0.75108198  0.87375650  1
  V  V55  1  0.87987588  0.13706475  0.75665308  1
  V  V56  1  0.75474572  0.00436886  0.72763207  1
  V  V57  1  0.37667346  -0.00325291  0.87380658  1
  V  V58  1  0.12515348  0.39402687  0.74727447  1
  V  V59  1  -0.00599041  0.49729514  0.50518343  1
  V  V60  1  -0.00299891  0.87704276  0.87547959  1
  V  V61  1  0.87590535  0.12539167  0.25190900  1
  V  V62  1  0.74967256  -0.00227772  0.24970405  1
  V  V63  1  0.63396150  0.87830156  0.73363026  1
  V  V64  1  0.50155921  0.37402119  0.87409823  1
  V  V65  1  0.11980763  0.00187067  0.60807631  1
  V  V66  1  -0.00392982  0.75134126  0.74738063  1
  V  V67  1  0.12525355  0.24768372  0.86079934  1
  V  V68  1  0.75302901  0.74900014  0.01659946  1
  V  V69  1  0.12352231  0.61950994  0.50381842  1
  V  V70  1  0.72845833  0.52433754  0.26523901  1
  V  V71  1  0.12445299  0.87502172  0.74820904  1
  V  V72  1  0.37140025  0.49903110  0.86697741  1
  V  V73  1  0.37687273  0.87366545  0.00487178  1
  V  V74  1  0.87032983  0.62414619  0.75229346  1
  V  V75  1  -0.00172010  0.24980927  0.25257734  1
  V  V76  1  0.13055677  0.13339702  -0.00016400  1
  V  V77  1  0.38793792  0.25049561  0.12191226  1
  V  V78  1  0.37605987  0.63281450  0.74508505  1
  V  V79  1  0.87631001  0.86960191  0.01437409  1
  V  V80  1  0.74043553  0.73412119  0.47518447  1
  V  V81  1  0.50780329  -0.00529107  0.50276957  1
  V  V82  1  0.24671975  0.38821756  0.62841887  1
  V  V83  1  0.75115983  0.37347199  0.12749344  1
  V  V84  1  0.88180946  0.25617116  0.61810927  1
  Zn  Zn85  1  0.37001184  0.75467396  0.13017079  1
  Zn  Zn86  1  0.62168423  0.22678231  0.88797748  1
  Zn  Zn87  1  0.11911922  0.24486786  0.38380064  1
  Zn  Zn88  1  0.74481480  0.87304964  0.12988534  1
  Zn  Zn89  1  0.49888512  0.24844484  0.74898520  1
  Zn  Zn90  1  0.53452181  0.05772171  -0.02839333  1
  Zn  Zn91  1  0.00576772  0.12756856  0.61670702  1
  Zn  Zn92  1  0.37438147  0.12452519  0.74635410  1
  Zn  Zn93  1  0.74972206  0.23169588  -0.01148988  1
  Zn  Zn94  1  0.00258245  0.00061092  -0.00228195  1
  Zn  Zn95  1  0.88335601  0.00414929  0.37940745  1
  Zn  Zn96  1  0.87126721  0.49819049  0.87487730  1
  Zn  Zn97  1  0.25512888  0.49394655  0.25378056  1
  Zn  Zn98  1  0.75153261  0.25686053  0.49757796  1
  Zn  Zn99  1  0.87288277  0.24855087  0.12278713  1
  Zn  Zn100  1  0.36690065  0.37371970  -0.00395466  1
  Zn  Zn101  1  0.74942306  0.62250517  0.87808382  1
  Zn  Zn102  1  0.36863705  0.37891431  0.49665526  1
  Zn  Zn103  1  0.74708716  0.50075236  0.75325318  1
  Zn  Zn104  1  0.49991343  0.75661908  0.74477214  1
  Zn  Zn105  1  0.00487489  0.63089722  0.11924750  1
  Zn  Zn106  1  0.87052927  0.37293457  -0.00261620  1
  Zn  Zn107  1  0.19054803  0.18467314  0.19371729  1
  Zn  Zn108  1  0.18624262  0.18413812  0.68478139  1
  Zn  Zn109  1  0.18798539  0.68413287  0.18807907  1
  Zn  Zn110  1  0.18700852  0.68513848  0.68766026  1
  Zn  Zn111  1  0.68379843  0.18682676  0.18536197  1
  Zn  Zn112  1  0.69470224  0.18937842  0.69303028  1
  Zn  Zn113  1  0.67757435  0.68275967  0.20663920  1
  Zn  Zn114  1  0.68534429  0.68782061  0.68688937  1
  Zn  Zn115  1  0.30795343  0.30893941  0.31394528  1
  Zn  Zn116  1  0.30996910  0.31199319  0.80768020  1
  Zn  Zn117  1  0.31413303  0.81041124  0.31717321  1
  Zn  Zn118  1  0.31363294  0.81080391  0.81579915  1
  Zn  Zn119  1  0.80854448  0.31578320  0.30867369  1
  Zn  Zn120  1  0.80523450  0.31355594  0.81585512  1
  Zn  Zn121  1  0.81527103  0.81027666  0.31149482  1
  Zn  Zn122  1  0.80778325  0.81516906  0.81508459  1
  Zn  Zn123  1  0.18105475  0.43477901  0.44282857  1
  Zn  Zn124  1  0.18648577  0.43536025  0.93612150  1
  Zn  Zn125  1  0.19526890  0.93484820  0.43347255  1
  Zn  Zn126  1  0.18971000  0.93880131  0.93874515  1
  Zn  Zn127  1  0.68152373  0.43911761  0.43902737  1
  Zn  Zn128  1  0.68726842  0.43498367  0.93678038  1
  Zn  Zn129  1  0.69382931  0.93730445  0.44146442  1
  Zn  Zn130  1  0.69510127  1.05990651  0.93886389  1
  Zn  Zn131  1  0.34769560  0.07975314  0.04794233  1
  Zn  Zn132  1  0.31348144  0.06025159  0.56145588  1
  Zn  Zn133  1  0.31105308  0.56043894  0.06168154  1
  Zn  Zn134  1  0.31761921  0.56195483  0.56447103  1
  Zn  Zn135  1  0.81871442  0.05402693  0.06972585  1
  Zn  Zn136  1  0.84441101  0.07593307  0.55090013  1
  Zn  Zn137  1  0.81133957  0.56111061  0.06859388  1
  Zn  Zn138  1  0.81150692  0.56382277  0.56384665  1
  Zn  Zn139  1  0.43752808  0.43489338  0.18759492  1
  Zn  Zn140  1  0.43709277  0.44032302  0.68703079  1
  Zn  Zn141  1  0.43761249  0.93497868  0.18963514  1
  Zn  Zn142  1  0.43983696  0.93607332  0.68590886  1
  Zn  Zn143  1  0.93613982  0.44162013  0.19112249  1
  Zn  Zn144  1  0.93864135  0.43737078  0.69123836  1
  Zn  Zn145  1  0.94323353  0.94111669  0.19297145  1
  Zn  Zn146  1  0.93451573  0.93695590  0.68372735  1
  Zn  Zn147  1  0.06673784  0.05980787  0.31158677  1
  Zn  Zn148  1  0.05835919  0.06233106  0.80823259  1
  Zn  Zn149  1  0.06202573  0.56059141  0.31479814  1
  Zn  Zn150  1  0.05669669  0.56222237  0.81570890  1
  Zn  Zn151  1  0.56450757  0.05963276  0.31609072  1
  Zn  Zn152  1  0.56485257  0.05499719  0.79658703  1
  Zn  Zn153  1  0.55618912  0.55896389  0.31098186  1
  Zn  Zn154  1  0.56181387  0.56259544  0.80918467  1
  Zn  Zn155  1  0.43440785  0.18808790  0.44167649  1
  Zn  Zn156  1  0.43182744  0.19527775  0.93532832  1
  Zn  Zn157  1  0.43460253  0.68192799  0.44163260  1
  Zn  Zn158  1  0.43890643  0.69043224  0.93389211  1
  Zn  Zn159  1  0.93879175  0.18710228  0.44341667  1
  Zn  Zn160  1  0.93077293  0.18655413  0.94295368  1
  Zn  Zn161  1  0.93567019  0.68931271  0.43366573  1
  Zn  Zn162  1  0.93680673  0.68908811  0.93874158  1
  Zn  Zn163  1  0.06304236  0.30977267  0.05957636  1
  Zn  Zn164  1  0.06147859  0.31673326  0.56685489  1
  Zn  Zn165  1  0.06776827  0.81611726  0.06113113  1
  Zn  Zn166  1  0.06176284  0.81124276  0.56270560  1
  Zn  Zn167  1  0.56442393  0.30745266  0.05499677  1
  Zn  Zn168  1  0.56280826  0.31346719  0.55935397  1
  Zn  Zn169  1  0.56646515  0.82059130  0.06533318  1
  Zn  Zn170  1  0.56982524  0.80724529  0.55337951  1
  O  O171  1  0.12563223  0.11906003  0.11872269  1
  O  O172  1  0.12319153  0.10766601  0.62509944  1
  O  O173  1  0.12544696  0.61358757  0.11853812  1
  O  O174  1  0.11202226  0.62867578  0.61956827  1
  O  O175  1  0.62467236  0.10683134  0.13429229  1
  O  O176  1  0.62131639  0.13241250  0.61474295  1
  O  O177  1  0.61425677  0.61657352  0.12353761  1
  O  O178  1  0.61507998  0.61497250  0.63250639  1
  O  O179  1  0.38587405  0.36942866  0.37461848  1
  O  O180  1  0.38079476  0.38162601  0.87178219  1
  O  O181  1  0.37113139  0.88430433  0.38729948  1
  O  O182  1  0.38654711  0.87872501  0.87704692  1
  O  O183  1  0.88514245  0.38525205  0.36741320  1
  O  O184  1  0.88451994  0.37754709  0.87417334  1
  O  O185  1  0.88590977  0.87185354  0.38203349  1
  O  O186  1  0.88141991  0.87934552  0.88165651  1
  O  O187  1  0.26251830  0.00684034  0.37029213  1
  O  O188  1  0.25318526  0.00412724  0.86419397  1
  O  O189  1  0.24390595  0.50936050  0.37662182  1
  O  O190  1  0.25737861  0.50916009  0.87926560  1
  O  O191  1  0.74900421  0.01216120  0.36561077  1
  O  O192  1  0.76137347  -0.00711014  0.86665084  1
  O  O193  1  0.75825728  0.49105765  0.36895433  1
  O  O194  1  0.75246095  0.50368709  0.87294722  1
  O  O195  1  0.23880398  0.49248735  0.12829162  1
  O  O196  1  0.25022237  0.48767434  0.61986972  1
  O  O197  1  0.24983613  1.00902770  0.13640932  1
  O  O198  1  0.24291590  0.99259733  0.63034040  1
  O  O199  1  0.73691459  0.49801085  0.13886996  1
  O  O200  1  0.74165524  0.49577326  0.62728653  1
  O  O201  1  0.74749964  0.99650341  0.14125363  1
  O  O202  1  0.76558385  1.00667059  0.63065954  1
  O  O203  1  0.00457353  0.36975260  0.25733797  1
  O  O204  1  0.01452699  0.37922996  0.75833847  1
  O  O205  1  0.01036625  0.86809912  0.25646960  1
  O  O206  1  0.00259137  0.86956543  0.75522589  1
  O  O207  1  0.50641110  0.37710716  0.25981813  1
  O  O208  1  0.50461316  0.37388668  0.75576192  1
  O  O209  1  0.50060823  0.86166424  0.25342897  1
  O  O210  1  0.51371434  0.87737471  0.75348669  1
  O  O211  1  0.48492316  0.12396949  0.25892086  1
  O  O212  1  0.49901758  0.12421424  0.73253040  1
  O  O213  1  0.49221036  0.63540627  0.24538353  1
  O  O214  1  0.49292552  0.62906736  0.74171012  1
  O  O215  1  0.99904646  0.13024383  0.24618589  1
  O  O216  1  0.98191329  0.11577105  0.73819156  1
  O  O217  1  0.99823774  0.63223913  0.24780905  1
  O  O218  1  0.99439716  0.63081732  0.74389901  1
  O  O219  1  0.37090636  0.25616002  0.01810312  1
  O  O220  1  0.36417346  0.25400891  0.51074420  1
  O  O221  1  0.36721210  0.75643676  -0.00174773  1
  O  O222  1  0.36714410  0.75762789  0.49765789  1
  O  O223  1  0.86803777  0.25636448  0.00639056  1
  O  O224  1  0.87053470  0.25674487  0.51504709  1
  O  O225  1  0.86666011  0.75567564  -0.00007470  1
  O  O226  1  0.86789605  0.75251405  0.50376900  1
  O  O227  1  0.13419898  0.25054120  0.50400234  1
  O  O228  1  0.12529285  0.23703413  0.99077392  1
  O  O229  1  0.13086180  0.73821854  0.49685971  1
  O  O230  1  0.13171979  0.74502553  0.99312178  1
  O  O231  1  0.62962392  0.24151593  0.49260669  1
  O  O232  1  0.63455217  0.24335341  1.00265721  1
  O  O233  1  0.64128757  0.74871470  0.49093441  1
  O  O234  1  0.63161019  0.74780414  0.99499727  1
  O  O235  1  0.48594142  0.25984698  0.12851562  1
  O  O236  1  0.49026650  0.24393188  0.62111710  1
  O  O237  1  0.49803132  0.74003925  0.12603065  1
  O  O238  1  0.50651091  0.73798490  0.62364858  1
  O  O239  1  1.00311866  0.23816049  0.13055776  1
  O  O240  1  0.98594892  0.24989259  0.62348898  1
  O  O241  1  1.01302282  0.75079307  0.13894286  1
  O  O242  1  0.99165253  0.74200731  0.62925217  1
  O  O243  1  -0.00126193  0.25703960  0.37510532  1
  O  O244  1  0.00828538  0.26044477  0.88155512  1
  O  O245  1  0.00855165  0.75585844  0.36450254  1
  O  O246  1  0.00448106  0.75981832  0.86917823  1
  O  O247  1  0.50978253  0.25659542  0.38377759  1
  O  O248  1  0.50107734  0.25930016  0.87099766  1
  O  O249  1  0.49869284  0.74487402  0.36796052  1
  O  O250  1  0.51253105  0.75677125  0.87130451  1
  O  O251  1  0.25680233  0.13272469  0.49189583  1
  O  O252  1  0.24633253  0.11810360  0.98524901  1
  O  O253  1  0.24501663  0.62779350  0.49784643  1
  O  O254  1  0.24562197  0.63039700  0.98952865  1
  O  O255  1  0.74706667  0.12590098  0.49126700  1
  O  O256  1  0.77140330  0.11832524  0.99370088  1
  O  O257  1  0.75480850  0.63575952  0.49739439  1
  O  O258  1  0.74407726  0.63050065  1.00188730  1
  O  O259  1  0.24880836  0.37952011  0.01421961  1
  O  O260  1  0.24762149  0.36736351  0.50900870  1
  O  O261  1  0.25966932  0.86177462  -0.01092104  1
  O  O262  1  0.25862003  0.86569009  0.50565575  1
  O  O263  1  0.75025449  0.38733126  0.02174936  1
  O  O264  1  0.74400968  0.37703672  0.51514854  1
  O  O265  1  0.76410806  0.86322053  0.00984795  1
  O  O266  1  0.76330912  0.85660112  0.48887893  1
  O  O267  1  0.12370138  0.48808559  0.24375447  1
  O  O268  1  0.12613763  0.49240807  0.75403594  1
  O  O269  1  0.13699193  0.99536934  0.24227098  1
  O  O270  1  0.13470103  0.99292061  0.74656976  1
  O  O271  1  0.61736516  0.48270677  0.23586400  1
  O  O272  1  0.62145344  0.48943679  0.73852345  1
  O  O273  1  0.63020791  0.99400666  0.24714510  1
  O  O274  1  0.64234204  0.99008255  0.74277150  1
  O  O275  1  0.37324613  0.00753085  0.25679100  1
  O  O276  1  0.36386525  -0.00346571  0.75685907  1
  O  O277  1  0.37446818  0.51320812  0.24694771  1
  O  O278  1  0.37876096  0.51140945  0.76144177  1
  O  O279  1  0.86855897  0.00584387  0.25576077  1
  O  O280  1  0.86604409  0.00126630  0.75382204  1
  O  O281  1  0.86902317  0.51139812  0.25764048  1
  O  O282  1  0.87422475  0.51203108  0.75142151  1
  O  O283  1  0.11202822  0.37384771  0.36910487  1
  O  O284  1  0.12270560  0.36757260  0.86423026  1
  O  O285  1  0.12190104  0.86809963  0.37188767  1
  O  O286  1  0.11795529  0.87153808  0.86926005  1
  O  O287  1  0.61709017  0.36675747  0.36826814  1
  O  O288  1  0.61007140  0.38402868  0.86585268  1
  O  O289  1  0.62519138  0.88439666  0.36374429  1
  O  O290  1  0.61525745  0.87020782  0.86638949  1
  O  O291  1  0.36555929  0.14238930  0.14383426  1
  O  O292  1  0.38232029  0.13194033  0.62321359  1
  O  O293  1  0.38025015  0.62767338  0.13215438  1
  O  O294  1  0.38467728  0.62190279  0.63481010  1
  O  O295  1  0.88885647  0.12318202  0.13444923  1
  O  O296  1  0.86482918  0.14749290  0.64152704  1
  O  O297  1  0.89094470  0.61464040  0.13641974  1
  O  O298  1  0.88275017  0.63199761  0.63429702  1
  O  O299  1  0.25349358  0.25961670  0.13313579  1
  O  O300  1  0.25424704  0.25477886  0.62104002  1
  O  O301  1  0.25048741  0.74386686  0.11055990  1
  O  O302  1  0.24508338  0.75548660  0.61363831  1
  O  O303  1  0.74988209  0.26696206  0.13322394  1
  O  O304  1  0.75753126  0.26028407  0.62511152  1
  O  O305  1  0.73906251  0.74811649  0.11849104  1
  O  O306  1  0.75987018  0.74578556  0.61989195  1
  O  O307  1  0.24604320  0.24208768  0.38602533  1
  O  O308  1  0.24222189  0.23884256  0.86905955  1
  O  O309  1  0.24509458  0.74122635  0.38733680  1
  O  O310  1  0.24402048  0.74114824  0.88131639  1
  O  O311  1  0.74081696  0.24291995  0.37449324  1
  O  O312  1  0.73187232  0.25797862  0.87572113  1
  O  O313  1  0.75313404  0.73926673  0.37523003  1
  O  O314  1  0.73878755  0.75025590  0.88483232  1
  O  O315  1  0.00948383  0.12251921  0.00919897  1
  O  O316  1  -0.04489378  0.10629993  0.51692734  1
  O  O317  1  0.00889892  0.61734476  -0.00210343  1
  O  O318  1  0.00514726  0.62211209  0.50667506  1
  O  O319  1  0.45277759  0.11785068  0.01254031  1
  O  O320  1  0.50785341  0.11904157  0.50747046  1
  O  O321  1  0.50384669  0.62217752  0.00684438  1
  O  O322  1  0.49762548  0.61654438  0.50850682  1
  O  O323  1  0.49737499  0.38198788  0.49138139  1
  O  O324  1  0.49513264  0.38186911  0.99089123  1
  O  O325  1  0.49232286  0.88043831  0.50750282  1
  O  O326  1  0.49173241  0.86945711  0.98917172  1
  O  O327  1  1.00385113  0.38604266  0.49343935  1
  O  O328  1  1.00032668  0.38068296  0.99223235  1
  O  O329  1  0.98834086  0.86230891  0.48919820  1
  O  O330  1  0.99560704  0.87381458  0.99130773  1
  O  O331  1  0.50604073  0.49076018  0.38462803  1
  O  O332  1  0.49139899  0.49533563  0.87906277  1
  O  O333  1  0.48846428  1.00575648  0.38741632  1
  O  O334  1  0.49082741  0.99270040  0.87189183  1
  O  O335  1  0.99204149  0.49380912  0.38215072  1
  O  O336  1  0.99995507  0.48859902  0.88467749  1
  O  O337  1  1.00214610  0.98451341  0.36925529  1
  O  O338  1  0.99504442  0.98711569  0.87274733  1
  O  O339  1  0.01402276  0.01153544  0.12775706  1
  O  O340  1  0.01930649  -0.01051728  0.62568928  1
  O  O341  1  0.01334811  0.49427898  0.11811997  1
  O  O342  1  -0.00760508  0.50958544  0.61627191  1
  O  O343  1  0.50914699  0.00037376  0.13013988  1
  O  O344  1  0.49434978  0.00831062  0.61169697  1
  O  O345  1  0.50239592  0.50858793  0.11989833  1
  O  O346  1  0.50546834  0.50708242  0.61850033  1
  O  O347  1  0.23964833  0.37597596  0.24714894  1
  O  O348  1  0.23449414  0.37294489  0.74365580  1
  O  O349  1  0.24766985  0.88579741  0.25680746  1
  O  O350  1  0.24674321  0.87784568  0.74287162  1
  O  O351  1  0.73778747  0.38634764  0.24307676  1
  O  O352  1  0.73960079  0.37943534  0.73983147  1
  O  O353  1  0.74332874  0.88063263  0.25171216  1
  O  O354  1  0.74206253  0.88532492  0.74749505  1
  O  O355  1  0.25868701  0.11711635  0.26157235  1
  O  O356  1  0.24946209  0.11463541  0.75627752  1
  O  O357  1  0.25660617  0.62291244  0.26008150  1
  O  O358  1  0.25707909  0.62948387  0.76001223  1
  O  O359  1  0.75437050  0.11951508  0.25635110  1
  O  O360  1  0.76054736  0.11104526  0.75125600  1
  O  O361  1  0.77574029  0.62590331  0.22923837  1
  O  O362  1  0.75829458  0.62520354  0.75264446  1
  O  O363  1  0.36833898  0.12166701  0.36820596  1
  O  O364  1  0.36640368  0.11629055  0.86679633  1
  O  O365  1  0.36394110  0.62793127  0.36735210  1
  O  O366  1  0.36838268  0.61937650  0.86942852  1
  O  O367  1  0.86553780  0.12601375  0.36912308  1
  O  O368  1  0.88731811  0.11281464  0.86321957  1
  O  O369  1  0.88427051  0.61318231  0.36104421  1
  O  O370  1  0.87661202  0.62663340  0.86244184  1
  O  O371  1  0.12955214  0.37641967  0.13255916  1
  O  O372  1  0.12904614  0.37443071  0.64063275  1
  O  O373  1  0.12752021  0.89081975  0.12694386  1
  O  O374  1  0.13641846  0.87965107  0.62776260  1
  O  O375  1  0.62920114  0.37953066  0.12988193  1
  O  O376  1  0.62943744  0.38000365  0.63109130  1
  O  O377  1  0.62441991  0.88712118  0.13924889  1
  O  O378  1  0.62425661  0.87048124  0.63585800  1
  O  O379  1  0.11898013  0.25880974  0.25508503  1
  O  O380  1  0.12255970  0.24872670  0.75875811  1
  O  O381  1  0.12504837  0.75563590  0.25565828  1
  O  O382  1  0.11856763  0.75593268  0.75423055  1
  O  O383  1  0.62631639  0.25784071  0.25847643  1
  O  O384  1  0.62016790  0.26138908  0.74775751  1
  O  O385  1  0.60596060  0.75972722  0.24907494  1
  O  O386  1  0.62918913  0.76339247  0.75701870  1
  O  O387  1  0.37427528  0.24101201  0.24758837  1
  O  O388  1  0.37558467  0.24682203  0.73611868  1
  O  O389  1  0.38411323  0.74432285  0.24956465  1
  O  O390  1  0.37960947  0.73805142  0.75572712  1
  O  O391  1  0.88131378  0.24437950  0.24696835  1
  O  O392  1  0.87396947  0.23940855  0.75375765  1
  O  O393  1  0.88802072  0.73701923  0.25305792  1
  O  O394  1  0.87638879  0.74725063  0.74208697  1
  O  O395  1  0.38869936  0.49604827  0.50235775  1
  O  O396  1  0.37899226  0.49886069  0.98876497  1
  O  O397  1  0.38172391  0.99134534  0.49391744  1
  O  O398  1  0.36091293  0.98507303  0.98080490  1
  O  O399  1  0.88470633  0.50744632  0.49134574  1
  O  O400  1  0.88773987  0.49861491  1.00187269  1
  O  O401  1  0.86096798  0.97611397  0.49330686  1
  O  O402  1  0.88216496  0.98657642  0.99280108  1
  O  O403  1  0.12582159  0.00945077  0.00645218  1
  O  O404  1  0.13142768  -0.00638453  0.50973993  1
  O  O405  1  0.11689097  0.50246867  0.00572291  1
  O  O406  1  0.11232348  0.51296387  0.49647993  1
  O  O407  1  0.62339631  -0.00172854  0.01743752  1
  O  O408  1  0.61828144  0.00765314  0.49590958  1
  O  O409  1  0.61776584  0.50476515  0.00958983  1
  O  O410  1  0.61331323  0.49560067  0.51328305  1
  O  O411  1  0.36505259  0.36429192  0.13029953  1
  O  O412  1  0.36489017  0.36944710  0.62624670  1
  O  O413  1  0.37912810  0.87419519  0.10962079  1
  O  O414  1  0.36294524  0.87944941  0.61751720  1
  O  O415  1  0.85987591  0.37868814  0.13129136  1
  O  O416  1  0.86712951  0.36267789  0.63854094  1
  O  O417  1  0.88099596  0.87922069  0.11678510  1
  O  O418  1  0.88144309  0.86423442  0.60839359  1
  O  O419  1  0.13815998  0.12434483  0.37354602  1
  O  O420  1  0.12829608  0.12925563  0.87886850  1
  O  O421  1  0.13130277  0.62894491  0.38274367  1
  O  O422  1  0.13171862  0.62917232  0.87720055  1
  O  O423  1  0.62980281  0.13160148  0.38333219  1
  O  O424  1  0.60526850  0.10904101  0.88698001  1
  O  O425  1  0.66103770  0.60059866  0.30383357  1
  O  O426  1  0.62320730  0.63470769  0.88168272  1
