# generated using pymatgen
data_V85Zn86O256
_symmetry_space_group_name_H-M   'P 1'
_cell_length_a   16.97977680
_cell_length_b   16.97198431
_cell_length_c   16.95609517
_cell_angle_alpha   90.01153411
_cell_angle_beta   89.99466077
_cell_angle_gamma   90.00246024
_symmetry_Int_Tables_number   1
_chemical_formula_structural   V85Zn86O256
_chemical_formula_sum   'V85 Zn86 O256'
_cell_volume   4886.41595117
_cell_formula_units_Z   1
loop_
 _symmetry_equiv_pos_site_id
 _symmetry_equiv_pos_as_xyz
  1  'x, y, z'
loop_
 _atom_site_type_symbol
 _atom_site_label
 _atom_site_symmetry_multiplicity
 _atom_site_fract_x
 _atom_site_fract_y
 _atom_site_fract_z
 _atom_site_occupancy
  V  V0  1  -0.00092676  0.25363733  0.74985755  1
  V  V1  1  0.86459305  0.74351167  0.12307460  1
  V  V2  1  0.50130865  0.88440746  0.37400146  1
  V  V3  1  0.87415978  0.50207043  0.87176621  1
  V  V4  1  0.00114764  0.37535085  0.87389990  1
  V  V5  1  0.37024834  0.88337162  0.00307401  1
  V  V6  1  0.74368158  0.87304430  0.10917310  1
  V  V7  1  0.87395669  0.10863696  0.74580974  1
  V  V8  1  0.75554169  0.63019561  0.87305844  1
  V  V9  1  0.74560200  0.22494649  0.01524266  1
  V  V10  1  0.49923986  0.75346883  0.24851026  1
  V  V11  1  -0.00508140  0.74722158  0.75920066  1
  V  V12  1  0.63052703  0.62451917  0.00137295  1
  V  V13  1  0.00211811  0.49535199  0.49914618  1
  V  V14  1  0.87702599  -0.00165535  0.37397378  1
  V  V15  1  0.62486335  0.24815147  0.37021318  1
  V  V16  1  0.87920636  0.37166116  0.49546912  1
  V  V17  1  0.37183310  0.37808728  0.50460604  1
  V  V18  1  0.49822297  0.49598024  0.00106460  1
  V  V19  1  0.12045212  -0.00128449  0.14161653  1
  V  V20  1  0.86535224  0.37820989  0.00279839  1
  V  V21  1  0.12956525  -0.00319749  0.62607498  1
  V  V22  1  0.37562840  0.75499230  0.12511388  1
  V  V23  1  0.62470209  0.48630535  0.12367431  1
  V  V24  1  0.12120973  0.24236874  0.38186542  1
  V  V25  1  0.50202788  0.00177704  0.51197830  1
  V  V26  1  0.74480790  0.62287267  0.37582403  1
  V  V27  1  0.61794170  0.62133602  0.49986470  1
  V  V28  1  0.62698948  0.74954832  0.88383113  1
  V  V29  1  0.37995962  0.12696984  0.75291334  1
  V  V30  1  0.24374587  0.87036746  0.62737407  1
  V  V31  1  0.61936601  0.49887728  0.62122496  1
  V  V32  1  0.50133544  0.75099775  0.75263610  1
  V  V33  1  0.49848651  0.62294891  0.62218624  1
  V  V34  1  0.74600294  -0.00543617  0.24731239  1
  V  V35  1  -0.00058227  0.50187938  0.00136514  1
  V  V36  1  0.62345319  0.75152119  0.37496638  1
  V  V37  1  0.37301413  0.62239409  0.75330570  1
  V  V38  1  0.12208050  0.87089634  0.75934973  1
  V  V39  1  0.24678780  0.36694353  0.62739998  1
  V  V40  1  0.62551277  0.87801509  0.24008467  1
  V  V41  1  -0.00718312  0.62871269  0.62887049  1
  V  V42  1  0.37305291  0.00045788  0.87640485  1
  V  V43  1  0.37488086  0.87937247  0.49561840  1
  V  V44  1  0.14333436  0.12451027  0.50309821  1
  V  V45  1  0.24247174  0.24936182  0.00001206  1
  V  V46  1  0.88300188  -0.00707418  0.89182078  1
  V  V47  1  0.87972161  0.25984439  0.12964012  1
  V  V48  1  0.38222595  0.24245252  0.62421533  1
  V  V49  1  0.24722011  0.87978669  0.13900654  1
  V  V50  1  0.74527172  0.49178537  0.24661520  1
  V  V51  1  0.37240176  0.36763304  0.00234382  1
  V  V52  1  0.50032648  0.62655800  0.12332599  1
  V  V53  1  0.87429586  0.87276236  0.49741152  1
  V  V54  1  0.11460159  0.11213528  -0.00334871  1
  V  V55  1  0.74645188  0.74950121  0.50157607  1
  V  V56  1  0.87392171  0.62581142  0.25155326  1
  V  V57  1  0.37303430  0.75081778  0.62651600  1
  V  V58  1  0.10529205  0.37278514  0.26268762  1
  V  V59  1  0.12386752  0.49678841  0.62802377  1
  V  V60  1  0.62550078  0.37406994  0.75223921  1
  V  V61  1  0.25289268  0.37058482  0.13085766  1
  V  V62  1  0.37715781  0.50291344  0.38157819  1
  V  V63  1  0.75323619  0.50533198  0.74918021  1
  V  V64  1  0.62128195  0.12520666  0.50788678  1
  V  V65  1  0.12355631  0.49144394  0.12492138  1
  V  V66  1  0.49827576  0.37180160  0.87412114  1
  V  V67  1  0.87468052  0.25078968  0.62835554  1
  V  V68  1  0.89436251  0.86445504  -0.00033645  1
  V  V69  1  0.74624391  0.88356845  0.63201901  1
  V  V70  1  0.49898107  0.37649783  0.37971610  1
  V  V71  1  0.37488925  0.62246763  0.24825214  1
  V  V72  1  0.00363831  0.00019385  0.49677801  1
  V  V73  1  -0.00955431  0.11872354  0.11729818  1
  V  V74  1  0.74936389  0.24925507  0.49994958  1
  V  V75  1  0.11950527  0.24784899  0.87191431  1
  V  V76  1  0.24552723  0.49502397  0.75177595  1
  V  V77  1  0.48019894  0.24246531  0.24607554  1
  V  V78  1  0.87539793  0.12992034  0.25031729  1
  V  V79  1  0.49949738  0.87564571  0.88353680  1
  V  V80  1  0.24591125  0.74671499  0.48921134  1
  V  V81  1  0.01166134  0.63435032  0.14136589  1
  V  V82  1  0.12659553  0.62519691  -0.00017643  1
  V  V83  1  0.62531798  0.24049865  0.88765848  1
  V  V84  1  0.87319749  0.49598553  0.37665967  1
  Zn  Zn85  1  0.06087622  0.91264991  0.30590225  1
  Zn  Zn86  1  0.24771342  0.62535361  0.87640872  1
  Zn  Zn87  1  0.24865860  0.12105897  0.87904353  1
  Zn  Zn88  1  0.62606395  0.88268952  0.75355004  1
  Zn  Zn89  1  0.00475063  0.12645234  0.62254645  1
  Zn  Zn90  1  0.74737740  0.11245092  0.86639488  1
  Zn  Zn91  1  0.62526476  0.01557746  0.64391723  1
  Zn  Zn92  1  0.12280093  0.62589986  0.49315082  1
  Zn  Zn93  1  0.24346250  0.62442114  0.37073023  1
  Zn  Zn94  1  0.74859906  0.37644970  0.62542143  1
  Zn  Zn95  1  0.37191225  0.49822318  0.87635399  1
  Zn  Zn96  1  0.25115097  0.49383734  0.25363241  1
  Zn  Zn97  1  0.59069055  0.09467592  0.03870877  1
  Zn  Zn98  1  0.74968916  0.12315667  0.37476908  1
  Zn  Zn99  1  0.24853541  0.74909067  0.00035329  1
  Zn  Zn100  1  0.86833360  0.74487981  0.63063275  1
  Zn  Zn101  1  0.08077004  0.72681661  0.31686042  1
  Zn  Zn102  1  0.33280500  0.11347318  0.28318446  1
  Zn  Zn103  1  0.62119907  0.36838966  0.24537596  1
  Zn  Zn104  1  0.12164057  0.75484209  0.88553117  1
  Zn  Zn105  1  0.50729401  0.24238702  0.74704501  1
  Zn  Zn106  1  0.24885323  0.00117695  0.75118118  1
  Zn  Zn107  1  0.17050400  0.19726428  0.18868088  1
  Zn  Zn108  1  0.19180310  0.18289782  0.69079676  1
  Zn  Zn109  1  0.19587325  0.68289571  0.18217566  1
  Zn  Zn110  1  0.18239502  0.68488474  0.68613083  1
  Zn  Zn111  1  0.69699448  0.19159625  0.18582327  1
  Zn  Zn112  1  0.69169276  0.19017352  0.69119991  1
  Zn  Zn113  1  0.68678785  0.68725873  0.18758048  1
  Zn  Zn114  1  0.68516296  0.68825407  0.68970273  1
  Zn  Zn115  1  0.30656425  0.30656753  0.32060602  1
  Zn  Zn116  1  0.31141971  0.31031054  0.81337588  1
  Zn  Zn117  1  0.33191401  0.93991514  0.30221987  1
  Zn  Zn118  1  0.30765666  0.80872211  0.81672699  1
  Zn  Zn119  1  0.81164832  0.31238259  0.31315324  1
  Zn  Zn120  1  0.80820951  0.31099810  0.81719453  1
  Zn  Zn121  1  0.91658645  0.80863254  0.31342766  1
  Zn  Zn122  1  0.81638005  0.81346127  0.81593088  1
  Zn  Zn123  1  0.19159172  0.43488800  0.43893581  1
  Zn  Zn124  1  0.18530866  0.43562414  0.93454183  1
  Zn  Zn125  1  0.19010399  0.93200775  0.43146453  1
  Zn  Zn126  1  0.18878734  0.93613908  0.94232680  1
  Zn  Zn127  1  0.68643107  0.43419126  0.43827243  1
  Zn  Zn128  1  0.68483123  0.43831347  0.93523208  1
  Zn  Zn129  1  0.68768833  0.93881618  0.43806162  1
  Zn  Zn130  1  0.69401846  0.94219515  0.92243653  1
  Zn  Zn131  1  0.28680723  0.08954770  0.10975723  1
  Zn  Zn132  1  0.31806311  0.06316552  0.44911006  1
  Zn  Zn133  1  0.31106391  0.55686952  0.06312508  1
  Zn  Zn134  1  0.31131126  0.56103669  0.56391945  1
  Zn  Zn135  1  0.79127144  0.06641447  0.06624238  1
  Zn  Zn136  1  0.81279250  0.06380536  0.56235657  1
  Zn  Zn137  1  0.80948991  0.55960706  0.06297253  1
  Zn  Zn138  1  0.80995124  0.56045033  0.56379268  1
  Zn  Zn139  1  0.43806517  0.43240210  0.18958501  1
  Zn  Zn140  1  0.43719063  0.43744922  0.68839145  1
  Zn  Zn141  1  0.44897443  1.05584702  0.16042259  1
  Zn  Zn142  1  0.43528102  0.93764898  0.69051190  1
  Zn  Zn143  1  0.93559745  0.44495709  0.18708030  1
  Zn  Zn144  1  0.93635458  0.43493032  0.68630992  1
  Zn  Zn145  1  0.92795805  0.94022624  0.17795399  1
  Zn  Zn146  1  0.94464458  0.92754916  0.67625808  1
  Zn  Zn147  1  0.05637803  0.08039403  0.31389506  1
  Zn  Zn148  1  0.05499705  0.06048235  0.81034360  1
  Zn  Zn149  1  0.06333578  0.55134144  0.31715040  1
  Zn  Zn150  1  0.06299202  0.56278866  0.81112094  1
  Zn  Zn151  1  0.56017980  0.06381983  0.31445460  1
  Zn  Zn152  1  0.56033790  0.05816224  0.82241943  1
  Zn  Zn153  1  0.55857698  0.55974617  0.31135868  1
  Zn  Zn154  1  0.56313544  0.56065834  0.81270213  1
  Zn  Zn155  1  0.44187921  0.19212047  0.44262313  1
  Zn  Zn156  1  0.42158912  0.15649194  0.98445834  1
  Zn  Zn157  1  0.43528283  0.69157728  0.43634796  1
  Zn  Zn158  1  0.43831698  0.68772858  0.94045162  1
  Zn  Zn159  1  0.94377012  0.18791578  0.43524854  1
  Zn  Zn160  1  0.92326332  0.18413614  0.93837538  1
  Zn  Zn161  1  0.93035962  0.67764060  0.44542330  1
  Zn  Zn162  1  0.93807555  0.68618791  0.94434885  1
  Zn  Zn163  1  0.05639977  0.31033835  0.06036664  1
  Zn  Zn164  1  0.06423914  0.31105353  0.56061176  1
  Zn  Zn165  1  0.06785936  0.79794393  0.10458634  1
  Zn  Zn166  1  0.05874713  0.81038636  0.46623885  1
  Zn  Zn167  1  0.54936998  0.28237553  0.04993678  1
  Zn  Zn168  1  0.56012860  0.31403993  0.56145679  1
  Zn  Zn169  1  0.56330023  0.93297600  0.05646265  1
  Zn  Zn170  1  0.56259064  0.81311938  0.56509379  1
  O  O171  1  0.10858296  0.11678061  0.11814398  1
  O  O172  1  0.12507002  0.11585017  0.62119329  1
  O  O173  1  0.12894155  0.60433110  0.11585779  1
  O  O174  1  0.11432280  0.61125854  0.62267107  1
  O  O175  1  0.69018339  0.14547509  0.08091746  1
  O  O176  1  0.63099382  0.13025851  0.61346435  1
  O  O177  1  0.61952285  0.61974489  0.11650593  1
  O  O178  1  0.61847706  0.61757755  0.62127034  1
  O  O179  1  0.37795282  0.37959624  0.38559916  1
  O  O180  1  0.38269924  0.37598061  0.88080424  1
  O  O181  1  0.39024285  0.87146072  0.38419414  1
  O  O182  1  0.37930917  0.87536434  0.88255650  1
  O  O183  1  0.87007588  0.37878874  0.38830617  1
  O  O184  1  0.88274927  0.38048801  0.88158193  1
  O  O185  1  0.86872222  0.88295883  0.38945611  1
  O  O186  1  0.87575334  0.87754831  0.89156160  1
  O  O187  1  0.26445030  -0.00737367  0.37857593  1
  O  O188  1  0.26064868  -0.00301726  0.87328268  1
  O  O189  1  0.26358248  0.50254995  0.37420524  1
  O  O190  1  0.24996098  0.50173650  0.86578716  1
  O  O191  1  0.76244785  0.00136493  0.37106620  1
  O  O192  1  0.77736995  -0.00319674  0.86582377  1
  O  O193  1  0.75256591  0.50440372  0.37081038  1
  O  O194  1  0.75309316  0.50837648  0.86695400  1
  O  O195  1  0.24046351  0.48546779  0.12603616  1
  O  O196  1  0.24178294  0.49339972  0.63157820  1
  O  O197  1  0.23370700  0.98610803  0.12076751  1
  O  O198  1  0.23643709  0.98784744  0.62796730  1
  O  O199  1  0.73721139  0.50483493  0.13499054  1
  O  O200  1  0.73998704  0.49884625  0.63283646  1
  O  O201  1  0.75545424  0.98596420  0.13627041  1
  O  O202  1  0.74660282  0.98601945  0.61883098  1
  O  O203  1  0.00762008  0.38109939  0.25064323  1
  O  O204  1  -0.00613402  0.36228965  0.75767806  1
  O  O205  1  -0.01683136  0.86652517  0.24202099  1
  O  O206  1  0.00867236  0.85502437  0.73910177  1
  O  O207  1  0.49834281  0.36447807  0.26459283  1
  O  O208  1  0.51273547  0.38078499  0.75671256  1
  O  O209  1  0.51236522  0.86968543  0.26080436  1
  O  O210  1  0.49663936  0.86405624  0.76142444  1
  O  O211  1  0.50333111  0.14145381  0.25439396  1
  O  O212  1  0.48431426  0.12637392  0.76166342  1
  O  O213  1  0.49160028  0.62911198  0.24461581  1
  O  O214  1  0.49301319  0.62944975  0.74495494  1
  O  O215  1  0.98213884  0.12393909  0.23889154  1
  O  O216  1  0.98931939  0.13644478  0.74441439  1
  O  O217  1  0.98308592  0.61006248  0.25198710  1
  O  O218  1  1.00422750  0.63351110  0.74009803  1
  O  O219  1  0.35700181  0.26183343  -0.00704008  1
  O  O220  1  0.37823918  0.26001631  0.51876987  1
  O  O221  1  0.37578860  0.75274233  0.01306398  1
  O  O222  1  0.36886409  0.75897231  0.50732697  1
  O  O223  1  0.86716807  0.26255161  0.00747250  1
  O  O224  1  0.87018533  0.25337343  0.50554866  1
  O  O225  1  0.86913549  0.75871955  0.00341718  1
  O  O226  1  0.86327519  0.75632575  0.50347063  1
  O  O227  1  0.12038299  0.23475774  0.49713259  1
  O  O228  1  0.12225173  0.24386490  0.98783502  1
  O  O229  1  0.14209081  0.74375227  0.50959264  1
  O  O230  1  0.12308498  0.73623800  1.00941747  1
  O  O231  1  0.63106947  0.24719176  0.49373070  1
  O  O232  1  0.65126483  0.27678907  0.99319502  1
  O  O233  1  0.62825231  0.74281912  0.49681997  1
  O  O234  1  0.62054524  0.73644713  0.98532742  1
  O  O235  1  0.50174426  0.26001035  0.15043126  1
  O  O236  1  0.48692260  0.25725932  0.63163638  1
  O  O237  1  0.49175511  0.74009940  0.13341445  1
  O  O238  1  0.49355255  0.74582989  0.63467244  1
  O  O239  1  0.98686169  0.23828460  0.11967971  1
  O  O240  1  0.99321451  0.25056318  0.63304360  1
  O  O241  1  0.97166260  0.73949818  0.11691259  1
  O  O242  1  0.99689499  0.73123925  0.63024886  1
  O  O243  1  0.01840453  0.25701848  0.38437061  1
  O  O244  1  -0.00107368  0.25536050  0.86961223  1
  O  O245  1  -0.00779206  0.75170393  0.38491400  1
  O  O246  1  0.00235309  0.74045134  0.86236969  1
  O  O247  1  0.50825606  0.25644416  0.36726588  1
  O  O248  1  0.51160819  0.26737349  0.86559317  1
  O  O249  1  0.50637235  0.75771097  0.36933855  1
  O  O250  1  0.50533851  0.75367293  0.86997722  1
  O  O251  1  0.24056555  0.12037257  0.51383050  1
  O  O252  1  0.23128752  0.13662190  1.00099346  1
  O  O253  1  0.25175891  0.63628889  0.49973951  1
  O  O254  1  0.24128058  0.62334354  1.00021359  1
  O  O255  1  0.74633882  0.13681491  0.49872384  1
  O  O256  1  0.79253162  0.13469432  0.97544899  1
  O  O257  1  0.74106786  0.63000189  0.49780311  1
  O  O258  1  0.73671071  0.61716094  0.99134219  1
  O  O259  1  0.25345789  0.37067920  0.00470274  1
  O  O260  1  0.26297483  0.38102083  0.51296394  1
  O  O261  1  0.25717548  0.86984471  0.00800677  1
  O  O262  1  0.25757132  0.86287297  0.50821486  1
  O  O263  1  0.76614293  0.38999066  -0.00188575  1
  O  O264  1  0.75592619  0.36321436  0.50247007  1
  O  O265  1  0.74756463  0.87786413  0.00847264  1
  O  O266  1  0.75222132  0.86667366  0.50796578  1
  O  O267  1  0.12774271  0.48814065  0.24250251  1
  O  O268  1  0.13323276  0.50188157  0.74173366  1
  O  O269  1  0.11137227  1.00155416  0.24472410  1
  O  O270  1  0.12225144  0.99081619  0.74280380  1
  O  O271  1  0.62815224  0.49772618  0.24135209  1
  O  O272  1  0.63411451  0.49452479  0.74419741  1
  O  O273  1  0.63866465  0.99195837  0.26424698  1
  O  O274  1  0.62449351  0.99647205  0.75439768  1
  O  O275  1  0.38906462  0.01828936  0.24718662  1
  O  O276  1  0.37168225  0.00795304  0.75672597  1
  O  O277  1  0.37508722  0.50652751  0.25648174  1
  O  O278  1  0.36754931  0.50760699  0.75103531  1
  O  O279  1  0.86529042  0.00492906  0.25749470  1
  O  O280  1  0.88183412  0.01045011  0.73146087  1
  O  O281  1  0.86284325  0.50503854  0.25454405  1
  O  O282  1  0.86100858  0.49283958  0.75420608  1
  O  O283  1  0.11876261  0.38602455  0.36343022  1
  O  O284  1  0.10832424  0.36571126  0.87929181  1
  O  O285  1  0.12025230  0.85882637  0.38164001  1
  O  O286  1  0.12747845  0.87518926  0.86300588  1
  O  O287  1  0.61529081  0.36681941  0.37603314  1
  O  O288  1  0.61966100  0.37160800  0.86813855  1
  O  O289  1  0.62116485  0.86743484  0.37147859  1
  O  O290  1  0.61692244  0.86347636  0.87290463  1
  O  O291  1  0.38964504  0.11892390  0.08609675  1
  O  O292  1  0.37261015  0.14265684  0.63565397  1
  O  O293  1  0.37940931  0.62735246  0.12958247  1
  O  O294  1  0.37931839  0.62849487  0.63572977  1
  O  O295  1  0.87566058  0.13144595  0.13083801  1
  O  O296  1  0.87773548  0.13562446  0.62996244  1
  O  O297  1  0.87532239  0.62723202  0.13355990  1
  O  O298  1  0.88828288  0.62162509  0.62355227  1
  O  O299  1  0.23122455  0.26393207  0.10907091  1
  O  O300  1  0.25802060  0.26362016  0.63563326  1
  O  O301  1  0.25772512  0.76130159  0.12409629  1
  O  O302  1  0.25668957  0.75339204  0.62345170  1
  O  O303  1  0.76877720  0.26276470  0.11889604  1
  O  O304  1  0.75867121  0.25375329  0.61841330  1
  O  O305  1  0.75583883  0.75710659  0.12662837  1
  O  O306  1  0.74864419  0.75211924  0.61547772  1
  O  O307  1  0.21932325  0.27361704  0.38401239  1
  O  O308  1  0.23571774  0.25201739  0.88351156  1
  O  O309  1  0.25517741  0.74662052  0.39145570  1
  O  O310  1  0.24090590  0.74310204  0.88107887  1
  O  O311  1  0.74263019  0.24878938  0.38385018  1
  O  O312  1  0.74148020  0.24693078  0.88558299  1
  O  O313  1  0.73896622  0.74072941  0.39105784  1
  O  O314  1  0.74052006  0.74051634  0.86570061  1
  O  O315  1  0.00179587  0.12871525  0.00534226  1
  O  O316  1  0.00235218  0.11040887  0.50223073  1
  O  O317  1  0.00783664  0.61869898  0.01164146  1
  O  O318  1  0.00077339  0.61476404  0.51335251  1
  O  O319  1  0.53219338  0.18186318  -0.00771948  1
  O  O320  1  0.50907512  0.11463441  0.49865353  1
  O  O321  1  0.50884872  0.61669353  0.00332273  1
  O  O322  1  0.50536149  0.63229970  0.51035982  1
  O  O323  1  0.48951345  0.37010701  0.48832708  1
  O  O324  1  0.48961384  0.37297214  0.99383421  1
  O  O325  1  0.49447591  0.87772251  0.49557398  1
  O  O326  1  0.49020351  0.86943220  0.98923208  1
  O  O327  1  0.98965140  0.38341865  0.50878031  1
  O  O328  1  0.99149951  0.38217711  0.99195605  1
  O  O329  1  0.98637738  0.88816239  0.50753681  1
  O  O330  1  0.99046425  0.86257730  1.01100852  1
  O  O331  1  0.48739908  0.49040254  0.37120077  1
  O  O332  1  0.50106945  0.48892486  0.88275145  1
  O  O333  1  0.50961650  0.98816953  0.38881040  1
  O  O334  1  0.48319842  0.98637993  0.87149342  1
  O  O335  1  0.98881135  0.50366557  0.39225953  1
  O  O336  1  0.99386018  0.49309389  0.87632789  1
  O  O337  1  0.99178343  0.99911267  0.37746520  1
  O  O338  1  0.97993034  0.99096838  0.86306022  1
  O  O339  1  0.00314338  0.01079182  0.12390700  1
  O  O340  1  0.01347152  -0.00046174  0.61577724  1
  O  O341  1  0.00889245  0.50902980  0.12278614  1
  O  O342  1  0.00496670  0.50377351  0.62142139  1
  O  O343  1  0.54556295  0.02473286  0.11919475  1
  O  O344  1  0.50714899  -0.01013413  0.61504922  1
  O  O345  1  0.50509035  0.50535790  0.12053542  1
  O  O346  1  0.51205175  0.50643279  0.63134966  1
  O  O347  1  0.24260828  0.37252568  0.24105909  1
  O  O348  1  0.25553960  0.38749304  0.74345583  1
  O  O349  1  0.25817463  0.87432785  0.23678227  1
  O  O350  1  0.24177888  0.87255519  0.74302855  1
  O  O351  1  0.74428687  0.38852394  0.25667749  1
  O  O352  1  0.73922589  0.38244842  0.75078934  1
  O  O353  1  0.73801704  0.88167258  0.24081124  1
  O  O354  1  0.75185936  0.86619642  0.73383074  1
  O  O355  1  0.24689521  0.12290840  0.21253580  1
  O  O356  1  0.26263368  0.12321823  0.75889295  1
  O  O357  1  0.26395874  0.62032075  0.24986633  1
  O  O358  1  0.25706204  0.61490602  0.74921723  1
  O  O359  1  0.75905788  0.11549996  0.25152327  1
  O  O360  1  0.77087204  0.12999587  0.74978503  1
  O  O361  1  0.75154057  0.61434453  0.25716944  1
  O  O362  1  0.74528504  0.61623232  0.75888648  1
  O  O363  1  0.35928807  0.14640201  0.38586725  1
  O  O364  1  0.37257378  0.11361819  0.88074653  1
  O  O365  1  0.37764724  0.61773077  0.36670687  1
  O  O366  1  0.37627101  0.62236435  0.86342718  1
  O  O367  1  0.87540658  0.11837057  0.36798843  1
  O  O368  1  0.88462974  0.10807724  0.85685720  1
  O  O369  1  0.86413377  0.61626572  0.37052016  1
  O  O370  1  0.86241697  0.61954687  0.88263808  1
  O  O371  1  0.12375435  0.37923186  0.13249074  1
  O  O372  1  0.13362351  0.38552530  0.61927165  1
  O  O373  1  0.13689983  0.88364222  0.12730668  1
  O  O374  1  0.13634822  0.87835396  0.63356283  1
  O  O375  1  0.61552255  0.38597147  0.12488804  1
  O  O376  1  0.62495728  0.38200563  0.63172594  1
  O  O377  1  0.62834165  0.86954832  0.13431864  1
  O  O378  1  0.63905780  0.87167127  0.62838080  1
  O  O379  1  0.11721711  0.26404681  0.26356277  1
  O  O380  1  0.11519998  0.24163858  0.76324873  1
  O  O381  1  0.09259610  0.72228966  0.20441807  1
  O  O382  1  0.11480933  0.75407555  0.75191620  1
  O  O383  1  0.63286267  0.24992744  0.26191642  1
  O  O384  1  0.62702713  0.25931450  0.75846231  1
  O  O385  1  0.62082243  0.75720836  0.25572050  1
  O  O386  1  0.61079993  0.74748505  0.75821857  1
  O  O387  1  0.37884485  0.24747887  0.25379829  1
  O  O388  1  0.37781759  0.24606974  0.74402812  1
  O  O389  1  0.38160668  0.73872237  0.23620315  1
  O  O390  1  0.38305226  0.74215388  0.74782682  1
  O  O391  1  0.86818266  0.24317041  0.24251443  1
  O  O392  1  0.87993428  0.24864245  0.74303286  1
  O  O393  1  0.86450361  0.73181323  0.24337955  1
  O  O394  1  0.89038087  0.75303313  0.74820231  1
  O  O395  1  0.37555053  0.49272130  0.49438823  1
  O  O396  1  0.37973584  0.48708020  0.99815628  1
  O  O397  1  0.38563734  0.98551036  0.50585800  1
  O  O398  1  0.37284455  0.98414051  0.99200237  1
  O  O399  1  0.87825527  0.48961806  0.49896466  1
  O  O400  1  0.88244121  0.49825046  0.99437956  1
  O  O401  1  0.87984597  0.99575466  0.49289595  1
  O  O402  1  0.87852845  0.98489241  0.99566250  1
  O  O403  1  0.12351301  0.01031116  0.00428448  1
  O  O404  1  0.11940499  0.00433963  0.50421897  1
  O  O405  1  0.11806171  0.49922251  0.00716385  1
  O  O406  1  0.11672380  0.50133309  0.50555649  1
  O  O407  1  0.61903894  -0.00026610  -0.02047490  1
  O  O408  1  0.62057872  0.01016135  0.50415711  1
  O  O409  1  0.61814203  0.50423993  0.00629109  1
  O  O410  1  0.62954254  0.50561220  0.51125029  1
  O  O411  1  0.36318402  0.37726985  0.11716538  1
  O  O412  1  0.36893824  0.37139329  0.62154791  1
  O  O413  1  0.36437063  0.86768950  0.11716281  1
  O  O414  1  0.36462711  0.86983326  0.62101102  1
  O  O415  1  0.88650767  0.37090744  0.11566188  1
  O  O416  1  0.87190721  0.36464977  0.61622509  1
  O  O417  1  0.86322605  0.86586461  0.11184288  1
  O  O418  1  0.86200402  0.87118069  0.61427183  1
  O  O419  1  0.12780656  0.13463141  0.38364074  1
  O  O420  1  0.12082166  0.12857865  0.88088750  1
  O  O421  1  0.12537282  0.63062743  0.37199419  1
  O  O422  1  0.12229380  0.62073521  0.89152454  1
  O  O423  1  0.62754615  0.13408492  0.38732373  1
  O  O424  1  0.63173543  0.13850882  0.86776204  1
  O  O425  1  0.62466472  0.62881234  0.38010000  1
  O  O426  1  0.63286576  0.62704124  0.88072506  1
