# generated using pymatgen
data_V85Zn86O256
_symmetry_space_group_name_H-M   'P 1'
_cell_length_a   16.93967480
_cell_length_b   16.95435045
_cell_length_c   16.94248679
_cell_angle_alpha   89.94467011
_cell_angle_beta   89.91940658
_cell_angle_gamma   89.97457863
_symmetry_Int_Tables_number   1
_chemical_formula_structural   V85Zn86O256
_chemical_formula_sum   'V85 Zn86 O256'
_cell_volume   4865.89469383
_cell_formula_units_Z   1
loop_
 _symmetry_equiv_pos_site_id
 _symmetry_equiv_pos_as_xyz
  1  'x, y, z'
loop_
 _atom_site_type_symbol
 _atom_site_label
 _atom_site_symmetry_multiplicity
 _atom_site_fract_x
 _atom_site_fract_y
 _atom_site_fract_z
 _atom_site_occupancy
  V  V0  1  0.62773962  0.36985635  0.25408628  1
  V  V1  1  0.14218688  0.74952085  0.37219352  1
  V  V2  1  0.49870872  0.75399491  0.24658024  1
  V  V3  1  0.62573305  0.87533943  0.25288946  1
  V  V4  1  0.11210703  0.12776610  0.00130299  1
  V  V5  1  0.37124668  0.75273490  0.12165287  1
  V  V6  1  0.24017727  0.74916072  0.00329562  1
  V  V7  1  0.11326046  0.74775359  0.87401242  1
  V  V8  1  -0.02005783  0.90455692  0.87465094  1
  V  V9  1  0.12752929  0.50165277  0.62252141  1
  V  V10  1  0.24687860  -0.00641174  0.23487038  1
  V  V11  1  0.49962886  0.49950467  0.00024998  1
  V  V12  1  0.75088544  0.37561534  0.12643315  1
  V  V13  1  0.49853198  0.24726568  0.74814711  1
  V  V14  1  0.25170719  0.49422628  0.24504096  1
  V  V15  1  0.50114515  0.24991018  0.25195840  1
  V  V16  1  0.75577566  0.74677880  0.00240975  1
  V  V17  1  0.87868336  0.24053830  0.12311763  1
  V  V18  1  0.75091527  0.49818308  0.74919549  1
  V  V19  1  0.62761079  0.37450665  0.74779766  1
  V  V20  1  0.87993853  0.00584574  0.37774900  1
  V  V21  1  0.50439696  0.36995604  0.37742130  1
  V  V22  1  0.24684585  0.24964993  -0.00672617  1
  V  V23  1  0.12423579  0.12338518  0.50131070  1
  V  V24  1  -0.00794198  0.12366371  0.63011866  1
  V  V25  1  0.37268587  0.24635022  0.62617481  1
  V  V26  1  0.74654052  0.25170381  -0.00393229  1
  V  V27  1  0.62990886  0.50023291  0.12849648  1
  V  V28  1  0.37247806  0.12361123  0.24768961  1
  V  V29  1  0.50142597  0.12461036  0.12314815  1
  V  V30  1  0.25473138  0.86982957  0.61653145  1
  V  V31  1  0.00375711  -0.00166319  0.50170800  1
  V  V32  1  0.88043921  0.26001043  0.61785091  1
  V  V33  1  0.88343462  0.75339529  0.13108790  1
  V  V34  1  0.75248077  0.75296786  0.50542296  1
  V  V35  1  0.24906543  0.62892376  0.87787260  1
  V  V36  1  0.12380076  0.25131047  0.37260791  1
  V  V37  1  0.37057722  0.37677961  0.00245948  1
  V  V38  1  0.24702269  0.12233489  0.37240611  1
  V  V39  1  0.87899503  0.49641812  0.87269693  1
  V  V40  1  0.24965932  0.37426474  0.62493728  1
  V  V41  1  0.13112460  -0.00024197  0.63459061  1
  V  V42  1  0.73205851  0.13016971  0.38046646  1
  V  V43  1  0.13070765  0.87307981  0.75708293  1
  V  V44  1  0.50113080  0.49840169  0.50733041  1
  V  V45  1  0.24534775  0.11623999  0.87456849  1
  V  V46  1  0.75741086  0.37842913  0.61585558  1
  V  V47  1  0.89339494  0.62979301  0.25251156  1
  V  V48  1  0.74982795  0.62564263  0.37083801  1
  V  V49  1  0.62478947  0.12309622  -0.00517957  1
  V  V50  1  -0.00012295  0.24279173  0.24584762  1
  V  V51  1  0.25258120  0.50308913  0.75173887  1
  V  V52  1  -0.00459390  0.49662144  0.49723067  1
  V  V53  1  0.49875282  0.37481862  0.87367985  1
  V  V54  1  0.62354223  0.75234291  0.37702345  1
  V  V55  1  0.00786958  0.24870846  0.75325221  1
  V  V56  1  0.62440588  0.62408428  0.50721368  1
  V  V57  1  0.01205217  0.37385481  0.87666838  1
  V  V58  1  0.49902207  0.11973111  0.61519780  1
  V  V59  1  0.75668583  0.01527924  0.74398454  1
  V  V60  1  0.75163412  0.62312529  0.87388962  1
  V  V61  1  0.00120767  0.86153310  0.37157572  1
  V  V62  1  0.37029061  0.62444130  0.25015469  1
  V  V63  1  0.74911996  -0.00357403  0.25721013  1
  V  V64  1  0.10217169  -0.00073959  0.11875689  1
  V  V65  1  0.50346950  0.87571079  0.87548438  1
  V  V66  1  0.37381592  0.00005073  0.38045595  1
  V  V67  1  0.37145426  0.11277674  0.75094894  1
  V  V68  1  0.24935171  0.24967246  0.49891021  1
  V  V69  1  0.43911935  0.82621971  0.43028721  1
  V  V70  1  0.87503522  0.87483230  0.50553295  1
  V  V71  1  0.87932058  0.37560145  0.00150685  1
  V  V72  1  0.87900075  0.75236126  0.63229665  1
  V  V73  1  0.12790397  0.37094274  0.23843057  1
  V  V74  1  0.62616623  0.62292273  0.00062062  1
  V  V75  1  0.00357145  0.62953061  0.62811219  1
  V  V76  1  0.11922629  0.51596719  0.12561981  1
  V  V77  1  0.13845625  0.63067357  0.49631092  1
  V  V78  1  0.36938411  0.49728523  0.37526393  1
  V  V79  1  0.37054422  0.87524721  0.00106323  1
  V  V80  1  0.63525542  0.87635126  0.74965282  1
  V  V81  1  0.76200401  0.89345272  0.09596571  1
  V  V82  1  0.49680581  0.74741554  0.74268647  1
  V  V83  1  0.62892811  -0.00309222  0.61562439  1
  V  V84  1  0.36791548  0.25310640  0.12470802  1
  Zn  Zn85  1  0.62120149  0.50570484  0.62920501  1
  Zn  Zn86  1  0.62449332  0.24508848  0.86722475  1
  Zn  Zn87  1  0.88233732  0.62847670  0.75140863  1
  Zn  Zn88  1  0.37619958  0.37322033  0.49996471  1
  Zn  Zn89  1  0.50130805  0.62537332  0.12492797  1
  Zn  Zn90  1  0.13260922  0.37271385  0.75918931  1
  Zn  Zn91  1  0.50173201  -0.00126793  0.49203109  1
  Zn  Zn92  1  0.62662848  0.75023116  0.87404349  1
  Zn  Zn93  1  0.37243854  0.74956385  0.61256195  1
  Zn  Zn94  1  0.87126483  0.49290756  0.37598091  1
  Zn  Zn95  1  0.11923960  0.86430536  0.23499061  1
  Zn  Zn96  1  0.37257138  -0.00425824  0.87401576  1
  Zn  Zn97  1  0.74578397  0.25246707  0.49212111  1
  Zn  Zn98  1  0.76137800  0.11803454  0.87249347  1
  Zn  Zn99  1  0.37828697  0.62665585  0.74029520  1
  Zn  Zn100  1  0.50062178  -0.00192298  -0.00130411  1
  Zn  Zn101  1  0.75439007  0.50206073  0.25084113  1
  Zn  Zn102  1  0.62211144  0.00067411  0.12833490  1
  Zn  Zn103  1  0.37524608  0.50522201  0.87574295  1
  Zn  Zn104  1  0.87650249  0.12191812  0.24693891  1
  Zn  Zn105  1  -0.00538299  0.37128975  0.37710372  1
  Zn  Zn106  1  0.01307416  0.51271994  0.00009772  1
  Zn  Zn107  1  0.18589644  0.18263523  0.18133329  1
  Zn  Zn108  1  0.18589298  0.18516567  0.69076879  1
  Zn  Zn109  1  0.19072486  0.68661575  0.19061524  1
  Zn  Zn110  1  0.18867951  0.69084952  0.68923728  1
  Zn  Zn111  1  0.69011794  0.18610513  0.18933777  1
  Zn  Zn112  1  0.67976685  0.19563315  0.65693353  1
  Zn  Zn113  1  0.69196541  0.69262324  0.18404834  1
  Zn  Zn114  1  0.69007158  0.68960117  0.68890328  1
  Zn  Zn115  1  0.31190767  0.31406345  0.31207595  1
  Zn  Zn116  1  0.31337979  0.30965471  0.81466051  1
  Zn  Zn117  1  0.30388544  0.81342599  0.30117260  1
  Zn  Zn118  1  0.31029629  0.81487323  0.81320543  1
  Zn  Zn119  1  0.81557924  0.31113382  0.31428962  1
  Zn  Zn120  1  0.83376716  0.28125200  0.82301772  1
  Zn  Zn121  1  0.81506201  0.81224125  0.31609492  1
  Zn  Zn122  1  0.81061331  0.81332829  0.81399699  1
  Zn  Zn123  1  0.18468929  0.43686771  0.43459649  1
  Zn  Zn124  1  0.19190891  0.44321536  0.94490230  1
  Zn  Zn125  1  0.18754105  0.93638722  0.43564201  1
  Zn  Zn126  1  0.18524966  0.93779656  0.94323107  1
  Zn  Zn127  1  0.68720948  0.43996692  0.43564739  1
  Zn  Zn128  1  0.68884267  0.43500642  0.93553174  1
  Zn  Zn129  1  0.68939544  0.93486097  0.43661551  1
  Zn  Zn130  1  0.70140612  0.94376980  0.93523374  1
  Zn  Zn131  1  0.31379802  0.06419097  0.05712345  1
  Zn  Zn132  1  0.30870784  0.05829174  0.56350676  1
  Zn  Zn133  1  0.30883713  0.56540318  0.06500873  1
  Zn  Zn134  1  0.31705384  0.56458181  0.56594029  1
  Zn  Zn135  1  0.80715835  0.06296240  0.06180039  1
  Zn  Zn136  1  0.81257701  0.06433080  0.56316228  1
  Zn  Zn137  1  0.84460271  0.57641414  0.05324976  1
  Zn  Zn138  1  0.81434309  0.56662341  0.56351554  1
  Zn  Zn139  1  0.44131207  0.43652112  0.18567944  1
  Zn  Zn140  1  0.43382511  0.43593153  0.68813111  1
  Zn  Zn141  1  0.43578496  0.93645229  0.18794658  1
  Zn  Zn142  1  0.43990650  0.93271618  0.68551370  1
  Zn  Zn143  1  0.93899512  0.43558357  0.19461311  1
  Zn  Zn144  1  0.94203218  0.43585523  0.68848796  1
  Zn  Zn145  1  0.93602991  0.93406955  0.19211769  1
  Zn  Zn146  1  0.94289334  0.93444736  0.69306960  1
  Zn  Zn147  1  0.06246230  0.06026516  0.30950638  1
  Zn  Zn148  1  0.06310343  0.06298595  0.81429021  1
  Zn  Zn149  1  0.06921997  0.56287624  0.31570982  1
  Zn  Zn150  1  0.06727841  0.56237094  0.81192768  1
  Zn  Zn151  1  0.55823162  0.06079139  0.31364095  1
  Zn  Zn152  1  0.56468408  0.06035144  0.80846150  1
  Zn  Zn153  1  0.56045832  0.56203913  0.31569255  1
  Zn  Zn154  1  0.56274557  0.56328759  0.81440812  1
  Zn  Zn155  1  0.43511969  0.18722570  0.43629771  1
  Zn  Zn156  1  0.43592719  0.18723897  0.93489662  1
  Zn  Zn157  1  0.42941880  0.66391226  0.44454499  1
  Zn  Zn158  1  0.43707082  0.68912568  0.93308675  1
  Zn  Zn159  1  0.93715125  0.18921520  0.44023696  1
  Zn  Zn160  1  0.93819335  0.18576934  0.93070595  1
  Zn  Zn161  1  0.94002625  0.68278215  0.44145463  1
  Zn  Zn162  1  0.93680529  0.68558600  0.94359069  1
  Zn  Zn163  1  0.06239292  0.31318387  0.06235944  1
  Zn  Zn164  1  0.06633108  0.31359190  0.56325369  1
  Zn  Zn165  1  0.05654657  0.82154645  0.05174150  1
  Zn  Zn166  1  0.06602381  0.81210133  0.56230724  1
  Zn  Zn167  1  0.56089807  0.31100151  0.06407894  1
  Zn  Zn168  1  0.56856180  0.30986722  0.56217519  1
  Zn  Zn169  1  0.56818116  0.81472583  0.06449479  1
  Zn  Zn170  1  0.56955088  0.81208285  0.56828353  1
  O  O171  1  0.12650916  0.11389637  0.11080378  1
  O  O172  1  0.12136803  0.11599137  0.62077545  1
  O  O173  1  0.12171396  0.61471482  0.13419980  1
  O  O174  1  0.12291121  0.62389142  0.61503388  1
  O  O175  1  0.61668640  0.12533680  0.11944525  1
  O  O176  1  0.60907658  0.10418396  0.63410065  1
  O  O177  1  0.62527020  0.61643904  0.12086625  1
  O  O178  1  0.63146700  0.62477627  0.61149193  1
  O  O179  1  0.38360559  0.38233372  0.37567951  1
  O  O180  1  0.38287817  0.37661819  0.88360713  1
  O  O181  1  0.37306005  0.88008465  0.37017208  1
  O  O182  1  0.38315198  0.87482516  0.88296336  1
  O  O183  1  0.88111824  0.38029054  0.36951236  1
  O  O184  1  0.88717607  0.37726655  0.88163785  1
  O  O185  1  0.88360974  0.88286588  0.38461995  1
  O  O186  1  0.88323629  0.87762411  0.86941427  1
  O  O187  1  0.25153751  0.00471338  0.36384427  1
  O  O188  1  0.25257129  0.01211032  0.88137197  1
  O  O189  1  0.25996352  0.49202368  0.36304060  1
  O  O190  1  0.25074948  0.50889978  0.86860329  1
  O  O191  1  0.75681025  0.00767337  0.37171484  1
  O  O192  1  0.74817205  0.00527483  0.85046292  1
  O  O193  1  0.75166309  0.51119364  0.37315648  1
  O  O194  1  0.75693122  0.50181518  0.86701818  1
  O  O195  1  0.24069855  0.50382862  0.13768239  1
  O  O196  1  0.24837031  0.49192319  0.63069345  1
  O  O197  1  0.25107895  1.00430830  0.13438425  1
  O  O198  1  0.23745903  0.99108496  0.62486894  1
  O  O199  1  0.73908534  0.49493363  0.12797118  1
  O  O200  1  0.75240797  0.49544126  0.63203016  1
  O  O201  1  0.74524286  0.99983133  0.14648168  1
  O  O202  1  0.73479810  1.00372891  0.62554052  1
  O  O203  1  0.01052643  0.36172057  0.25202453  1
  O  O204  1  0.00980635  0.37451606  0.76051197  1
  O  O205  1  0.00638882  0.88215733  0.26590454  1
  O  O206  1  0.01379138  0.88150416  0.76695762  1
  O  O207  1  0.50673661  0.37004541  0.25730129  1
  O  O208  1  0.50537419  0.37013648  0.75348167  1
  O  O209  1  0.50736200  0.86275192  0.24449888  1
  O  O210  1  0.50867371  0.86762490  0.75688011  1
  O  O211  1  0.49358171  0.13110532  0.24349830  1
  O  O212  1  0.49080562  0.12877077  0.74312142  1
  O  O213  1  0.49137894  0.63623882  0.25214050  1
  O  O214  1  0.50232798  0.64360304  0.75733613  1
  O  O215  1  0.99912263  0.13806524  0.25176860  1
  O  O216  1  1.00997551  0.13484036  0.73991809  1
  O  O217  1  0.99159266  0.62644961  0.25591894  1
  O  O218  1  1.00209243  0.61651416  0.73286871  1
  O  O219  1  0.36970595  0.25626679  0.00573225  1
  O  O220  1  0.36645745  0.25013621  0.50727881  1
  O  O221  1  0.36892319  0.75464404  0.00594070  1
  O  O222  1  0.38543361  0.76033589  0.48863466  1
  O  O223  1  0.86820675  0.26093393  0.00615685  1
  O  O224  1  0.86998904  0.24841482  0.51278166  1
  O  O225  1  0.86141733  0.74997763  0.00980257  1
  O  O226  1  0.86998189  0.75551373  0.50544500  1
  O  O227  1  0.13024502  0.24395242  0.49323231  1
  O  O228  1  0.13471504  0.23859728  1.00909785  1
  O  O229  1  0.12417329  0.73750724  0.49190223  1
  O  O230  1  0.13535301  0.75711242  0.99364508  1
  O  O231  1  0.64821665  0.23554915  0.54836643  1
  O  O232  1  0.63027355  0.24001946  1.00202050  1
  O  O233  1  0.63187375  0.74555503  0.49682330  1
  O  O234  1  0.62542223  0.73030392  1.00374212  1
  O  O235  1  0.49069663  0.24020953  0.12889136  1
  O  O236  1  0.49045835  0.24092069  0.62940983  1
  O  O237  1  0.49495252  0.74679345  0.13251382  1
  O  O238  1  0.49683124  0.75883021  0.63947571  1
  O  O239  1  0.98907682  0.25504934  0.13135985  1
  O  O240  1  0.99966056  0.24241831  0.62493896  1
  O  O241  1  0.98231776  0.76580644  0.11889742  1
  O  O242  1  0.99258074  0.74119475  0.61772529  1
  O  O243  1  0.00837333  0.24869957  0.36872693  1
  O  O244  1  0.00337389  0.26168033  0.86595576  1
  O  O245  1  0.00524832  0.75900723  0.38250018  1
  O  O246  1  0.01265020  0.74071714  0.88010067  1
  O  O247  1  0.49425409  0.26203248  0.37041267  1
  O  O248  1  0.50147966  0.25682405  0.86657064  1
  O  O249  1  0.49673855  0.75642929  0.37249918  1
  O  O250  1  0.50509647  0.76122688  0.86848940  1
  O  O251  1  0.24322083  0.12939824  0.49429933  1
  O  O252  1  0.24518098  0.13248084  0.99268010  1
  O  O253  1  0.23665535  0.61851487  0.49978928  1
  O  O254  1  0.25469978  0.63651328  0.99102337  1
  O  O255  1  0.75446853  0.12151110  0.48146767  1
  O  O256  1  0.74256149  0.13490368  0.99437422  1
  O  O257  1  0.74571491  0.63094833  0.49012440  1
  O  O258  1  0.74620988  0.62942804  0.99676057  1
  O  O259  1  0.26270304  0.36686470  -0.00429657  1
  O  O260  1  0.25056394  0.36880895  0.50720450  1
  O  O261  1  0.26300298  0.86584830  -0.00500709  1
  O  O262  1  0.24236832  0.87796313  0.51780244  1
  O  O263  1  0.75281866  0.36965675  0.00936563  1
  O  O264  1  0.74381255  0.37570158  0.51298200  1
  O  O265  1  0.71497716  0.84847314  0.00249570  1
  O  O266  1  0.76257171  0.86574162  0.49503616  1
  O  O267  1  0.13313062  0.49302220  0.24603320  1
  O  O268  1  0.13859138  0.49815801  0.74185842  1
  O  O269  1  0.13131003  1.00521849  0.23228141  1
  O  O270  1  0.12404404  0.98986011  0.74447854  1
  O  O271  1  0.62362882  0.49032211  0.24388778  1
  O  O272  1  0.63188195  0.49575654  0.74888597  1
  O  O273  1  0.62936115  0.99090887  0.25363000  1
  O  O274  1  0.63116976  0.99187091  0.73937913  1
  O  O275  1  0.36257903  0.00158255  0.25416967  1
  O  O276  1  0.37792768  0.01014802  0.75009931  1
  O  O277  1  0.37139932  0.50358735  0.25164770  1
  O  O278  1  0.36405044  0.50202490  0.75153658  1
  O  O279  1  0.86728183  0.00073353  0.26118969  1
  O  O280  1  0.85420989  -0.00139148  0.72802236  1
  O  O281  1  0.87443928  0.51657129  0.25065464  1
  O  O282  1  0.86993949  0.49734467  0.76033229  1
  O  O283  1  0.12369499  0.36481934  0.36461125  1
  O  O284  1  0.11577311  0.38405499  0.88107270  1
  O  O285  1  0.11976710  0.86037855  0.37841177  1
  O  O286  1  0.12945790  0.86916095  0.86632885  1
  O  O287  1  0.61796055  0.37713928  0.36602732  1
  O  O288  1  0.61617742  0.37641024  0.86302190  1
  O  O289  1  0.62717947  0.86672399  0.36386146  1
  O  O290  1  0.62026100  0.87514039  0.86652842  1
  O  O291  1  0.38211978  0.13170320  0.12791284  1
  O  O292  1  0.37724570  0.12611313  0.63198454  1
  O  O293  1  0.37953110  0.63433375  0.13148119  1
  O  O294  1  0.37423253  0.63695940  0.62555516  1
  O  O295  1  0.86813835  0.13612986  0.12352691  1
  O  O296  1  0.88840308  0.13262725  0.62115825  1
  O  O297  1  0.86359452  0.63906839  0.14838306  1
  O  O298  1  0.88540317  0.63429804  0.62555933  1
  O  O299  1  0.26296391  0.24291277  0.11497974  1
  O  O300  1  0.25313129  0.25550563  0.62096653  1
  O  O301  1  0.25835634  0.74535608  0.11676360  1
  O  O302  1  0.24912430  0.76521525  0.62582850  1
  O  O303  1  0.75600076  0.25508741  0.11629711  1
  O  O304  1  0.77056890  0.26797887  0.64272128  1
  O  O305  1  0.75722863  0.76168228  0.11791612  1
  O  O306  1  0.75974923  0.74441044  0.61191385  1
  O  O307  1  0.24435775  0.24287939  0.37798264  1
  O  O308  1  0.25417910  0.24068141  0.88772250  1
  O  O309  1  0.24097139  0.75364487  0.37789414  1
  O  O310  1  0.24314086  0.74499218  0.88174886  1
  O  O311  1  0.75125103  0.23425649  0.37394012  1
  O  O312  1  0.73872641  0.26927785  0.89196573  1
  O  O313  1  0.74561011  0.74457383  0.38639516  1
  O  O314  1  0.74842710  0.74065283  0.88207262  1
  O  O315  1  0.01300061  0.13495145  -0.00235161  1
  O  O316  1  0.00663681  0.11856162  0.50830059  1
  O  O317  1  -0.04700402  0.60491188  0.01715432  1
  O  O318  1  0.01065049  0.61587937  0.50871723  1
  O  O319  1  0.50616138  0.12517678  0.00625375  1
  O  O320  1  0.49282033  0.12231897  0.51169608  1
  O  O321  1  0.50757930  0.61673032  -0.00122935  1
  O  O322  1  0.51233610  0.61169098  0.49603085  1
  O  O323  1  0.50298536  0.37702683  0.49360645  1
  O  O324  1  0.49322929  0.37869381  0.99431927  1
  O  O325  1  0.50076898  0.87539770  0.49480156  1
  O  O326  1  0.49452500  0.87355587  0.99369194  1
  O  O327  1  1.01087219  0.39305786  0.49986947  1
  O  O328  1  0.99316493  0.38059013  0.99534102  1
  O  O329  1  0.99645380  0.88090262  0.49290452  1
  O  O330  1  1.00781085  0.88249110  0.97009558  1
  O  O331  1  0.49419735  0.48769631  0.38263097  1
  O  O332  1  0.49690571  0.49323206  0.88138669  1
  O  O333  1  0.48397118  1.00114679  0.37452457  1
  O  O334  1  0.49914397  0.98699700  0.87473928  1
  O  O335  1  1.00387957  0.50165819  0.38919154  1
  O  O336  1  0.99373145  0.49576075  0.87793173  1
  O  O337  1  0.99553659  0.99455633  0.38166017  1
  O  O338  1  0.98248160  1.00565555  0.87073338  1
  O  O339  1  0.00356526  0.00341145  0.12673100  1
  O  O340  1  0.00944436  0.00668168  0.62319167  1
  O  O341  1  0.01836947  0.49323574  0.13077336  1
  O  O342  1  0.00888073  0.50484923  0.61561501  1
  O  O343  1  0.49985894  0.01307790  0.12599819  1
  O  O344  1  0.50454152  0.00310384  0.61854971  1
  O  O345  1  0.51290497  0.50111158  0.11889810  1
  O  O346  1  0.49934609  0.49198728  0.61132537  1
  O  O347  1  0.24270407  0.38189200  0.25048327  1
  O  O348  1  0.25147342  0.38131399  0.74470050  1
  O  O349  1  0.23855582  0.88986159  0.24868502  1
  O  O350  1  0.23675545  0.87500544  0.74324270  1
  O  O351  1  0.74230033  0.37578986  0.24454261  1
  O  O352  1  0.74315398  0.38790893  0.74694030  1
  O  O353  1  0.74295366  0.88391970  0.25798356  1
  O  O354  1  0.73770251  0.87748087  0.74984755  1
  O  O355  1  0.25429636  0.11657871  0.25224345  1
  O  O356  1  0.25821345  0.13132638  0.76178980  1
  O  O357  1  0.26433940  0.61636216  0.24905609  1
  O  O358  1  0.25137262  0.61814979  0.75565408  1
  O  O359  1  0.75122308  0.11674457  0.26315648  1
  O  O360  1  0.74149727  0.11576005  0.73843856  1
  O  O361  1  0.74501416  0.62791777  0.26448307  1
  O  O362  1  0.75189353  0.61344225  0.75373926  1
  O  O363  1  0.36752199  0.11852813  0.36628979  1
  O  O364  1  0.36823941  0.12145935  0.86753279  1
  O  O365  1  0.37735488  0.60764548  0.36427799  1
  O  O366  1  0.36316050  0.62585593  0.86873217  1
  O  O367  1  0.87727115  0.11183159  0.37509960  1
  O  O368  1  0.85793726  0.17158961  0.85870047  1
  O  O369  1  0.86843873  0.62623020  0.36573980  1
  O  O370  1  0.86925087  0.61393945  0.86948819  1
  O  O371  1  0.12719092  0.37674905  0.13622838  1
  O  O372  1  0.13911823  0.38140422  0.62474556  1
  O  O373  1  0.11809101  0.89378340  0.12049679  1
  O  O374  1  0.12774376  0.87990706  0.63653960  1
  O  O375  1  0.62880891  0.38118312  0.13123331  1
  O  O376  1  0.63300094  0.38283437  0.63790528  1
  O  O377  1  0.63829683  0.87930819  0.13660614  1
  O  O378  1  0.62100703  0.88906247  0.63408645  1
  O  O379  1  0.12168282  0.25282170  0.25067262  1
  O  O380  1  0.11442047  0.25747209  0.74224840  1
  O  O381  1  0.13092002  0.75004452  0.26584411  1
  O  O382  1  0.12570672  0.76302091  0.75877210  1
  O  O383  1  0.61801145  0.26256312  0.24202231  1
  O  O384  1  0.61775315  0.25913731  0.74568658  1
  O  O385  1  0.61654652  0.75422553  0.25523053  1
  O  O386  1  0.61810179  0.75862475  0.74865389  1
  O  O387  1  0.37890276  0.24593575  0.24180996  1
  O  O388  1  0.37965335  0.24183919  0.74353202  1
  O  O389  1  0.37796853  0.74432492  0.24368542  1
  O  O390  1  0.39075116  0.75402160  0.75291374  1
  O  O391  1  0.88216067  0.24650215  0.23973068  1
  O  O392  1  0.90179191  0.26419372  0.73172760  1
  O  O393  1  0.87361328  0.74021743  0.24817776  1
  O  O394  1  0.86859643  0.74945384  0.73544086  1
  O  O395  1  0.38182409  0.49747182  0.49104592  1
  O  O396  1  0.37836060  0.49189355  1.00275228  1
  O  O397  1  0.37030728  1.00135010  0.48413730  1
  O  O398  1  0.37917965  0.98880320  0.99982453  1
  O  O399  1  0.89252799  0.50947675  0.49844240  1
  O  O400  1  0.85990929  0.48165455  0.98555762  1
  O  O401  1  0.88088359  0.99224360  0.49705654  1
  O  O402  1  0.79747036  0.96145735  1.01593399  1
  O  O403  1  0.12549577  0.01136234  0.01177391  1
  O  O404  1  0.12048087  0.00426534  0.50744620  1
  O  O405  1  0.12871920  0.50182078  0.02022628  1
  O  O406  1  0.12113077  0.51132859  0.50247606  1
  O  O407  1  0.62451786  0.01328946  0.00305851  1
  O  O408  1  0.62289395  -0.00701183  0.51150201  1
  O  O409  1  0.62345540  0.50646601  0.00668951  1
  O  O410  1  0.61818787  0.50747770  0.50166866  1
  O  O411  1  0.38288357  0.36457127  0.11537119  1
  O  O412  1  0.36407338  0.36741367  0.62310151  1
  O  O413  1  0.38034540  0.86114591  0.11806004  1
  O  O414  1  0.35936255  0.87321280  0.62804552  1
  O  O415  1  0.87025658  0.37075734  0.11931359  1
  O  O416  1  0.87062878  0.37447884  0.62177411  1
  O  O417  1  0.85925005  0.87049783  0.13558235  1
  O  O418  1  0.88699522  0.86758847  0.61278660  1
  O  O419  1  0.12929433  0.12987639  0.37924725  1
  O  O420  1  0.13182133  0.12055041  0.89010735  1
  O  O421  1  0.12415493  0.63783192  0.38536110  1
  O  O422  1  0.13730445  0.63401685  0.86987360  1
  O  O423  1  0.63295776  0.12343387  0.37496692  1
  O  O424  1  0.62759825  0.12762852  0.88154721  1
  O  O425  1  0.62999833  0.63203861  0.38398732  1
  O  O426  1  0.63408791  0.62374366  0.88453020  1
