# generated using pymatgen
data_V85Zn86O256
_symmetry_space_group_name_H-M   'P 1'
_cell_length_a   16.94087812
_cell_length_b   16.93297225
_cell_length_c   16.93365312
_cell_angle_alpha   90.06588501
_cell_angle_beta   90.00470499
_cell_angle_gamma   89.96364297
_symmetry_Int_Tables_number   1
_chemical_formula_structural   V85Zn86O256
_chemical_formula_sum   'V85 Zn86 O256'
_cell_volume   4857.57369247
_cell_formula_units_Z   1
loop_
 _symmetry_equiv_pos_site_id
 _symmetry_equiv_pos_as_xyz
  1  'x, y, z'
loop_
 _atom_site_type_symbol
 _atom_site_label
 _atom_site_symmetry_multiplicity
 _atom_site_fract_x
 _atom_site_fract_y
 _atom_site_fract_z
 _atom_site_occupancy
  V  V0  1  0.13011713  0.24912722  0.37729514  1
  V  V1  1  0.75030253  0.88067813  0.62108481  1
  V  V2  1  -0.00083910  0.37714845  0.87227075  1
  V  V3  1  0.62675295  0.11437341  0.50055834  1
  V  V4  1  -0.00487710  0.37076393  0.37593487  1
  V  V5  1  0.74800415  0.51280458  0.75790933  1
  V  V6  1  0.74866598  0.36937095  0.11723857  1
  V  V7  1  0.49975266  0.12108519  0.11794776  1
  V  V8  1  0.12844086  0.49978070  0.13883071  1
  V  V9  1  0.74944764  0.74686947  -0.01033313  1
  V  V10  1  0.38100950  0.88026474  -0.00027404  1
  V  V11  1  0.12289326  0.62488823  0.00434069  1
  V  V12  1  0.75207883  0.50305371  0.24651195  1
  V  V13  1  0.87313067  0.50342874  0.37137637  1
  V  V14  1  0.87979905  0.12084643  0.74887587  1
  V  V15  1  0.74579421  0.37361579  0.63738170  1
  V  V16  1  0.25269011  0.25219864  0.51994639  1
  V  V17  1  0.36680559  0.61892429  0.25017262  1
  V  V18  1  0.25250997  0.87711339  0.62795770  1
  V  V19  1  0.86515118  0.74781547  0.12818828  1
  V  V20  1  0.62380015  0.49559213  0.62907428  1
  V  V21  1  0.25087635  0.49050535  0.74081099  1
  V  V22  1  0.25200245  0.74691881  0.49884319  1
  V  V23  1  -0.00452063  0.12332991  0.12835962  1
  V  V24  1  0.75514450  0.75020249  0.50469713  1
  V  V25  1  0.12107714  0.74887716  0.87443402  1
  V  V26  1  0.62586083  0.75036245  0.37282051  1
  V  V27  1  0.36625859  0.38038336  -0.00463278  1
  V  V28  1  0.62598581  0.25295262  0.87453190  1
  V  V29  1  0.50063468  0.86856827  0.87066687  1
  V  V30  1  0.12198014  0.12817839  0.51121576  1
  V  V31  1  0.75223157  0.13098658  0.36433475  1
  V  V32  1  0.12519530  0.00177821  0.12392743  1
  V  V33  1  0.25220949  0.61346151  0.87613338  1
  V  V34  1  0.62664163  0.62297137  -0.00635779  1
  V  V35  1  0.87127048  0.24554873  0.11984672  1
  V  V36  1  0.50095932  0.38384497  0.88498626  1
  V  V37  1  0.62527323  0.62388867  0.49961376  1
  V  V38  1  0.87720213  0.24725700  0.62517487  1
  V  V39  1  0.49705019  0.61990738  0.11819934  1
  V  V40  1  0.86785153  0.87506152  0.00137141  1
  V  V41  1  -0.00234141  0.49944096  0.00300687  1
  V  V42  1  0.38179176  0.00387148  0.87746744  1
  V  V43  1  0.49957041  0.25877337  0.74615981  1
  V  V44  1  0.49907876  0.49849563  0.49994991  1
  V  V45  1  0.37347871  0.74936848  0.12538609  1
  V  V46  1  0.12704646  0.13028905  -0.00005388  1
  V  V47  1  0.49963561  0.37097067  0.37435521  1
  V  V48  1  0.24965206  0.36936811  0.13261352  1
  V  V49  1  0.37849418  0.87462157  0.50091361  1
  V  V50  1  0.74370366  0.00349425  0.74455948  1
  V  V51  1  -0.00556505  0.62411666  0.13985451  1
  V  V52  1  0.25071050  0.00189997  0.25135161  1
  V  V53  1  0.37748786  0.62773709  0.75692029  1
  V  V54  1  0.86824978  0.37521413  0.49852228  1
  V  V55  1  0.12292071  0.75622839  0.37169142  1
  V  V56  1  0.25343266  0.12932674  0.88000943  1
  V  V57  1  0.00402813  0.24909163  0.74925119  1
  V  V58  1  0.37505475  0.36894356  0.51311493  1
  V  V59  1  0.36236566  0.49548639  0.37422603  1
  V  V60  1  0.74069092  0.24957975  0.49692346  1
  V  V61  1  0.75571495  -0.00662638  0.24454857  1
  V  V62  1  0.88025731  0.87380325  0.48927589  1
  V  V63  1  0.62486576  -0.00614590  0.12158166  1
  V  V64  1  -0.00151770  0.87513477  0.87395089  1
  V  V65  1  0.24869593  0.87677351  0.12355566  1
  V  V66  1  0.12473762  0.87045504  0.74861333  1
  V  V67  1  0.75068687  0.62472068  0.37089002  1
  V  V68  1  0.12973978  0.25711859  0.87553136  1
  V  V69  1  0.50110496  0.63375073  0.63050449  1
  V  V70  1  0.37739041  0.12583908  0.24940857  1
  V  V71  1  0.49904531  0.74924911  0.24950623  1
  V  V72  1  0.24948267  0.74942824  0.00062377  1
  V  V73  1  0.50316443  0.24743216  0.24945125  1
  V  V74  1  0.61948949  0.49731800  0.12008531  1
  V  V75  1  0.38089874  0.00182459  0.37647435  1
  V  V76  1  0.37618905  0.12872786  0.74150655  1
  V  V77  1  -0.00180458  0.00258288  0.50124330  1
  V  V78  1  0.62048106  0.87320584  0.74357491  1
  V  V79  1  0.62249137  0.12341855  -0.00401779  1
  V  V80  1  0.62441494  0.37236773  0.25293164  1
  V  V81  1  -0.00540358  0.24502043  0.25125874  1
  V  V82  1  0.75076646  0.12840958  0.87808835  1
  V  V83  1  -0.00518131  0.76014055  0.25156822  1
  V  V84  1  0.88744395  0.63701564  0.75213246  1
  Zn  Zn85  1  0.11699008  0.50099663  0.63627340  1
  Zn  Zn86  1  0.11770702  0.62785418  0.50523035  1
  Zn  Zn87  1  0.11855718  0.00300362  0.63034280  1
  Zn  Zn88  1  0.50257824  0.87618859  0.37377031  1
  Zn  Zn89  1  0.24905460  0.62280915  0.37552206  1
  Zn  Zn90  1  0.50700015  0.12464340  0.62780028  1
  Zn  Zn91  1  0.12913529  0.37716784  0.25812914  1
  Zn  Zn92  1  -0.00632200  0.51359406  0.51017073  1
  Zn  Zn93  1  0.25208203  0.12689735  0.38005267  1
  Zn  Zn94  1  -0.00200657  0.00018627  -0.00091690  1
  Zn  Zn95  1  0.87513922  0.00052377  0.87540986  1
  Zn  Zn96  1  0.50504869  -0.00330635  0.50817190  1
  Zn  Zn97  1  0.62630350  0.87291096  0.24307353  1
  Zn  Zn98  1  0.99283583  0.66519376  0.62310274  1
  Zn  Zn99  1  0.11829434  0.88255486  0.25463579  1
  Zn  Zn100  1  0.86957793  0.50370340  0.87883049  1
  Zn  Zn101  1  0.62264828  0.74495225  0.86700456  1
  Zn  Zn102  1  0.87145899  0.37183116  -0.00173346  1
  Zn  Zn103  1  0.24977301  0.00124632  0.75198152  1
  Zn  Zn104  1  0.36999801  0.24669060  0.11788906  1
  Zn  Zn105  1  0.37918306  0.75241784  0.63175528  1
  Zn  Zn106  1  0.88422771  0.00438467  0.36548460  1
  Zn  Zn107  1  0.18475944  0.18908854  0.19090029  1
  Zn  Zn108  1  0.18743074  0.18910297  0.69343443  1
  Zn  Zn109  1  0.18298954  0.68909915  0.19094849  1
  Zn  Zn110  1  0.18375313  0.68312896  0.68554856  1
  Zn  Zn111  1  0.68437018  0.18635153  0.18468661  1
  Zn  Zn112  1  0.68456288  0.18885036  0.68843697  1
  Zn  Zn113  1  0.68642870  0.68507938  0.18304617  1
  Zn  Zn114  1  0.68801313  0.68954493  0.68563486  1
  Zn  Zn115  1  0.31497081  0.31235645  0.31164805  1
  Zn  Zn116  1  0.31696938  0.31273027  0.81514165  1
  Zn  Zn117  1  0.31201644  0.81540048  0.31338384  1
  Zn  Zn118  1  0.31102022  0.80855756  0.81423404  1
  Zn  Zn119  1  0.81128714  0.30997049  0.30658095  1
  Zn  Zn120  1  0.81446068  0.31268214  0.81453068  1
  Zn  Zn121  1  0.81207674  0.81445846  0.31158786  1
  Zn  Zn122  1  0.80983819  0.81381446  0.81125249  1
  Zn  Zn123  1  0.17191688  0.42833252  0.47246380  1
  Zn  Zn124  1  0.18473272  0.43709856  0.94434253  1
  Zn  Zn125  1  0.18866663  0.93927514  0.43872977  1
  Zn  Zn126  1  0.19036090  0.94094534  0.93664425  1
  Zn  Zn127  1  0.68605646  0.43577803  0.43734252  1
  Zn  Zn128  1  0.68258093  0.43657467  0.93766700  1
  Zn  Zn129  1  0.69250354  0.93756432  0.42844198  1
  Zn  Zn130  1  0.68793494  0.93932445  0.93374151  1
  Zn  Zn131  1  0.31229641  0.06393754  0.06049335  1
  Zn  Zn132  1  0.31285254  0.06194057  0.56316451  1
  Zn  Zn133  1  0.31034736  0.55544039  0.06219139  1
  Zn  Zn134  1  0.31725430  0.56361547  0.56382142  1
  Zn  Zn135  1  0.81083530  0.06261085  0.06085844  1
  Zn  Zn136  1  0.81489801  0.06337331  0.56232492  1
  Zn  Zn137  1  0.81155345  0.56396959  0.06339397  1
  Zn  Zn138  1  0.81623528  0.56533850  0.56681702  1
  Zn  Zn139  1  0.43306107  0.43710719  0.18536013  1
  Zn  Zn140  1  0.43496008  0.44375617  0.69531194  1
  Zn  Zn141  1  0.43991244  0.93804565  0.18668789  1
  Zn  Zn142  1  0.44043651  0.94454842  0.68753166  1
  Zn  Zn143  1  0.93633900  0.43328462  0.18948475  1
  Zn  Zn144  1  0.92835701  0.43877052  0.69336439  1
  Zn  Zn145  1  0.93346028  0.93642616  0.18111793  1
  Zn  Zn146  1  0.95726181  0.88065019  0.66234961  1
  Zn  Zn147  1  0.06367490  0.06458779  0.31750145  1
  Zn  Zn148  1  0.06250292  0.06012028  0.81285584  1
  Zn  Zn149  1  0.07914265  0.54834574  0.34261548  1
  Zn  Zn150  1  0.06502790  0.56166380  0.81106658  1
  Zn  Zn151  1  0.56954766  0.06415323  0.31416753  1
  Zn  Zn152  1  0.56004920  0.05995230  0.80986366  1
  Zn  Zn153  1  0.55850074  0.56021878  0.30967742  1
  Zn  Zn154  1  0.56240156  0.56115521  0.80965118  1
  Zn  Zn155  1  0.43923928  0.18911807  0.43827648  1
  Zn  Zn156  1  0.43783015  0.19492549  0.93892543  1
  Zn  Zn157  1  0.43708245  0.68551422  0.43762108  1
  Zn  Zn158  1  0.43690794  0.68755827  0.93765943  1
  Zn  Zn159  1  0.93530001  0.18348527  0.44130261  1
  Zn  Zn160  1  0.93971526  0.18787958  0.93894048  1
  Zn  Zn161  1  0.93740359  0.68771098  0.43070030  1
  Zn  Zn162  1  0.93614251  0.68369097  0.93602088  1
  Zn  Zn163  1  0.06337822  0.31286080  0.06249562  1
  Zn  Zn164  1  0.04647668  0.35177338  0.58527990  1
  Zn  Zn165  1  0.05790920  0.81307757  0.06356683  1
  Zn  Zn166  1  0.06734207  0.81787953  0.55203172  1
  Zn  Zn167  1  0.56041472  0.30704551  0.05896546  1
  Zn  Zn168  1  0.56264507  0.31049854  0.56354041  1
  Zn  Zn169  1  0.56073898  0.81006032  0.05833326  1
  Zn  Zn170  1  0.56710125  0.81485088  0.56125972  1
  O  O171  1  0.12073977  0.12168634  0.11764538  1
  O  O172  1  0.13067173  0.12299582  0.61576206  1
  O  O173  1  0.11861975  0.61736924  0.12329072  1
  O  O174  1  0.11251148  0.62051538  0.62338732  1
  O  O175  1  0.61870915  0.11927049  0.11530904  1
  O  O176  1  0.63046645  0.12961077  0.60504323  1
  O  O177  1  0.61581463  0.61626550  0.11819320  1
  O  O178  1  0.62059353  0.61608306  0.62037678  1
  O  O179  1  0.38298048  0.38018389  0.37885368  1
  O  O180  1  0.38480157  0.37390429  0.88806985  1
  O  O181  1  0.37786079  0.88320436  0.38286397  1
  O  O182  1  0.37868642  0.88149050  0.88022447  1
  O  O183  1  0.87467948  0.37908449  0.37713647  1
  O  O184  1  0.88249932  0.37911970  0.88061366  1
  O  O185  1  0.86290778  0.88593917  0.38561921  1
  O  O186  1  0.88319632  0.87394168  0.88014938  1
  O  O187  1  0.26116607  0.00251907  0.36802559  1
  O  O188  1  0.26166742  0.00943083  0.87461442  1
  O  O189  1  0.26177198  0.49958952  0.38308633  1
  O  O190  1  0.24470128  0.51104063  0.87701992  1
  O  O191  1  0.74994869  0.01045539  0.35798198  1
  O  O192  1  0.75369244  0.00834458  0.86261288  1
  O  O193  1  0.75439723  0.50182586  0.36671397  1
  O  O194  1  0.74589874  0.49438939  0.86046266  1
  O  O195  1  0.23815205  0.48765563  0.12320435  1
  O  O196  1  0.25382799  0.50576531  0.63940393  1
  O  O197  1  0.24494733  0.99802130  0.13141505  1
  O  O198  1  0.24930609  0.98697628  0.62606070  1
  O  O199  1  0.74287114  0.49304555  0.13142690  1
  O  O200  1  0.74309428  0.49413390  0.63278616  1
  O  O201  1  0.74049195  1.01168371  0.13808394  1
  O  O202  1  0.75227597  0.99662926  0.63530034  1
  O  O203  1  0.00081848  0.36442335  0.26035826  1
  O  O204  1  -0.00707492  0.36661185  0.76567466  1
  O  O205  1  0.00009406  0.86512394  0.24266618  1
  O  O206  1  0.01033589  0.87758251  0.76623043  1
  O  O207  1  0.50458433  0.36858188  0.25329151  1
  O  O208  1  0.49093765  0.36368788  0.76170245  1
  O  O209  1  0.50055471  0.86053119  0.24990458  1
  O  O210  1  0.50876179  0.87867823  0.75623780  1
  O  O211  1  0.49909286  0.13194658  0.24581429  1
  O  O212  1  0.49224191  0.13514386  0.75233377  1
  O  O213  1  0.49305254  0.63345452  0.24084788  1
  O  O214  1  0.49207059  0.62119632  0.74279385  1
  O  O215  1  1.00650708  0.13019119  0.23748859  1
  O  O216  1  0.99151231  0.13526528  0.75599458  1
  O  O217  1  1.00283294  0.63559144  0.23987186  1
  O  O218  1  0.99098319  0.62464969  0.74868924  1
  O  O219  1  0.38134057  0.26929968  0.00518007  1
  O  O220  1  0.36269592  0.25300746  0.49863085  1
  O  O221  1  0.36826414  0.75671522  0.00701295  1
  O  O222  1  0.37012419  0.75822568  0.50097547  1
  O  O223  1  0.88060723  0.25263719  0.01516253  1
  O  O224  1  0.86396494  0.25274836  0.50821856  1
  O  O225  1  0.86660282  0.75271244  0.00407620  1
  O  O226  1  0.86327665  0.75963200  0.48688818  1
  O  O227  1  0.13989699  0.24350446  0.49462661  1
  O  O228  1  0.11955306  0.23796893  0.99186687  1
  O  O229  1  0.13522073  0.75005207  0.48967705  1
  O  O230  1  0.13081731  0.74483220  0.99816528  1
  O  O231  1  0.63719207  0.24621658  0.49953005  1
  O  O232  1  0.62234402  0.23554905  0.98991584  1
  O  O233  1  0.63128550  0.74380669  0.48984663  1
  O  O234  1  0.63341800  0.74129675  1.00180961  1
  O  O235  1  0.49971351  0.23763271  0.13182791  1
  O  O236  1  0.50582795  0.24737380  0.64167379  1
  O  O237  1  0.49333453  0.74254648  0.13085513  1
  O  O238  1  0.50389301  0.73661956  0.61993257  1
  O  O239  1  0.99583561  0.24370939  0.13241526  1
  O  O240  1  0.98994579  0.26444873  0.63670645  1
  O  O241  1  0.99095491  0.74243529  0.13008773  1
  O  O242  1  1.00052474  0.77869308  0.63094958  1
  O  O243  1  0.00221917  0.25026625  0.36897440  1
  O  O244  1  0.00622950  0.25670081  0.86987217  1
  O  O245  1  0.00712410  0.74962608  0.36170969  1
  O  O246  1  0.01504044  0.75560751  0.88400187  1
  O  O247  1  0.49616183  0.26284973  0.36619903  1
  O  O248  1  0.50875550  0.25749464  0.86813965  1
  O  O249  1  0.50774627  0.74734546  0.36622326  1
  O  O250  1  0.50047794  0.76420613  0.87837088  1
  O  O251  1  0.24690930  0.13696212  0.50087842  1
  O  O252  1  0.24391088  0.12552553  0.98905355  1
  O  O253  1  0.25300525  0.63817140  0.50019454  1
  O  O254  1  0.24424624  0.62832925  0.99663771  1
  O  O255  1  0.74327327  0.12988961  0.49221841  1
  O  O256  1  0.74481772  0.12277998  0.98399315  1
  O  O257  1  0.74566830  0.63172553  0.49482649  1
  O  O258  1  0.73852505  0.63219129  1.00421353  1
  O  O259  1  0.25935727  0.37688687  0.00968908  1
  O  O260  1  0.26302070  0.35623496  0.48907077  1
  O  O261  1  0.25899436  0.87028426  0.00413231  1
  O  O262  1  0.26102041  0.86928739  0.50601481  1
  O  O263  1  0.74895941  0.37852566  0.01373597  1
  O  O264  1  0.75106266  0.36771039  0.50608467  1
  O  O265  1  0.76003349  0.86684675  -0.00627831  1
  O  O266  1  0.75144416  0.86990902  0.50256317  1
  O  O267  1  0.11739216  0.49783056  0.24266629  1
  O  O268  1  0.14431701  0.50198206  0.75297867  1
  O  O269  1  0.13430666  1.00177554  0.24583847  1
  O  O270  1  0.12899364  0.98740776  0.75101900  1
  O  O271  1  0.62969318  0.49241409  0.24006651  1
  O  O272  1  0.63633221  0.50311768  0.74108630  1
  O  O273  1  0.63333133  0.99807329  0.24091605  1
  O  O274  1  0.63415652  0.98938444  0.75400795  1
  O  O275  1  0.37097408  0.00468827  0.25649185  1
  O  O276  1  0.37247885  0.01106638  0.76037463  1
  O  O277  1  0.38051063  0.50796410  0.26018468  1
  O  O278  1  0.36399197  0.51514631  0.75202506  1
  O  O279  1  0.86063813  -0.00095604  0.24561044  1
  O  O280  1  0.86749719  0.01722074  0.75024179  1
  O  O281  1  0.85943769  0.49227924  0.25461436  1
  O  O282  1  0.86006598  0.50647436  0.75435262  1
  O  O283  1  0.11266379  0.36386697  0.37871485  1
  O  O284  1  0.11805141  0.36324297  0.88395502  1
  O  O285  1  0.13453491  0.86319778  0.37140544  1
  O  O286  1  0.12124975  0.86889515  0.87230916  1
  O  O287  1  0.61735552  0.38097135  0.36060829  1
  O  O288  1  0.61284752  0.36485409  0.88245081  1
  O  O289  1  0.62320314  0.86136812  0.37130217  1
  O  O290  1  0.61528513  0.87525919  0.86802856  1
  O  O291  1  0.38258033  0.12515837  0.12959298  1
  O  O292  1  0.37151107  0.12596483  0.63953556  1
  O  O293  1  0.37982099  0.62624903  0.13019653  1
  O  O294  1  0.38631975  0.62807927  0.63237478  1
  O  O295  1  0.88470123  0.13034363  0.12084023  1
  O  O296  1  0.86973910  0.13977050  0.63209248  1
  O  O297  1  0.88317820  0.63414574  0.12213339  1
  O  O298  1  0.87896905  0.62067682  0.64388924  1
  O  O299  1  0.24723186  0.26415303  0.12731595  1
  O  O300  1  0.24856530  0.25351771  0.61836695  1
  O  O301  1  0.25438086  0.75566154  0.12103377  1
  O  O302  1  0.25077842  0.76074647  0.61628670  1
  O  O303  1  0.75840651  0.25669543  0.13227936  1
  O  O304  1  0.75289106  0.25777474  0.61981030  1
  O  O305  1  0.76042189  0.74537004  0.11774716  1
  O  O306  1  0.74471943  0.75703470  0.60956154  1
  O  O307  1  0.23803711  0.24745015  0.36857565  1
  O  O308  1  0.24043332  0.24389272  0.87034035  1
  O  O309  1  0.24824385  0.75019595  0.38344541  1
  O  O310  1  0.23986235  0.74351079  0.88466590  1
  O  O311  1  0.75338441  0.23984051  0.37999764  1
  O  O312  1  0.73608098  0.24416876  0.86574282  1
  O  O313  1  0.74192333  0.74440269  0.37738500  1
  O  O314  1  0.74506143  0.75118864  0.88631816  1
  O  O315  1  0.00804085  0.12340876  0.01044222  1
  O  O316  1  0.00767185  0.11632041  0.50360175  1
  O  O317  1  0.00555607  0.61775783  0.00908602  1
  O  O318  1  -0.00579011  0.63052540  0.50885047  1
  O  O319  1  0.50690953  0.12628440  0.00703003  1
  O  O320  1  0.51857509  0.12930364  0.49578095  1
  O  O321  1  0.50460132  0.63043698  0.01316915  1
  O  O322  1  0.50532118  0.61764879  0.50654824  1
  O  O323  1  0.49570832  0.37520721  0.49114658  1
  O  O324  1  0.49454727  0.37437145  0.99054256  1
  O  O325  1  0.48973202  0.87445464  0.49765542  1
  O  O326  1  0.48674982  0.87228347  0.99316280  1
  O  O327  1  0.98457021  0.36653325  0.48326566  1
  O  O328  1  0.99881238  0.38283028  0.99376587  1
  O  O329  1  0.99033379  0.88579140  0.49182560  1
  O  O330  1  0.99111076  0.87516290  0.98987327  1
  O  O331  1  0.49499529  0.48918071  0.37986261  1
  O  O332  1  0.50599459  0.48162953  0.87006308  1
  O  O333  1  0.49115965  0.99863122  0.37568230  1
  O  O334  1  0.48748729  0.99050428  0.87279109  1
  O  O335  1  0.98137833  0.48715667  0.36337691  1
  O  O336  1  1.00353097  0.49223129  0.88501446  1
  O  O337  1  0.99880036  1.00552117  0.38948175  1
  O  O338  1  0.99658273  0.99107588  0.87937953  1
  O  O339  1  0.00675755  0.00721383  0.12322172  1
  O  O340  1  0.00293373  -0.01456749  0.60713950  1
  O  O341  1  0.00266763  0.50520612  0.12291294  1
  O  O342  1  0.00335892  0.46802360  0.61666579  1
  O  O343  1  0.50854253  0.01341117  0.13161471  1
  O  O344  1  0.49611596  0.01194503  0.61975837  1
  O  O345  1  0.50824102  0.50782256  0.13218975  1
  O  O346  1  0.50830816  0.50604534  0.62212371  1
  O  O347  1  0.24841218  0.37465927  0.23779773  1
  O  O348  1  0.26168340  0.39209654  0.75511658  1
  O  O349  1  0.25281775  0.88885167  0.24221539  1
  O  O350  1  0.24596386  0.87597310  0.74379246  1
  O  O351  1  0.73942204  0.37959545  0.24165277  1
  O  O352  1  0.75347186  0.38233753  0.73983898  1
  O  O353  1  0.74573124  0.88950046  0.24915517  1
  O  O354  1  0.74771285  0.88453481  0.74075140  1
  O  O355  1  0.25629994  0.11511125  0.24942838  1
  O  O356  1  0.25766627  0.12577712  0.76249099  1
  O  O357  1  0.26407318  0.62939230  0.24914140  1
  O  O358  1  0.25563124  0.62125652  0.76060789  1
  O  O359  1  0.74373623  0.12108759  0.26047997  1
  O  O360  1  0.75222325  0.12111941  0.75714835  1
  O  O361  1  0.74095639  0.61185601  0.25472299  1
  O  O362  1  0.75219093  0.61495480  0.74805287  1
  O  O363  1  0.37479537  0.11815106  0.36894189  1
  O  O364  1  0.37051570  0.12087338  0.87462126  1
  O  O365  1  0.37534316  0.61502162  0.36700119  1
  O  O366  1  0.36480734  0.62928228  0.87131654  1
  O  O367  1  0.85690921  0.12216569  0.37984443  1
  O  O368  1  0.86696687  0.12886410  0.86834787  1
  O  O369  1  0.86539585  0.61254890  0.37437741  1
  O  O370  1  0.87859227  0.61927753  0.86155573  1
  O  O371  1  0.13364850  0.38056376  0.12755876  1
  O  O372  1  0.14431032  0.40129916  0.58171968  1
  O  O373  1  0.13100588  0.88518327  0.12348545  1
  O  O374  1  0.13624861  0.87751969  0.63409885  1
  O  O375  1  0.62724804  0.37893558  0.13050793  1
  O  O376  1  0.63086290  0.38718636  0.61935968  1
  O  O377  1  0.61712459  0.89003715  0.12066901  1
  O  O378  1  0.63711685  0.87501083  0.62957862  1
  O  O379  1  0.11304426  0.25109577  0.25947113  1
  O  O380  1  0.11292110  0.24659522  0.75969076  1
  O  O381  1  0.11505702  0.75875207  0.25213193  1
  O  O382  1  0.13454403  0.76180611  0.76146266  1
  O  O383  1  0.61250427  0.25803339  0.24489703  1
  O  O384  1  0.61003207  0.24546089  0.75945911  1
  O  O385  1  0.61771316  0.74944545  0.25328558  1
  O  O386  1  0.63370644  0.76656555  0.75149194  1
  O  O387  1  0.38622103  0.24406019  0.24567060  1
  O  O388  1  0.38970311  0.24190781  0.75944441  1
  O  O389  1  0.38127299  0.74397688  0.24536028  1
  O  O390  1  0.36940451  0.73506615  0.74846931  1
  O  O391  1  0.88749032  0.25154763  0.23982800  1
  O  O392  1  0.88087424  0.24281167  0.74453973  1
  O  O393  1  0.87987977  0.75510347  0.24046346  1
  O  O394  1  0.87050102  0.73587560  0.75460863  1
  O  O395  1  0.38166648  0.49175069  0.49367822  1
  O  O396  1  0.37983717  0.48048771  1.01006223  1
  O  O397  1  0.37515452  0.99336882  0.49113975  1
  O  O398  1  0.37068338  0.99067237  0.99256219  1
  O  O399  1  0.87190815  0.49308526  0.48982258  1
  O  O400  1  0.88639642  0.49926194  1.00100969  1
  O  O401  1  0.88529856  0.99801290  0.49763910  1
  O  O402  1  0.87442507  0.98929920  0.99826894  1
  O  O403  1  0.12526894  0.01252801  0.00468463  1
  O  O404  1  0.11836947  0.00965614  0.50031932  1
  O  O405  1  0.11381646  0.50393072  0.01339043  1
  O  O406  1  0.10432107  0.51926890  0.45841664  1
  O  O407  1  0.63236807  0.01210466  0.00662413  1
  O  O408  1  0.62666008  0.01102414  0.49258211  1
  O  O409  1  0.62842967  0.50657551  0.01259619  1
  O  O410  1  0.62008321  0.50542043  0.50594303  1
  O  O411  1  0.36225140  0.37246284  0.12176642  1
  O  O412  1  0.38537573  0.37981951  0.61154936  1
  O  O413  1  0.37075945  0.87204384  0.11746116  1
  O  O414  1  0.37120150  0.87262164  0.61900002  1
  O  O415  1  0.86479284  0.36650161  0.12480324  1
  O  O416  1  0.86220938  0.36533401  0.62030639  1
  O  O417  1  0.87972736  0.86226376  0.11077741  1
  O  O418  1  0.85742297  0.87858273  0.60602700  1
  O  O419  1  0.12716946  0.13476338  0.38749531  1
  O  O420  1  0.13245672  0.13130489  0.88142085  1
  O  O421  1  0.13387415  0.64626178  0.36679076  1
  O  O422  1  0.13035890  0.63223304  0.88251883  1
  O  O423  1  0.64029117  0.12546307  0.38555803  1
  O  O424  1  0.62925952  0.12824783  0.87912090  1
  O  O425  1  0.62821082  0.63200345  0.37773759  1
  O  O426  1  0.61369541  0.62629212  0.88956630  1
