# generated using pymatgen
data_V85Zn86O256
_symmetry_space_group_name_H-M   'P 1'
_cell_length_a   16.92293212
_cell_length_b   16.92212115
_cell_length_c   16.92927572
_cell_angle_alpha   89.99501373
_cell_angle_beta   89.95913006
_cell_angle_gamma   89.94517893
_symmetry_Int_Tables_number   1
_chemical_formula_structural   V85Zn86O256
_chemical_formula_sum   'V85 Zn86 O256'
_cell_volume   4848.06551149
_cell_formula_units_Z   1
loop_
 _symmetry_equiv_pos_site_id
 _symmetry_equiv_pos_as_xyz
  1  'x, y, z'
loop_
 _atom_site_type_symbol
 _atom_site_label
 _atom_site_symmetry_multiplicity
 _atom_site_fract_x
 _atom_site_fract_y
 _atom_site_fract_z
 _atom_site_occupancy
  V  V0  1  0.50226193  0.75074210  0.25120594  1
  V  V1  1  0.05647652  0.42488544  0.31706022  1
  V  V2  1  0.63095245  -0.00728575  0.12369971  1
  V  V3  1  0.37348065  0.74896806  0.12395189  1
  V  V4  1  0.25008582  0.50004586  0.75035711  1
  V  V5  1  0.50090916  -0.00181441  0.50034809  1
  V  V6  1  0.00084071  0.87668530  0.86227992  1
  V  V7  1  0.37554344  -0.00078657  0.87580573  1
  V  V8  1  0.75310058  0.74115586  0.49711531  1
  V  V9  1  0.50399626  0.62273818  0.12443079  1
  V  V10  1  0.37628804  0.62579952  0.74947862  1
  V  V11  1  -0.00835494  0.75200723  0.24435094  1
  V  V12  1  0.87056336  0.86574835  0.00951020  1
  V  V13  1  0.75829041  0.37383378  0.62243973  1
  V  V14  1  0.75744089  0.24626222  0.50119021  1
  V  V15  1  0.24864872  0.00046584  0.25066661  1
  V  V16  1  0.74243543  0.74505441  0.00429988  1
  V  V17  1  0.49949967  0.50386704  0.49904252  1
  V  V18  1  0.75073369  0.00074460  0.74986418  1
  V  V19  1  0.62547760  0.37661007  0.74473347  1
  V  V20  1  0.37503103  0.12976850  0.74266077  1
  V  V21  1  0.63313587  0.24654251  0.37420283  1
  V  V22  1  0.63197046  0.37679569  0.24318944  1
  V  V23  1  0.11963889  0.36853944  0.75095910  1
  V  V24  1  0.50281191  0.24965111  0.24944224  1
  V  V25  1  0.12251639  0.12725620  -0.00092801  1
  V  V26  1  0.26040139  0.24677000  0.50211214  1
  V  V27  1  -0.00435837  -0.00002885  -0.00119296  1
  V  V28  1  0.12344555  0.50582154  0.62808425  1
  V  V29  1  0.63842123  0.50046719  0.12164315  1
  V  V30  1  0.62960067  0.50230184  0.62572332  1
  V  V31  1  0.37233926  0.75334454  0.62710390  1
  V  V32  1  0.76004089  0.61777104  0.85616535  1
  V  V33  1  0.11311486  0.25250326  0.87244897  1
  V  V34  1  0.24731576  0.37878746  0.14506195  1
  V  V35  1  0.87791284  0.73441636  0.63274348  1
  V  V36  1  0.75111406  0.12995577  0.87655837  1
  V  V37  1  0.50100162  0.12333814  0.12344869  1
  V  V38  1  -0.00130775  0.87546353  0.37553945  1
  V  V39  1  0.87632448  0.14223592  0.74690464  1
  V  V40  1  0.87441385  0.00045088  0.87414595  1
  V  V41  1  0.75191319  0.87250214  0.62753995  1
  V  V42  1  0.00086967  0.00094905  0.50383188  1
  V  V43  1  0.85637867  0.25334576  0.12559880  1
  V  V44  1  0.85604493  0.37710255  0.00382173  1
  V  V45  1  -0.00480185  0.13045084  0.12577670  1
  V  V46  1  0.36218729  0.62027194  0.25336114  1
  V  V47  1  0.37602652  0.49966885  0.87638997  1
  V  V48  1  0.25049644  0.25579775  0.00057834  1
  V  V49  1  0.62750424  0.12923223  -0.00117097  1
  V  V50  1  0.37174657  0.87464662  0.50241807  1
  V  V51  1  0.87082862  0.62390925  0.25978822  1
  V  V52  1  0.12192381  0.00203790  0.12514130  1
  V  V53  1  0.87869747  0.37599180  0.48403715  1
  V  V54  1  0.00963760  0.48733347  0.00288562  1
  V  V55  1  -0.00168314  0.62763220  0.11577870  1
  V  V56  1  0.00297590  0.24989357  0.25687721  1
  V  V57  1  0.25793315  0.36930212  0.62756772  1
  V  V58  1  0.63049661  0.25081741  0.87215586  1
  V  V59  1  -0.00166435  0.13996314  0.62902655  1
  V  V60  1  0.24964392  0.12515929  0.87496192  1
  V  V61  1  0.50090939  0.37809534  0.37300586  1
  V  V62  1  0.49997059  0.37245401  0.87568575  1
  V  V63  1  0.63148936  0.74486300  0.37366477  1
  V  V64  1  0.12413141  0.75142771  0.87889456  1
  V  V65  1  0.24647069  0.62397814  0.88682303  1
  V  V66  1  0.24871350  0.74974203  0.50387245  1
  V  V67  1  0.63094916  0.12211591  0.49785584  1
  V  V68  1  0.87464126  0.87333367  0.50307710  1
  V  V69  1  0.12289736  0.62564293  0.50161935  1
  V  V70  1  -0.00415018  0.49827901  0.50184514  1
  V  V71  1  0.36399321  0.50124565  0.37395336  1
  V  V72  1  0.75086489  0.50583314  0.26498054  1
  V  V73  1  0.12669697  0.12675797  0.50169585  1
  V  V74  1  0.12580933  -0.01164368  0.62960181  1
  V  V75  1  0.00194613  0.73074781  0.74755980  1
  V  V76  1  0.13022375  0.75044948  0.37471309  1
  V  V77  1  0.75018362  -0.00133972  0.25129934  1
  V  V78  1  0.86836980  0.00852773  0.37845503  1
  V  V79  1  0.50244635  0.49976802  0.00013551  1
  V  V80  1  0.24595055  -0.01307292  0.74855030  1
  V  V81  1  0.62635603  0.86888682  0.75509927  1
  V  V82  1  0.50187837  0.86760807  0.87633518  1
  V  V83  1  0.37572743  0.12381134  0.25092882  1
  V  V84  1  0.24681732  0.87423663  0.12343138  1
  Zn  Zn85  1  0.62417538  0.00073877  0.62518300  1
  Zn  Zn86  1  0.50123571  -0.00154685  -0.00184762  1
  Zn  Zn87  1  0.49663138  0.13428392  0.61784077  1
  Zn  Zn88  1  0.50189627  0.62702706  0.62430546  1
  Zn  Zn89  1  0.37547172  0.25203871  0.12477541  1
  Zn  Zn90  1  0.12660050  0.25247986  0.37317877  1
  Zn  Zn91  1  0.24863582  0.12424639  0.37482257  1
  Zn  Zn92  1  0.12889406  0.50088338  0.13553233  1
  Zn  Zn93  1  0.62965375  0.62255262  0.49558483  1
  Zn  Zn94  1  0.62511342  0.62891118  -0.01828496  1
  Zn  Zn95  1  0.12135056  0.87560177  0.24872048  1
  Zn  Zn96  1  -0.04687904  0.41921672  0.84324479  1
  Zn  Zn97  1  0.50358023  0.74773381  0.75163919  1
  Zn  Zn98  1  0.50137888  0.87310095  0.37503717  1
  Zn  Zn99  1  0.37500559  0.37390922  0.00365546  1
  Zn  Zn100  1  0.63327984  0.87068487  0.24618841  1
  Zn  Zn101  1  0.37566694  -0.00369742  0.37431627  1
  Zn  Zn102  1  0.38229461  0.36929934  0.50780096  1
  Zn  Zn103  1  0.49481086  0.25241650  0.73932334  1
  Zn  Zn104  1  0.24070044  0.74464914  0.00559529  1
  Zn  Zn105  1  0.37368856  0.87435653  -0.00041882  1
  Zn  Zn106  1  0.86832780  0.12895821  0.25631686  1
  Zn  Zn107  1  0.18640425  0.19119787  0.18679948  1
  Zn  Zn108  1  0.18882540  0.18395825  0.68639387  1
  Zn  Zn109  1  0.18004102  0.68777189  0.18736518  1
  Zn  Zn110  1  0.18815521  0.68998394  0.69170608  1
  Zn  Zn111  1  0.68685543  0.17697222  0.19353198  1
  Zn  Zn112  1  0.68505548  0.19002477  0.68491990  1
  Zn  Zn113  1  0.69263434  0.69048016  0.18013587  1
  Zn  Zn114  1  0.68840769  0.68538401  0.68910043  1
  Zn  Zn115  1  0.31630694  0.30731593  0.31894470  1
  Zn  Zn116  1  0.30880704  0.31159889  0.81522215  1
  Zn  Zn117  1  0.31292073  0.81303644  0.31240617  1
  Zn  Zn118  1  0.31243369  0.81045898  0.81565608  1
  Zn  Zn119  1  0.81200224  0.31470957  0.30848635  1
  Zn  Zn120  1  0.82086339  0.33770634  0.80201581  1
  Zn  Zn121  1  0.81294707  0.81604832  0.31056273  1
  Zn  Zn122  1  0.81439962  0.80400097  0.81953759  1
  Zn  Zn123  1  0.19171815  0.43686940  0.44694443  1
  Zn  Zn124  1  0.18366750  0.43637995  0.93862338  1
  Zn  Zn125  1  0.18765156  0.93605165  0.43984286  1
  Zn  Zn126  1  0.18466413  0.93594102  0.93670960  1
  Zn  Zn127  1  0.68579744  0.43486636  0.43862994  1
  Zn  Zn128  1  0.68819154  0.44413370  0.93161002  1
  Zn  Zn129  1  0.68655790  0.92955169  0.43561949  1
  Zn  Zn130  1  0.68902262  0.93668681  0.93812177  1
  Zn  Zn131  1  0.31195260  0.06429750  0.06228368  1
  Zn  Zn132  1  0.30935173  0.05632401  0.56490462  1
  Zn  Zn133  1  0.31343214  0.55644470  0.06661439  1
  Zn  Zn134  1  0.31098625  0.56413932  0.56102705  1
  Zn  Zn135  1  0.81131942  0.06345058  0.06195369  1
  Zn  Zn136  1  0.81406898  0.06457752  0.56538031  1
  Zn  Zn137  1  0.81961809  0.56740834  0.06047145  1
  Zn  Zn138  1  0.81341397  0.55928053  0.56286444  1
  Zn  Zn139  1  0.43622490  0.43765709  0.18653316  1
  Zn  Zn140  1  0.44095484  0.43946810  0.68800677  1
  Zn  Zn141  1  0.43816675  0.93668516  0.18554640  1
  Zn  Zn142  1  0.43774692  0.93890524  0.68655882  1
  Zn  Zn143  1  0.92702245  0.44311963  0.17930665  1
  Zn  Zn144  1  0.93577392  0.43770005  0.67627753  1
  Zn  Zn145  1  0.93368687  0.94081349  0.18914614  1
  Zn  Zn146  1  0.93544904  0.94237586  0.68696323  1
  Zn  Zn147  1  0.05975234  0.06492033  0.31374072  1
  Zn  Zn148  1  0.06105743  0.06598884  0.80984953  1
  Zn  Zn149  1  0.06208164  0.58424422  0.31418368  1
  Zn  Zn150  1  0.06648655  0.56236881  0.81751504  1
  Zn  Zn151  1  0.56469214  0.05951355  0.31515717  1
  Zn  Zn152  1  0.56083139  0.05836235  0.81014430  1
  Zn  Zn153  1  0.56192998  0.56485029  0.31083941  1
  Zn  Zn154  1  0.56979522  0.56454899  0.81247829  1
  Zn  Zn155  1  0.44155458  0.18489194  0.43420613  1
  Zn  Zn156  1  0.43799856  0.18800849  0.93555136  1
  Zn  Zn157  1  0.43681502  0.68657724  0.43481314  1
  Zn  Zn158  1  0.43568171  0.68694770  0.93935708  1
  Zn  Zn159  1  0.94063848  0.18914086  0.44112810  1
  Zn  Zn160  1  0.93003992  0.19623375  0.94002125  1
  Zn  Zn161  1  0.94011961  0.68696175  0.43976890  1
  Zn  Zn162  1  0.93467759  0.68533846  0.93456028  1
  Zn  Zn163  1  0.06674257  0.31272881  0.07052646  1
  Zn  Zn164  1  0.06810152  0.31691719  0.55958522  1
  Zn  Zn165  1  0.05772743  0.81348849  0.05849648  1
  Zn  Zn166  1  0.05972620  0.81034307  0.56664212  1
  Zn  Zn167  1  0.56821876  0.31137172  0.06154672  1
  Zn  Zn168  1  0.56311728  0.31029527  0.56153310  1
  Zn  Zn169  1  0.56127262  0.81203151  0.05988225  1
  Zn  Zn170  1  0.56335822  0.81130297  0.56397595  1
  O  O171  1  0.11611232  0.12172115  0.11883197  1
  O  O172  1  0.11914304  0.11820761  0.61672894  1
  O  O173  1  0.10568526  0.61871376  0.13613662  1
  O  O174  1  0.13144284  0.61347129  0.62110268  1
  O  O175  1  0.61895314  0.11918103  0.11690324  1
  O  O176  1  0.62409070  0.12210372  0.61062423  1
  O  O177  1  0.61352198  0.61853391  0.12646381  1
  O  O178  1  0.62263224  0.61679602  0.62185065  1
  O  O179  1  0.38882520  0.38162385  0.37349291  1
  O  O180  1  0.38380541  0.38036438  0.87545874  1
  O  O181  1  0.37753560  0.87330375  0.38771102  1
  O  O182  1  0.38066172  0.88240447  0.87705434  1
  O  O183  1  0.86996080  0.37735095  0.38442648  1
  O  O184  1  0.87946492  0.35091984  0.90415285  1
  O  O185  1  0.88588897  0.88005931  0.38142188  1
  O  O186  1  0.88291966  0.88210821  0.88070153  1
  O  O187  1  0.24992787  -0.00063807  0.36142806  1
  O  O188  1  0.25409982  0.00553086  0.87047514  1
  O  O189  1  0.26479822  0.49377878  0.38010642  1
  O  O190  1  0.25391335  0.50607298  0.87145230  1
  O  O191  1  0.76061991  -0.00824276  0.37151934  1
  O  O192  1  0.75382907  0.00893525  0.86814582  1
  O  O193  1  0.73898021  0.50460775  0.36407521  1
  O  O194  1  0.74886077  0.51672500  0.87369683  1
  O  O195  1  0.24861562  0.48481868  0.12719886  1
  O  O196  1  0.24372187  0.49437159  0.63005506  1
  O  O197  1  0.24529558  0.99487168  0.13310294  1
  O  O198  1  0.23896996  1.00125216  0.63620338  1
  O  O199  1  0.73976440  0.50925330  0.13244764  1
  O  O200  1  0.73813241  0.49019882  0.61627013  1
  O  O201  1  0.74054377  1.00662732  0.13268725  1
  O  O202  1  0.75158135  0.99083510  0.63287746  1
  O  O203  1  -0.00574353  0.37090984  0.25207760  1
  O  O204  1  0.01837395  0.37467280  0.74541476  1
  O  O205  1  -0.00196868  0.86970483  0.25663543  1
  O  O206  1  -0.00306221  0.87631986  0.76059317  1
  O  O207  1  0.50975822  0.37161223  0.25444944  1
  O  O208  1  0.50649115  0.37437104  0.76010783  1
  O  O209  1  0.49835070  0.85981851  0.24829090  1
  O  O210  1  0.50858931  0.87640297  0.75638513  1
  O  O211  1  0.49579358  0.12681661  0.24350362  1
  O  O212  1  0.48474237  0.12202334  0.74928594  1
  O  O213  1  0.49333406  0.63483469  0.24210207  1
  O  O214  1  0.48709673  0.62582646  0.75129659  1
  O  O215  1  0.99366506  0.13145243  0.24260646  1
  O  O216  1  0.98900520  0.12384520  0.74138693  1
  O  O217  1  0.98895309  0.63407091  0.24339244  1
  O  O218  1  0.99964443  0.63216178  0.75310054  1
  O  O219  1  0.36566714  0.24996892  0.00220865  1
  O  O220  1  0.36502851  0.24882730  0.49346380  1
  O  O221  1  0.37032355  0.74855826  0.01513212  1
  O  O222  1  0.36750570  0.75250225  0.50518781  1
  O  O223  1  0.87463335  0.25755685  0.02018355  1
  O  O224  1  0.86408477  0.25645015  0.49368497  1
  O  O225  1  0.87365313  0.76258453  -0.00114368  1
  O  O226  1  0.87277172  0.75467824  0.50854246  1
  O  O227  1  0.13540992  0.24195476  0.49797114  1
  O  O228  1  0.13082671  0.24604434  0.99497349  1
  O  O229  1  0.12859155  0.74528540  0.49811199  1
  O  O230  1  0.12250255  0.75076907  0.98554381  1
  O  O231  1  0.63390975  0.24340201  0.49108766  1
  O  O232  1  0.62261141  0.23696441  0.99153068  1
  O  O233  1  0.63504281  0.74898500  0.49340653  1
  O  O234  1  0.63709955  0.74956567  1.00146427  1
  O  O235  1  0.50209286  0.23829355  0.13003057  1
  O  O236  1  0.49708431  0.24856954  0.62518001  1
  O  O237  1  0.49264004  0.74249214  0.12896593  1
  O  O238  1  0.48694170  0.74730098  0.62618286  1
  O  O239  1  0.99678813  0.24167122  0.13398637  1
  O  O240  1  1.00787279  0.23895149  0.62043113  1
  O  O241  1  1.00423248  0.74032027  0.13169573  1
  O  O242  1  0.99500682  0.75054399  0.64015012  1
  O  O243  1  -0.00011777  0.24684846  0.36201685  1
  O  O244  1  0.01368097  0.24415980  0.87843049  1
  O  O245  1  0.00680577  0.75820872  0.36989456  1
  O  O246  1  0.00422629  0.75448922  0.86533043  1
  O  O247  1  0.51004567  0.25792300  0.36958246  1
  O  O248  1  0.50911907  0.25815674  0.87295504  1
  O  O249  1  0.50616571  0.74983976  0.36585695  1
  O  O250  1  0.49180375  0.76319736  0.87256202  1
  O  O251  1  0.24424015  0.12901004  0.50110431  1
  O  O252  1  0.24337713  0.13465818  0.99750419  1
  O  O253  1  0.23970484  0.63855191  0.50297921  1
  O  O254  1  0.25559292  0.62366394  0.99094127  1
  O  O255  1  0.74431559  0.13270308  0.50247613  1
  O  O256  1  0.74370463  0.12273804  0.98492687  1
  O  O257  1  0.75200790  0.63755565  0.50224379  1
  O  O258  1  0.74803784  0.63540382  1.00227934  1
  O  O259  1  0.25102686  0.36354026  0.00094704  1
  O  O260  1  0.25515159  0.36451732  0.50986405  1
  O  O261  1  0.25054216  0.87432758  0.01313876  1
  O  O262  1  0.25632894  0.86215154  0.49856992  1
  O  O263  1  0.75697199  0.38021249  0.00136454  1
  O  O264  1  0.75462827  0.36740733  0.50257975  1
  O  O265  1  0.76320243  0.86598763  -0.00862931  1
  O  O266  1  0.75572759  0.86634417  0.50997855  1
  O  O267  1  0.11066676  0.49006660  0.25962892  1
  O  O268  1  0.13094611  0.49437450  0.74485757  1
  O  O269  1  0.13106867  1.00074726  0.24350040  1
  O  O270  1  0.13439927  1.00682774  0.74217406  1
  O  O271  1  0.62900678  0.49532101  0.24248039  1
  O  O272  1  0.61689855  0.48947973  0.73650981  1
  O  O273  1  0.63125752  0.99857501  0.24248370  1
  O  O274  1  0.63396813  0.99125966  0.74702624  1
  O  O275  1  0.36704688  0.00502742  0.24919049  1
  O  O276  1  0.36805246  0.00563285  0.75916997  1
  O  O277  1  0.38162807  0.51356640  0.25700564  1
  O  O278  1  0.37081395  0.50700173  0.75628861  1
  O  O279  1  0.86898436  0.00238453  0.26101656  1
  O  O280  1  0.86686784  0.00840059  0.75697144  1
  O  O281  1  0.86529126  0.51230096  0.24898226  1
  O  O282  1  0.87308840  0.43615688  0.76643030  1
  O  O283  1  0.12268954  0.37335829  0.37658763  1
  O  O284  1  0.13076557  0.36516136  0.86461271  1
  O  O285  1  0.11225593  0.87208811  0.37513578  1
  O  O286  1  0.11317926  0.86709542  0.87866623  1
  O  O287  1  0.61609969  0.36896995  0.36740310  1
  O  O288  1  0.62065396  0.36958362  0.86717210  1
  O  O289  1  0.62100809  0.86076922  0.36931343  1
  O  O290  1  0.61561554  0.88159622  0.86695842  1
  O  O291  1  0.38295347  0.12504017  0.13427881  1
  O  O292  1  0.37331308  0.11826475  0.64033124  1
  O  O293  1  0.38329898  0.62763193  0.13376515  1
  O  O294  1  0.37563452  0.63068146  0.63383788  1
  O  O295  1  0.87939852  0.13634332  0.12608636  1
  O  O296  1  0.88512846  0.12395323  0.63449698  1
  O  O297  1  0.89167669  0.62209908  0.13611809  1
  O  O298  1  0.87494395  0.63536242  0.62339571  1
  O  O299  1  0.25165276  0.25947409  0.11854191  1
  O  O300  1  0.24709606  0.25754586  0.61705722  1
  O  O301  1  0.25320460  0.75673008  0.12655278  1
  O  O302  1  0.26162691  0.74770751  0.61957252  1
  O  O303  1  0.75811229  0.24455478  0.13151921  1
  O  O304  1  0.74244320  0.25984968  0.61113185  1
  O  O305  1  0.75348371  0.75232561  0.10584862  1
  O  O306  1  0.75880488  0.75590621  0.62063711  1
  O  O307  1  0.24687659  0.24466356  0.38485937  1
  O  O308  1  0.24406065  0.24281430  0.88441416  1
  O  O309  1  0.23587329  0.75865582  0.38093777  1
  O  O310  1  0.24218502  0.74280407  0.87818180  1
  O  O311  1  0.73830828  0.25496665  0.37922753  1
  O  O312  1  0.73598674  0.24450761  0.86795769  1
  O  O313  1  0.74539512  0.75733928  0.38514049  1
  O  O314  1  0.75654476  0.73776309  0.89022903  1
  O  O315  1  0.00043413  0.12165046  0.00744923  1
  O  O316  1  0.00679345  0.12011691  0.50832409  1
  O  O317  1  -0.00762447  0.61659110  0.01233058  1
  O  O318  1  0.01361743  0.61690900  0.49663241  1
  O  O319  1  0.50700445  0.12234434  0.00670627  1
  O  O320  1  0.50748264  0.11577878  0.49857976  1
  O  O321  1  0.50338710  0.62060606  0.00728440  1
  O  O322  1  0.50039085  0.61344535  0.49949362  1
  O  O323  1  0.50094277  0.38507358  0.49010548  1
  O  O324  1  0.50173076  0.37839449  0.98945951  1
  O  O325  1  0.49313423  0.88070025  0.49974205  1
  O  O326  1  0.49566954  0.87845767  0.99201895  1
  O  O327  1  0.99236753  0.38282363  0.50133583  1
  O  O328  1  0.99828123  0.38518849  1.01041369  1
  O  O329  1  0.99433097  0.87894241  0.49470212  1
  O  O330  1  0.98878342  0.88121321  0.99119676  1
  O  O331  1  0.49659657  0.49428010  0.37961407  1
  O  O332  1  0.49832007  0.49257414  0.88045636  1
  O  O333  1  0.49810152  0.99541216  0.38604885  1
  O  O334  1  0.49051418  0.99101654  0.87522195  1
  O  O335  1  1.00883460  0.49337628  0.37865209  1
  O  O336  1  1.00706617  0.50265038  0.89591832  1
  O  O337  1  0.99410874  0.99276816  0.38219900  1
  O  O338  1  0.99544054  0.99528036  0.87883751  1
  O  O339  1  0.00068202  0.01287456  0.12232218  1
  O  O340  1  0.00602701  0.00740644  0.61981374  1
  O  O341  1  0.00283775  0.50759714  0.11795291  1
  O  O342  1  0.01116320  0.49604950  0.61508190  1
  O  O343  1  0.50596709  0.01083044  0.12394753  1
  O  O344  1  0.50196524  0.00278162  0.61181340  1
  O  O345  1  0.50577099  0.50689388  0.11957024  1
  O  O346  1  0.50787990  0.50051143  0.61488644  1
  O  O347  1  0.25502115  0.36957699  0.24317255  1
  O  O348  1  0.24598378  0.38084209  0.74501147  1
  O  O349  1  0.24756590  0.88144597  0.23965252  1
  O  O350  1  0.25210491  0.88766895  0.75603511  1
  O  O351  1  0.73818045  0.38570782  0.25305905  1
  O  O352  1  0.73131707  0.36523333  0.73570698  1
  O  O353  1  0.75074665  0.88957108  0.24906185  1
  O  O354  1  0.74684703  0.87798086  0.74709258  1
  O  O355  1  0.25797911  0.11798612  0.24770957  1
  O  O356  1  0.25993297  0.11761983  0.75597744  1
  O  O357  1  0.26386249  0.62828821  0.24409464  1
  O  O358  1  0.26035750  0.62012675  0.75809679  1
  O  O359  1  0.75214835  0.10865957  0.25569681  1
  O  O360  1  0.75288267  0.12104895  0.75697497  1
  O  O361  1  0.76359409  0.62339375  0.24548760  1
  O  O362  1  0.75898632  0.62918822  0.75505073  1
  O  O363  1  0.37463185  0.12038945  0.36126749  1
  O  O364  1  0.37012513  0.11691788  0.86859139  1
  O  O365  1  0.37682823  0.61847196  0.36129834  1
  O  O366  1  0.36829199  0.62042374  0.86924453  1
  O  O367  1  0.88067014  0.11142612  0.37863085  1
  O  O368  1  0.86697268  0.12358400  0.87079066  1
  O  O369  1  0.88184194  0.62770466  0.35928655  1
  O  O370  1  0.86117537  0.62405806  0.87772619  1
  O  O371  1  0.14255267  0.37580326  0.12932460  1
  O  O372  1  0.13752340  0.38376828  0.63038628  1
  O  O373  1  0.12917340  0.88217348  0.12546243  1
  O  O374  1  0.11964001  0.88886161  0.62286342  1
  O  O375  1  0.61976562  0.38601409  0.13268679  1
  O  O376  1  0.62981276  0.38213785  0.62771133  1
  O  O377  1  0.61768848  0.88960737  0.12475899  1
  O  O378  1  0.63847015  0.87672872  0.62971221  1
  O  O379  1  0.11252299  0.24529593  0.25406822  1
  O  O380  1  0.13499163  0.25622269  0.76003581  1
  O  O381  1  0.11288865  0.75244549  0.25927867  1
  O  O382  1  0.11070196  0.74713526  0.75806511  1
  O  O383  1  0.62297542  0.25600527  0.25452420  1
  O  O384  1  0.61758682  0.25548212  0.75622005  1
  O  O385  1  0.61974634  0.74949181  0.25243200  1
  O  O386  1  0.62255748  0.76505840  0.74225027  1
  O  O387  1  0.38440297  0.24049270  0.24894542  1
  O  O388  1  0.37372154  0.23293840  0.75835712  1
  O  O389  1  0.37954552  0.74111296  0.24253758  1
  O  O390  1  0.37439113  0.74336632  0.74314786  1
  O  O391  1  0.87962509  0.24983325  0.24001779  1
  O  O392  1  0.86713065  0.24061063  0.75438135  1
  O  O393  1  0.88457843  0.74363218  0.25250764  1
  O  O394  1  0.89174544  0.75529882  0.74460347  1
  O  O395  1  0.38236841  0.49883961  0.49229536  1
  O  O396  1  0.38443451  0.49713221  0.99405657  1
  O  O397  1  0.37958190  0.99145811  0.49879769  1
  O  O398  1  0.37358705  1.00084527  0.98696139  1
  O  O399  1  0.88878553  0.49590893  0.50113884  1
  O  O400  1  0.88353687  0.48132822  1.01123537  1
  O  O401  1  0.87942290  0.99346777  0.49607722  1
  O  O402  1  0.87727569  0.99515985  0.99223829  1
  O  O403  1  0.11634391  0.00663040  0.00526449  1
  O  O404  1  0.12192766  0.00620343  0.50813999  1
  O  O405  1  0.11342546  0.49530247  0.00940573  1
  O  O406  1  0.12048943  0.50681821  0.50758025  1
  O  O407  1  0.62595643  0.01076951  0.00604121  1
  O  O408  1  0.62016597  0.00530580  0.49810411  1
  O  O409  1  0.61892940  0.50337896  0.00675468  1
  O  O410  1  0.61721997  0.50193144  0.50516228  1
  O  O411  1  0.36439781  0.37262801  0.12393628  1
  O  O412  1  0.36255526  0.38138891  0.62658624  1
  O  O413  1  0.36648769  0.86592501  0.12485863  1
  O  O414  1  0.37777677  0.86788546  0.61340815  1
  O  O415  1  0.87091443  0.36161058  0.11951182  1
  O  O416  1  0.86090608  0.37694548  0.60799801  1
  O  O417  1  0.87929851  0.88197016  0.10734754  1
  O  O418  1  0.86589952  0.86978878  0.62343911  1
  O  O419  1  0.12507745  0.12220803  0.39089985  1
  O  O420  1  0.13075554  0.13030191  0.88029447  1
  O  O421  1  0.12679628  0.63868779  0.38664951  1
  O  O422  1  0.13751355  0.63397864  0.87103704  1
  O  O423  1  0.62073799  0.13432290  0.38574190  1
  O  O424  1  0.62889112  0.12975972  0.87891175  1
  O  O425  1  0.62166458  0.63928028  0.37541558  1
  O  O426  1  0.64147428  0.62856434  0.86858363  1
