# generated using pymatgen
data_V85Zn86O256
_symmetry_space_group_name_H-M   'P 1'
_cell_length_a   16.93857528
_cell_length_b   16.93823895
_cell_length_c   16.93762862
_cell_angle_alpha   90.00471671
_cell_angle_beta   90.00339177
_cell_angle_gamma   90.04934636
_symmetry_Int_Tables_number   1
_chemical_formula_structural   V85Zn86O256
_chemical_formula_sum   'V85 Zn86 O256'
_cell_volume   4859.56702835
_cell_formula_units_Z   1
loop_
 _symmetry_equiv_pos_site_id
 _symmetry_equiv_pos_as_xyz
  1  'x, y, z'
loop_
 _atom_site_type_symbol
 _atom_site_label
 _atom_site_symmetry_multiplicity
 _atom_site_fract_x
 _atom_site_fract_y
 _atom_site_fract_z
 _atom_site_occupancy
  V  V0  1  0.62191548  0.01737500  0.62408356  1
  V  V1  1  0.88327880  0.75375277  0.12754516  1
  V  V2  1  0.12857825  0.63517837  0.49915612  1
  V  V3  1  0.24849542  0.87178725  0.62095429  1
  V  V4  1  0.37638424  0.87193003  0.50310502  1
  V  V5  1  0.74101341  -0.00188072  0.24484455  1
  V  V6  1  0.25738934  0.50565017  0.25032827  1
  V  V7  1  -0.00011700  0.12330557  0.12334089  1
  V  V8  1  0.00281074  0.00457596  0.49910072  1
  V  V9  1  0.24488426  0.24856417  0.50153854  1
  V  V10  1  -0.00221140  0.37473739  0.36979650  1
  V  V11  1  0.75043249  0.50782276  0.25594845  1
  V  V12  1  0.37821805  0.38547222  -0.01220074  1
  V  V13  1  0.62215468  0.24723347  0.37308905  1
  V  V14  1  0.12341209  0.63100816  -0.00494002  1
  V  V15  1  0.87603969  0.62723560  0.75284738  1
  V  V16  1  0.11986869  0.25475306  0.87587835  1
  V  V17  1  0.88068013  0.63296856  0.25867443  1
  V  V18  1  0.74638873  0.74493550  0.00386609  1
  V  V19  1  0.12266484  0.50055414  0.12526058  1
  V  V20  1  0.50136770  0.25035354  0.24168899  1
  V  V21  1  0.62696203  0.73102715  0.37546955  1
  V  V22  1  0.24707962  -0.00524329  0.24697940  1
  V  V23  1  0.87417772  0.12502185  0.74997973  1
  V  V24  1  0.62659686  0.52069680  0.11725278  1
  V  V25  1  0.12862659  0.37840275  0.75149353  1
  V  V26  1  0.38353937  -0.00448396  0.87555892  1
  V  V27  1  0.87407155  -0.00005027  0.37568644  1
  V  V28  1  0.74516260  0.73660890  0.49947429  1
  V  V29  1  0.62433189  0.10627499  0.00395848  1
  V  V30  1  0.62596629  0.50020569  0.61989381  1
  V  V31  1  0.88138490  0.49109692  0.87458001  1
  V  V32  1  0.61895236  0.37319890  0.76464358  1
  V  V33  1  0.87183945  0.87413732  0.50302240  1
  V  V34  1  0.74271739  0.37741756  0.12416123  1
  V  V35  1  0.37195449  0.74637879  0.63081834  1
  V  V36  1  -0.00121423  0.25339254  0.75315240  1
  V  V37  1  0.12334263  0.37154473  0.25047526  1
  V  V38  1  0.25147377  0.00031178  0.74924154  1
  V  V39  1  0.11622410  0.87187059  0.24624385  1
  V  V40  1  0.87818008  0.12935348  0.25047636  1
  V  V41  1  0.24334377  0.61534471  0.86350415  1
  V  V42  1  0.42119101  0.56495312  0.80788263  1
  V  V43  1  0.24913068  0.25006034  0.00083407  1
  V  V44  1  0.25139662  0.37417812  0.12607773  1
  V  V45  1  0.00217537  0.49388123  -0.00269575  1
  V  V46  1  0.25672382  0.63229927  0.37447396  1
  V  V47  1  0.47579071  0.63064479  0.12543127  1
  V  V48  1  0.75285164  0.49844378  0.74996741  1
  V  V49  1  0.73550861  0.87221807  0.62572202  1
  V  V50  1  0.74668844  -0.00595620  0.75056700  1
  V  V51  1  0.62656405  0.74981591  0.87427930  1
  V  V52  1  0.11948655  0.74990098  0.37011335  1
  V  V53  1  0.50331476  0.76058874  0.75131563  1
  V  V54  1  0.37268410  0.37711752  0.49613379  1
  V  V55  1  0.49701805  0.62274886  0.62326129  1
  V  V56  1  0.74509848  0.12765881  0.87453687  1
  V  V57  1  0.50312424  0.10976487  0.12215716  1
  V  V58  1  0.87718723  0.88191138  0.00069266  1
  V  V59  1  0.50373531  0.50514043  0.49456479  1
  V  V60  1  0.00631634  0.88097447  0.87943655  1
  V  V61  1  0.49937774  0.37524841  0.37010461  1
  V  V62  1  0.74622702  0.12475811  0.37811125  1
  V  V63  1  0.12339025  -0.00436746  0.12003790  1
  V  V64  1  0.00615983  0.75253793  0.75599153  1
  V  V65  1  0.50354687  0.01357230  0.50369669  1
  V  V66  1  0.74451892  0.25109945  -0.00169925  1
  V  V67  1  0.24507098  0.12314809  0.37729787  1
  V  V68  1  0.12032320  0.12304655  -0.00002216  1
  V  V69  1  0.38660905  0.24439154  0.62628661  1
  V  V70  1  0.87901452  0.25432398  0.12747201  1
  V  V71  1  0.12634735  0.00761308  0.62086276  1
  V  V72  1  0.87532036  0.24975949  0.62354576  1
  V  V73  1  0.50831262  0.87602202  0.37762869  1
  V  V74  1  0.24562181  0.75829691  -0.00556078  1
  V  V75  1  0.24935909  0.12352077  0.87394847  1
  V  V76  1  0.74358069  0.24931402  0.50007277  1
  V  V77  1  0.38238362  0.87652778  0.00717479  1
  V  V78  1  0.37432138  0.00068780  0.37727251  1
  V  V79  1  0.00135092  0.62713898  0.62602465  1
  V  V80  1  0.11938691  0.24548712  0.37493151  1
  V  V81  1  0.38102209  0.24867464  0.12063159  1
  V  V82  1  0.13422733  0.50031824  0.62638426  1
  V  V83  1  0.87457511  0.37466211  0.49891734  1
  V  V84  1  0.00157400  0.50023083  0.50018775  1
  Zn  Zn85  1  0.37415336  0.12255509  0.24641081  1
  Zn  Zn86  1  0.87857242  0.37256706  -0.00231479  1
  Zn  Zn87  1  0.75161933  0.62376061  0.88231703  1
  Zn  Zn88  1  0.61791444  0.87435069  0.24341792  1
  Zn  Zn89  1  0.35473380  0.75959783  0.14013551  1
  Zn  Zn90  1  0.48472120  0.74530160  0.25634565  1
  Zn  Zn91  1  0.38731171  0.12293188  0.74440709  1
  Zn  Zn92  1  0.12688893  0.87324357  0.75142367  1
  Zn  Zn93  1  0.50832093  0.87868468  0.87737746  1
  Zn  Zn94  1  0.74151650  0.87938090  0.11953127  1
  Zn  Zn95  1  0.87757780  0.00215088  0.87824321  1
  Zn  Zn96  1  -0.00411120  0.87050004  0.37343360  1
  Zn  Zn97  1  0.86941437  0.50543240  0.37799262  1
  Zn  Zn98  1  0.00214584  0.62907559  0.12829828  1
  Zn  Zn99  1  0.50260026  0.50753347  -0.01069997  1
  Zn  Zn100  1  0.25332649  0.37641402  0.62827076  1
  Zn  Zn101  1  0.37820808  0.50770259  0.36921119  1
  Zn  Zn102  1  0.87220147  0.75178502  0.62715382  1
  Zn  Zn103  1  0.74800027  0.37402352  0.62523145  1
  Zn  Zn104  1  0.62515273  0.37831371  0.24630273  1
  Zn  Zn105  1  0.00414437  0.12742314  0.62181225  1
  Zn  Zn106  1  0.51434763  0.24864775  0.78737107  1
  Zn  Zn107  1  0.18747226  0.18610312  0.19027718  1
  Zn  Zn108  1  0.19157955  0.18807209  0.68796116  1
  Zn  Zn109  1  0.18688173  0.68825915  0.18495323  1
  Zn  Zn110  1  0.18718333  0.68979360  0.68643546  1
  Zn  Zn111  1  0.68696665  0.18683884  0.18432549  1
  Zn  Zn112  1  0.68696236  0.19098657  0.69037751  1
  Zn  Zn113  1  0.69398754  0.69487735  0.19255543  1
  Zn  Zn114  1  0.68498918  0.68498596  0.68725144  1
  Zn  Zn115  1  0.31187305  0.31093098  0.31001602  1
  Zn  Zn116  1  0.31066748  0.31149120  0.81052807  1
  Zn  Zn117  1  0.30610227  0.81502771  0.31936839  1
  Zn  Zn118  1  0.31227372  0.80928297  0.81410620  1
  Zn  Zn119  1  0.81032487  0.31494320  0.30981963  1
  Zn  Zn120  1  0.80930317  0.31276860  0.81313529  1
  Zn  Zn121  1  0.80854208  0.81108621  0.31643578  1
  Zn  Zn122  1  0.81489024  0.81391530  0.81557737  1
  Zn  Zn123  1  0.18799651  0.44097376  0.43633735  1
  Zn  Zn124  1  0.18903676  0.43796260  0.93653186  1
  Zn  Zn125  1  0.18570590  0.93356795  0.43801853  1
  Zn  Zn126  1  0.18657277  0.93863973  0.93630924  1
  Zn  Zn127  1  0.68542927  0.43548433  0.43535042  1
  Zn  Zn128  1  0.69265724  0.44226110  0.94084938  1
  Zn  Zn129  1  0.68709778  0.93835571  0.44197857  1
  Zn  Zn130  1  0.69158695  0.93033128  0.93353555  1
  Zn  Zn131  1  0.31102061  0.05968688  0.06176918  1
  Zn  Zn132  1  0.31236745  0.06410245  0.56003066  1
  Zn  Zn133  1  0.30407231  0.56406822  0.05685144  1
  Zn  Zn134  1  0.31334097  0.56422857  0.55903166  1
  Zn  Zn135  1  0.81261234  0.06358499  0.06321174  1
  Zn  Zn136  1  0.81102573  0.06289501  0.56310797  1
  Zn  Zn137  1  0.81962554  0.56456492  0.06804645  1
  Zn  Zn138  1  0.81564343  0.56078091  0.56559538  1
  Zn  Zn139  1  0.44093704  0.43842747  0.17886508  1
  Zn  Zn140  1  0.44220143  0.42769096  0.68293005  1
  Zn  Zn141  1  0.43435651  0.93182050  0.19267999  1
  Zn  Zn142  1  0.43960067  0.93967773  0.68705169  1
  Zn  Zn143  1  0.93522228  0.44151158  0.18780302  1
  Zn  Zn144  1  0.94247040  0.43559937  0.68626132  1
  Zn  Zn145  1  0.93648197  0.94133072  0.18680458  1
  Zn  Zn146  1  0.93510548  0.93750228  0.68687881  1
  Zn  Zn147  1  0.05940922  0.06145490  0.30968618  1
  Zn  Zn148  1  0.06297289  0.06283348  0.80932820  1
  Zn  Zn149  1  0.06283428  0.56092444  0.31311711  1
  Zn  Zn150  1  0.06357091  0.56200139  0.81320780  1
  Zn  Zn151  1  0.55955385  0.06572346  0.31304603  1
  Zn  Zn152  1  0.56441149  0.06660325  0.81001763  1
  Zn  Zn153  1  0.55973273  0.56239427  0.30178651  1
  Zn  Zn154  1  0.58264000  0.57007403  0.81010660  1
  Zn  Zn155  1  0.43252696  0.18948910  0.43508460  1
  Zn  Zn156  1  0.43612907  0.17759581  0.93639641  1
  Zn  Zn157  1  0.43843875  0.69067621  0.44078048  1
  Zn  Zn158  1  0.43692448  0.69335446  0.94454480  1
  Zn  Zn159  1  0.93667699  0.18730709  0.43765608  1
  Zn  Zn160  1  0.93438493  0.18708282  0.93886885  1
  Zn  Zn161  1  0.93735534  0.68959909  0.43953629  1
  Zn  Zn162  1  0.93816271  0.69012619  0.93799045  1
  Zn  Zn163  1  0.05989773  0.31190272  0.06371634  1
  Zn  Zn164  1  0.06291444  0.31334335  0.56241413  1
  Zn  Zn165  1  0.06412286  0.81308258  0.05986033  1
  Zn  Zn166  1  0.05948262  0.81560989  0.56489968  1
  Zn  Zn167  1  0.54470867  0.29521799  -0.00208636  1
  Zn  Zn168  1  0.56419269  0.31876329  0.56054284  1
  Zn  Zn169  1  0.56268403  0.80824971  0.06728996  1
  Zn  Zn170  1  0.56176043  0.81065106  0.55932914  1
  O  O171  1  0.11615342  0.12178880  0.12269206  1
  O  O172  1  0.12652431  0.11182716  0.62741228  1
  O  O173  1  0.12180541  0.61848455  0.11492559  1
  O  O174  1  0.12163728  0.62004566  0.61791309  1
  O  O175  1  0.61954931  0.12333365  0.11354135  1
  O  O176  1  0.63063566  0.11582225  0.62304756  1
  O  O177  1  0.63144922  0.62025665  0.12438730  1
  O  O178  1  0.61004608  0.61087421  0.63348152  1
  O  O179  1  0.38024547  0.37276735  0.38343614  1
  O  O180  1  0.36598536  0.37257106  0.88989320  1
  O  O181  1  0.38124822  0.88090094  0.38733259  1
  O  O182  1  0.37638010  0.88080270  0.88307811  1
  O  O183  1  0.88324570  0.37497155  0.37932879  1
  O  O184  1  0.87325067  0.38718679  0.87532064  1
  O  O185  1  0.87353125  0.87899797  0.38680480  1
  O  O186  1  0.88422980  0.87914488  0.88309968  1
  O  O187  1  0.25153998  0.00700719  0.37279993  1
  O  O188  1  0.25416661  0.00257264  0.86456376  1
  O  O189  1  0.25151038  0.50897475  0.36614717  1
  O  O190  1  0.24737754  0.51545203  0.87529129  1
  O  O191  1  0.75395074  0.00898069  0.37212182  1
  O  O192  1  0.75235906  0.00435367  0.86448335  1
  O  O193  1  0.74883216  0.49506899  0.36016749  1
  O  O194  1  0.75970957  0.50442186  0.86753599  1
  O  O195  1  0.24138066  0.49559868  0.13169494  1
  O  O196  1  0.23776348  0.49892207  0.61965661  1
  O  O197  1  0.23752677  1.00883045  0.13659906  1
  O  O198  1  0.24613952  0.99531301  0.62988884  1
  O  O199  1  0.74349621  0.49781042  0.12881338  1
  O  O200  1  0.74298037  0.49858904  0.63142580  1
  O  O201  1  0.75461526  1.00134007  0.14239282  1
  O  O202  1  0.73884703  0.99485623  0.62755305  1
  O  O203  1  0.00596678  0.38078924  0.26189699  1
  O  O204  1  0.00971939  0.36043353  0.74559081  1
  O  O205  1  0.01161486  0.88266903  0.25432216  1
  O  O206  1  -0.00249967  0.86850299  0.75796428  1
  O  O207  1  0.50137546  0.36959435  0.25219723  1
  O  O208  1  0.51539433  0.37074725  0.75112656  1
  O  O209  1  0.49964071  0.87118560  0.26435995  1
  O  O210  1  0.49837029  0.86321243  0.75175222  1
  O  O211  1  0.49842969  0.13275869  0.24027441  1
  O  O212  1  0.49838184  0.13996324  0.75953132  1
  O  O213  1  0.50022153  0.62835306  0.23113283  1
  O  O214  1  0.48887768  0.62344412  0.74679887  1
  O  O215  1  0.98912603  0.12365266  0.23916082  1
  O  O216  1  0.99366964  0.13517593  0.74703476  1
  O  O217  1  0.98536608  0.61977008  0.24918981  1
  O  O218  1  0.99490225  0.63314956  0.74788536  1
  O  O219  1  0.36760628  0.25695091  0.00877933  1
  O  O220  1  0.36458123  0.25629837  0.50394904  1
  O  O221  1  0.36279305  0.76353485  0.00190268  1
  O  O222  1  0.38435347  0.76413747  0.51407806  1
  O  O223  1  0.86502921  0.25029580  0.00943360  1
  O  O224  1  0.86535895  0.25467040  0.50285056  1
  O  O225  1  0.87090923  0.76001824  0.00744366  1
  O  O226  1  0.86591571  0.75756168  0.50236908  1
  O  O227  1  0.13682728  0.25585279  0.49125815  1
  O  O228  1  0.12723302  0.24604474  0.99287413  1
  O  O229  1  0.12019524  0.73938588  0.49756246  1
  O  O230  1  0.13177367  0.74210845  0.99796420  1
  O  O231  1  0.63653532  0.25657175  0.49215927  1
  O  O232  1  0.64173159  0.23862713  1.00734627  1
  O  O233  1  0.63144574  0.75109349  0.48801672  1
  O  O234  1  0.64154125  0.75240704  0.99645926  1
  O  O235  1  0.49144610  0.24194741  0.12072895  1
  O  O236  1  0.48529993  0.25313729  0.61268595  1
  O  O237  1  0.48918120  0.73738538  0.12538435  1
  O  O238  1  0.49824487  0.74049156  0.63247542  1
  O  O239  1  0.98584695  0.24583022  0.12394285  1
  O  O240  1  0.99400293  0.24726835  0.62996059  1
  O  O241  1  0.98783640  0.75079276  0.12127759  1
  O  O242  1  0.99475396  0.74433338  0.63208385  1
  O  O243  1  0.01144894  0.25749063  0.38181187  1
  O  O244  1  0.00789499  0.24494982  0.86724097  1
  O  O245  1  0.01351135  0.75143068  0.37969065  1
  O  O246  1  -0.00638880  0.76425486  0.86632193  1
  O  O247  1  0.50568001  0.25284188  0.36732649  1
  O  O248  1  0.50032954  0.25848892  0.89911805  1
  O  O249  1  0.51212178  0.75607698  0.37874479  1
  O  O250  1  0.50679154  0.74813013  0.86789552  1
  O  O251  1  0.25215689  0.13284489  0.48639072  1
  O  O252  1  0.24150795  0.13148102  0.99496795  1
  O  O253  1  0.23802578  0.61882805  0.48924540  1
  O  O254  1  0.24044786  0.63150944  0.98861283  1
  O  O255  1  0.75592687  0.13350235  0.48578891  1
  O  O256  1  0.74422923  0.12890135  0.99566239  1
  O  O257  1  0.75458795  0.63752552  0.50757383  1
  O  O258  1  0.76446066  0.64206009  1.00067415  1
  O  O259  1  0.25447886  0.36962052  0.00734943  1
  O  O260  1  0.25746681  0.36860117  0.49786795  1
  O  O261  1  0.25239194  0.86236312  -0.00723632  1
  O  O262  1  0.26013541  0.88126080  0.51275267  1
  O  O263  1  0.75504743  0.36815718  0.00578869  1
  O  O264  1  0.75735516  0.36720878  0.49894526  1
  O  O265  1  0.76116750  0.86420233  0.00015082  1
  O  O266  1  0.75433252  0.86813147  0.50804271  1
  O  O267  1  0.13141727  0.48898349  0.24694183  1
  O  O268  1  0.11597671  0.48984962  0.74004896  1
  O  O269  1  0.12880178  0.99487830  0.24247739  1
  O  O270  1  0.13698583  0.99810832  0.74263604  1
  O  O271  1  0.63376493  0.50048154  0.23571867  1
  O  O272  1  0.63478943  0.49220125  0.74357135  1
  O  O273  1  0.63894907  1.00121389  0.25783002  1
  O  O274  1  0.63581058  1.00391928  0.73778831  1
  O  O275  1  0.36377796  -0.00091803  0.25854559  1
  O  O276  1  0.36645795  0.00110568  0.75458213  1
  O  O277  1  0.36086803  0.49236786  0.24910763  1
  O  O278  1  0.37625729  0.49782252  0.74972291  1
  O  O279  1  0.86719351  0.01079427  0.25703947  1
  O  O280  1  0.86308121  0.00949396  0.74576736  1
  O  O281  1  0.86758704  0.51209802  0.25180271  1
  O  O282  1  0.87223125  0.50328360  0.75456669  1
  O  O283  1  0.11862089  0.36958043  0.36906748  1
  O  O284  1  0.12824464  0.36288804  0.86908985  1
  O  O285  1  0.12236892  0.86613401  0.36836534  1
  O  O286  1  0.11082340  0.87880767  0.87142728  1
  O  O287  1  0.61839028  0.36384336  0.36983474  1
  O  O288  1  0.62869022  0.38483447  0.86352849  1
  O  O289  1  0.61385628  0.87603055  0.37688946  1
  O  O290  1  0.62415552  0.85923880  0.87616188  1
  O  O291  1  0.38215411  0.13132815  0.12197947  1
  O  O292  1  0.37164742  0.14031856  0.62363981  1
  O  O293  1  0.37484478  0.62434846  0.12699053  1
  O  O294  1  0.38477916  0.63279298  0.61949265  1
  O  O295  1  0.88012849  0.13119604  0.13088029  1
  O  O296  1  0.87378804  0.13357347  0.63211284  1
  O  O297  1  0.88044907  0.63509962  0.13656769  1
  O  O298  1  0.88314893  0.62319632  0.63849179  1
  O  O299  1  0.25616738  0.25311341  0.12109157  1
  O  O300  1  0.25524090  0.25244548  0.61427099  1
  O  O301  1  0.24657739  0.74147716  0.10197297  1
  O  O302  1  0.25904935  0.75865744  0.62808712  1
  O  O303  1  0.75892467  0.25766212  0.12148794  1
  O  O304  1  0.75467628  0.25158775  0.61526528  1
  O  O305  1  0.76207302  0.75383796  0.11692232  1
  O  O306  1  0.74806010  0.75639946  0.61998128  1
  O  O307  1  0.24172852  0.24309204  0.37883070  1
  O  O308  1  0.24151836  0.24268869  0.87944268  1
  O  O309  1  0.23454798  0.74171127  0.37762132  1
  O  O310  1  0.25288599  0.73954364  0.88693339  1
  O  O311  1  0.74229036  0.24522332  0.37855207  1
  O  O312  1  0.75602257  0.24018418  0.88501571  1
  O  O313  1  0.73526721  0.75193488  0.38475948  1
  O  O314  1  0.74781964  0.74943107  0.88570757  1
  O  O315  1  0.00416494  0.12999580  0.01340388  1
  O  O316  1  -0.00781214  0.10972080  0.50274817  1
  O  O317  1  0.00884924  0.61871039  -0.00098785  1
  O  O318  1  0.00610431  0.61945078  0.50553633  1
  O  O319  1  0.51678752  0.11970560  0.00580352  1
  O  O320  1  0.49458506  0.11226975  0.49284713  1
  O  O321  1  0.49148676  0.62180150  0.01748633  1
  O  O322  1  0.49670196  0.61294116  0.50686083  1
  O  O323  1  0.49365986  0.38520354  0.49130607  1
  O  O324  1  0.48316886  0.38996916  1.00629264  1
  O  O325  1  0.49407273  0.88399345  0.49615192  1
  O  O326  1  0.48488444  0.86787849  0.99755126  1
  O  O327  1  0.99499646  0.37930300  0.49111563  1
  O  O328  1  0.99886080  0.38861090  1.00312326  1
  O  O329  1  0.98891083  0.88464726  0.50055789  1
  O  O330  1  0.99538094  0.87232182  0.98602605  1
  O  O331  1  0.49892431  0.49674065  0.37743749  1
  O  O332  1  0.49173047  0.51855097  0.86753473  1
  O  O333  1  0.49545170  0.99449124  0.38207323  1
  O  O334  1  0.48721093  0.99755572  0.86856853  1
  O  O335  1  0.99917101  0.49091774  0.38322761  1
  O  O336  1  0.99296870  0.50328764  0.88334261  1
  O  O337  1  0.99224961  0.99810543  0.38212668  1
  O  O338  1  0.99632683  0.98611772  0.86622915  1
  O  O339  1  0.01021117  0.01094093  0.12801570  1
  O  O340  1  0.00922520  0.00037813  0.61957903  1
  O  O341  1  0.00614272  0.50257567  0.11731642  1
  O  O342  1  0.00865944  0.50669546  0.61877960  1
  O  O343  1  0.49278155  0.01142801  0.13272026  1
  O  O344  1  0.51422035  -0.00057123  0.62112235  1
  O  O345  1  0.51317943  0.51424717  0.12598342  1
  O  O346  1  0.50456532  0.50369778  0.61591132  1
  O  O347  1  0.24215575  0.38102817  0.24557044  1
  O  O348  1  0.23336976  0.36809763  0.74597315  1
  O  O349  1  0.23579682  0.88971397  0.25853450  1
  O  O350  1  0.25037562  0.88168476  0.74020495  1
  O  O351  1  0.75131446  0.38654648  0.24053975  1
  O  O352  1  0.74504246  0.38595541  0.74792659  1
  O  O353  1  0.75135222  0.89240589  0.25514677  1
  O  O354  1  0.75787728  0.88442696  0.73979108  1
  O  O355  1  0.24916910  0.11574302  0.26115583  1
  O  O356  1  0.25572185  0.11736788  0.75596907  1
  O  O357  1  0.23960214  0.61541703  0.26045439  1
  O  O358  1  0.24415712  0.62957630  0.76409908  1
  O  O359  1  0.75409256  0.11709763  0.25856698  1
  O  O360  1  0.75283607  0.12093050  0.75835678  1
  O  O361  1  0.76475819  0.61821702  0.24551249  1
  O  O362  1  0.75864332  0.61343711  0.74823127  1
  O  O363  1  0.36475442  0.11871783  0.37063647  1
  O  O364  1  0.36405204  0.11176282  0.87918724  1
  O  O365  1  0.36110560  0.62735213  0.38270603  1
  O  O366  1  0.36520051  0.62542092  0.87190403  1
  O  O367  1  0.86796626  0.12335657  0.36683968  1
  O  O368  1  0.86530881  0.12157814  0.86966794  1
  O  O369  1  0.87720159  0.62587046  0.36338043  1
  O  O370  1  0.87626467  0.61706825  0.86366491  1
  O  O371  1  0.12915504  0.37749460  0.13333915  1
  O  O372  1  0.12559061  0.38398302  0.63112418  1
  O  O373  1  0.12020235  0.88485044  0.13089469  1
  O  O374  1  0.13380014  0.88366817  0.62601986  1
  O  O375  1  0.64024075  0.38085663  0.12461584  1
  O  O376  1  0.62610214  0.38770689  0.63184581  1
  O  O377  1  0.62908523  0.86934160  0.13130523  1
  O  O378  1  0.63352416  0.88039886  0.62180338  1
  O  O379  1  0.12965520  0.26329459  0.25882506  1
  O  O380  1  0.11767229  0.25261502  0.75653390  1
  O  O381  1  0.12838707  0.76006122  0.25578524  1
  O  O382  1  0.11017363  0.75378024  0.74436566  1
  O  O383  1  0.61966670  0.25247102  0.25489406  1
  O  O384  1  0.63064675  0.26917832  0.75054613  1
  O  O385  1  0.62664076  0.75253140  0.26780178  1
  O  O386  1  0.61375776  0.74201433  0.75741414  1
  O  O387  1  0.37988156  0.24857548  0.23668701  1
  O  O388  1  0.37518882  0.25551237  0.73201984  1
  O  O389  1  0.37042860  0.75696818  0.25110461  1
  O  O390  1  0.38372023  0.75303007  0.73764326  1
  O  O391  1  0.86679362  0.23758710  0.24322143  1
  O  O392  1  0.88061512  0.24716799  0.74517062  1
  O  O393  1  0.86973121  0.74089898  0.24603753  1
  O  O394  1  0.88065637  0.74131405  0.74894849  1
  O  O395  1  0.38238976  0.49185703  0.49562560  1
  O  O396  1  0.37025971  0.48776997  1.00175432  1
  O  O397  1  0.38279351  0.99182060  0.49911088  1
  O  O398  1  0.36377488  0.98380890  0.99062183  1
  O  O399  1  0.88137092  0.49338798  0.49817124  1
  O  O400  1  0.88360504  0.50101640  0.99213380  1
  O  O401  1  0.87729898  0.99324221  0.49505302  1
  O  O402  1  0.87059950  0.98682029  1.00103786  1
  O  O403  1  0.13067691  0.00732303  0.01086910  1
  O  O404  1  0.11487712  -0.00593565  0.50742242  1
  O  O405  1  0.11948092  0.50655354  0.00383346  1
  O  O406  1  0.11866207  0.50656876  0.50633927  1
  O  O407  1  0.63647700  0.00816908  0.00110737  1
  O  O408  1  0.61847000  -0.00032340  0.51392219  1
  O  O409  1  0.62440323  0.50032198  0.01377648  1
  O  O410  1  0.61655989  0.49467038  0.50696526  1
  O  O411  1  0.36875733  0.36733057  0.11810397  1
  O  O412  1  0.37324290  0.36692729  0.61115291  1
  O  O413  1  0.37184440  0.87803567  0.11087067  1
  O  O414  1  0.36958279  0.87059907  0.62100950  1
  O  O415  1  0.86758652  0.36878090  0.12506520  1
  O  O416  1  0.87417138  0.36810935  0.61729014  1
  O  O417  1  0.87368230  0.87092158  0.11961283  1
  O  O418  1  0.86461040  0.87644162  0.61412087  1
  O  O419  1  0.12914920  0.13570010  0.36809491  1
  O  O420  1  0.12881377  0.13221490  0.87880350  1
  O  O421  1  0.12892709  0.63032774  0.38142254  1
  O  O422  1  0.13311339  0.62355937  0.88172121  1
  O  O423  1  0.63139640  0.13824654  0.37177878  1
  O  O424  1  0.63759998  0.11896970  0.88804617  1
  O  O425  1  0.62035878  0.63282593  0.37363271  1
  O  O426  1  0.63571284  0.64039485  0.87763145  1
