# generated using pymatgen
data_V85Zn86O256
_symmetry_space_group_name_H-M   'P 1'
_cell_length_a   16.97649803
_cell_length_b   16.97508411
_cell_length_c   16.96703388
_cell_angle_alpha   90.06451640
_cell_angle_beta   90.05267200
_cell_angle_gamma   89.98552556
_symmetry_Int_Tables_number   1
_chemical_formula_structural   V85Zn86O256
_chemical_formula_sum   'V85 Zn86 O256'
_cell_volume   4889.51177844
_cell_formula_units_Z   1
loop_
 _symmetry_equiv_pos_site_id
 _symmetry_equiv_pos_as_xyz
  1  'x, y, z'
loop_
 _atom_site_type_symbol
 _atom_site_label
 _atom_site_symmetry_multiplicity
 _atom_site_fract_x
 _atom_site_fract_y
 _atom_site_fract_z
 _atom_site_occupancy
  V  V0  1  0.87230657  0.25040768  0.12410409  1
  V  V1  1  0.00285972  0.62712744  0.12932071  1
  V  V2  1  0.38348661  0.62854517  0.24582747  1
  V  V3  1  0.74986853  0.00237447  0.25661685  1
  V  V4  1  0.87622578  0.62646950  0.74967443  1
  V  V5  1  -0.00055507  0.25100915  0.24862980  1
  V  V6  1  0.74963200  0.50171540  0.24676324  1
  V  V7  1  0.25362758  0.62449573  0.37242143  1
  V  V8  1  0.24768308  0.24426155  0.50305134  1
  V  V9  1  0.49561652  0.25214127  0.24052384  1
  V  V10  1  0.00416242  0.12262070  0.61738353  1
  V  V11  1  0.24862396  0.12925472  0.37252657  1
  V  V12  1  0.63200273  0.25154220  0.37502547  1
  V  V13  1  0.86387298  0.25397903  0.62186014  1
  V  V14  1  0.12343291  0.75017519  0.36814101  1
  V  V15  1  0.49659215  -0.00755242  0.00144056  1
  V  V16  1  0.38468393  0.12726817  0.75229952  1
  V  V17  1  0.13807306  0.37266027  0.24751029  1
  V  V18  1  0.25042451  0.87351422  0.11810187  1
  V  V19  1  0.87266174  0.37376782  -0.00122607  1
  V  V20  1  0.13225557  0.49773325  0.12596157  1
  V  V21  1  0.00074778  0.37507652  0.37468566  1
  V  V22  1  0.62574771  0.12588684  -0.01938672  1
  V  V23  1  0.00012572  0.49642193  0.50085530  1
  V  V24  1  0.00120482  0.49971159  0.00188703  1
  V  V25  1  0.49820038  0.50002958  0.51218136  1
  V  V26  1  0.00208149  0.62358133  0.62395645  1
  V  V27  1  0.87399088  0.12675618  0.25046780  1
  V  V28  1  0.37522643  -0.00135304  0.37375945  1
  V  V29  1  0.38530694  0.24350768  0.63163768  1
  V  V30  1  0.81857283  0.92759007  0.54868792  1
  V  V31  1  0.87535818  0.62973240  0.25007088  1
  V  V32  1  0.61362196  0.62382936  0.00098901  1
  V  V33  1  0.00387678  0.00383419  0.00237542  1
  V  V34  1  0.49815414  0.87240733  0.85782089  1
  V  V35  1  0.00059438  0.87446401  0.38656778  1
  V  V36  1  0.00177278  0.75049024  0.74896052  1
  V  V37  1  0.88073804  0.75078959  0.60555040  1
  V  V38  1  0.49602822  0.37534678  0.37432089  1
  V  V39  1  0.37608378  0.50045459  0.37454340  1
  V  V40  1  0.86077780  0.37232302  0.50218258  1
  V  V41  1  0.12824083  0.62339814  0.49831420  1
  V  V42  1  0.00049713  0.87814070  0.87600014  1
  V  V43  1  0.11907032  0.87477872  0.24523603  1
  V  V44  1  0.37084792  -0.00068000  0.87850957  1
  V  V45  1  0.62481080  0.00786889  0.12746761  1
  V  V46  1  0.88297224  -0.00204089  0.37329985  1
  V  V47  1  0.50126798  0.00793615  0.50401921  1
  V  V48  1  0.87879589  0.75037999  0.12774981  1
  V  V49  1  0.12546326  0.49800581  0.62590176  1
  V  V50  1  0.54993259  0.67548844  0.67726160  1
  V  V51  1  0.26016913  0.49875831  0.75748618  1
  V  V52  1  0.69044959  0.80453935  0.54667031  1
  V  V53  1  0.63114788  0.74898422  0.37043377  1
  V  V54  1  0.62321468  0.37660339  0.24583859  1
  V  V55  1  -0.00255174  0.24793079  0.74829411  1
  V  V56  1  0.74982478  0.87549041  0.12796028  1
  V  V57  1  0.12428565  0.37408464  0.75222535  1
  V  V58  1  0.37703621  0.64257427  0.74397598  1
  V  V59  1  0.37366713  0.12998428  0.24226492  1
  V  V60  1  0.74759705  0.62529426  0.87363929  1
  V  V61  1  0.85976809  -0.00135843  0.87177487  1
  V  V62  1  0.74953380  0.74908169  -0.00047509  1
  V  V63  1  0.61471064  0.50457657  0.11907123  1
  V  V64  1  0.25799679  0.87328186  0.62729772  1
  V  V65  1  0.25928462  0.74932856  0.50404518  1
  V  V66  1  0.12527550  -0.00210351  0.61963297  1
  V  V67  1  0.87555909  0.50213865  0.87604249  1
  V  V68  1  0.24516510  -0.00176825  0.24439691  1
  V  V69  1  0.87378859  0.49998826  0.37443413  1
  V  V70  1  0.74773918  0.24473399  -0.01332914  1
  V  V71  1  0.12732717  0.74566809  0.87746772  1
  V  V72  1  0.37339355  0.37236992  0.49892102  1
  V  V73  1  0.24944801  0.37160431  0.62705175  1
  V  V74  1  0.50201819  0.37352528  0.87692325  1
  V  V75  1  0.62609201  0.61881521  0.50164210  1
  V  V76  1  0.38321410  0.75212970  0.11502099  1
  V  V77  1  0.86939940  0.11599914  0.75017329  1
  V  V78  1  0.74719814  0.48487555  0.74581890  1
  V  V79  1  -0.00224124  0.37276529  0.87682155  1
  V  V80  1  0.62210002  0.13174788  0.50532460  1
  V  V81  1  0.62354530  0.87646698  0.25166168  1
  V  V82  1  0.74609946  0.37577948  0.11876888  1
  V  V83  1  0.37390214  0.38516083  0.00445318  1
  V  V84  1  0.50412812  0.87473365  0.37744932  1
  Zn  Zn85  1  0.12846055  0.87656723  0.74902601  1
  Zn  Zn86  1  -0.00061349  0.11748385  0.12564833  1
  Zn  Zn87  1  0.75265518  0.62847382  0.37967252  1
  Zn  Zn88  1  0.50077743  0.74965713  0.24745854  1
  Zn  Zn89  1  0.26192502  0.62091101  0.88043902  1
  Zn  Zn90  1  0.38060499  0.86999237  0.50259914  1
  Zn  Zn91  1  0.25289454  0.75033642  -0.00267631  1
  Zn  Zn92  1  0.62730468  0.48875291  0.63119198  1
  Zn  Zn93  1  0.60025501  0.33119205  0.74707395  1
  Zn  Zn94  1  0.61999900  0.75326833  0.86304635  1
  Zn  Zn95  1  0.24893450  0.13196342  0.87619413  1
  Zn  Zn96  1  0.13100367  0.12657178  0.00571998  1
  Zn  Zn97  1  0.75086710  0.12994118  0.37688263  1
  Zn  Zn98  1  0.25313628  0.25176759  0.00746606  1
  Zn  Zn99  1  0.12722308  0.24406386  0.87829016  1
  Zn  Zn100  1  0.24938076  0.00330831  0.74952080  1
  Zn  Zn101  1  0.25496235  0.49767201  0.24580440  1
  Zn  Zn102  1  0.87409405  0.87851786  0.00283507  1
  Zn  Zn103  1  0.49606621  0.12948716  0.11796231  1
  Zn  Zn104  1  0.12967747  0.62543229  0.00194454  1
  Zn  Zn105  1  0.12210110  0.11707005  0.49489351  1
  Zn  Zn106  1  0.12377432  0.24720258  0.37516577  1
  Zn  Zn107  1  0.17704106  0.17847155  0.17904117  1
  Zn  Zn108  1  0.19029709  0.18400128  0.69464564  1
  Zn  Zn109  1  0.19370277  0.68866540  0.18691173  1
  Zn  Zn110  1  0.19131145  0.68596360  0.68903740  1
  Zn  Zn111  1  0.68718844  0.19036916  0.18650424  1
  Zn  Zn112  1  0.65859826  0.13499793  0.71442697  1
  Zn  Zn113  1  0.68800555  0.68653292  0.18635119  1
  Zn  Zn114  1  0.71785607  0.73863846  0.71311165  1
  Zn  Zn115  1  0.31585481  0.30678612  0.17397480  1
  Zn  Zn116  1  0.31939460  0.31432795  0.82382612  1
  Zn  Zn117  1  0.31255320  0.81238394  0.30992807  1
  Zn  Zn118  1  0.31364797  0.81587319  0.81334456  1
  Zn  Zn119  1  0.81155815  0.31723793  0.31087334  1
  Zn  Zn120  1  0.76288428  0.27182396  0.77604914  1
  Zn  Zn121  1  0.81276499  0.81495105  0.31666366  1
  Zn  Zn122  1  0.82097899  0.81229631  0.81642424  1
  Zn  Zn123  1  0.18911843  0.43488824  0.43539118  1
  Zn  Zn124  1  0.18949173  0.43281278  0.94008699  1
  Zn  Zn125  1  0.18967202  0.93626408  0.43794432  1
  Zn  Zn126  1  0.18485939  0.93635169  0.93607970  1
  Zn  Zn127  1  0.68434104  0.44067600  0.43454136  1
  Zn  Zn128  1  0.67617642  0.43668091  0.92862929  1
  Zn  Zn129  1  0.62651439  0.98411021  0.61762833  1
  Zn  Zn130  1  0.68098492  0.93297589  0.94475923  1
  Zn  Zn131  1  0.30994418  0.06371741  0.06083780  1
  Zn  Zn132  1  0.31269069  0.06160712  0.56347425  1
  Zn  Zn133  1  0.31490144  0.56699804  0.06055656  1
  Zn  Zn134  1  0.31403984  0.56151802  0.56667416  1
  Zn  Zn135  1  0.81243214  0.06365028  0.06073734  1
  Zn  Zn136  1  0.80410198  0.09030525  0.56408769  1
  Zn  Zn137  1  0.81002472  0.56253924  0.06187308  1
  Zn  Zn138  1  0.81137803  0.56275130  0.56383426  1
  Zn  Zn139  1  0.43840068  0.44424029  0.18424176  1
  Zn  Zn140  1  0.43763576  0.42833106  0.69105673  1
  Zn  Zn141  1  0.43548116  0.93669132  0.18746496  1
  Zn  Zn142  1  0.43437331  0.93982728  0.68697346  1
  Zn  Zn143  1  0.93891083  0.43851546  0.18613818  1
  Zn  Zn144  1  0.93250203  0.43583173  0.68927393  1
  Zn  Zn145  1  0.93895154  0.93374938  0.19020463  1
  Zn  Zn146  1  0.94627145  0.93967226  0.68755686  1
  Zn  Zn147  1  0.06301137  0.06148917  0.30918328  1
  Zn  Zn148  1  0.06429385  0.06259491  0.81103817  1
  Zn  Zn149  1  0.06311305  0.56117180  0.30930187  1
  Zn  Zn150  1  0.06556226  0.56086060  0.81245455  1
  Zn  Zn151  1  0.56056090  0.06703802  0.31450456  1
  Zn  Zn152  1  0.55110045  0.05579079  0.80886375  1
  Zn  Zn153  1  0.56294459  0.56165091  0.31380590  1
  Zn  Zn154  1  0.55943253  0.55271710  0.81964799  1
  Zn  Zn155  1  0.43485553  0.19026885  0.43153970  1
  Zn  Zn156  1  0.43195920  0.19579251  0.94044878  1
  Zn  Zn157  1  0.44381806  0.68739206  0.44070437  1
  Zn  Zn158  1  0.43624932  0.68738085  0.92809250  1
  Zn  Zn159  1  0.93562438  0.18851395  0.43767809  1
  Zn  Zn160  1  0.93283774  0.18503242  0.93264504  1
  Zn  Zn161  1  0.94654374  0.68491020  0.43010891  1
  Zn  Zn162  1  0.93920054  0.68821585  0.94137317  1
  Zn  Zn163  1  0.06942840  0.30904996  0.06567160  1
  Zn  Zn164  1  0.06184774  0.30922369  0.56279959  1
  Zn  Zn165  1  0.06233018  0.81493986  0.06106179  1
  Zn  Zn166  1  0.07159336  0.81155919  0.55996515  1
  Zn  Zn167  1  0.55684935  0.30940690  0.04936160  1
  Zn  Zn168  1  0.56827888  0.31513143  0.56436731  1
  Zn  Zn169  1  0.56398290  0.81369547  0.06107892  1
  Zn  Zn170  1  0.67753298  0.92496746  0.77439844  1
  O  O171  1  0.11127103  0.11273005  0.12061206  1
  O  O172  1  0.11958662  0.11825401  0.62455227  1
  O  O173  1  0.11634511  0.62064403  0.12885666  1
  O  O174  1  0.12072596  0.61856667  0.61926405  1
  O  O175  1  0.62248009  0.11323514  0.12855859  1
  O  O176  1  0.62140546  0.12688055  0.60520095  1
  O  O177  1  0.63305258  0.61930307  0.10987778  1
  O  O178  1  0.61669126  0.61727179  0.61674609  1
  O  O179  1  0.38380016  0.38360374  0.38302421  1
  O  O180  1  0.38647572  0.37819771  0.88843812  1
  O  O181  1  0.38100608  0.88335621  0.37456633  1
  O  O182  1  0.38885431  0.88277546  0.87112603  1
  O  O183  1  0.88160477  0.38007284  0.38135536  1
  O  O184  1  0.88824561  0.38518914  0.88182959  1
  O  O185  1  0.88758357  0.88334561  0.36786503  1
  O  O186  1  0.88720008  0.88043985  0.87746081  1
  O  O187  1  0.25730410  0.00712258  0.36897905  1
  O  O188  1  0.26432413  -0.00750689  0.87587440  1
  O  O189  1  0.25420045  0.51216905  0.37520553  1
  O  O190  1  0.23775099  0.50302679  0.85900614  1
  O  O191  1  0.76412548  0.00036465  0.35990482  1
  O  O192  1  0.75924204  -0.01825320  0.86973816  1
  O  O193  1  0.75674433  0.50027131  0.36321751  1
  O  O194  1  0.75610408  0.50921916  0.86748744  1
  O  O195  1  0.23476787  0.50867838  0.12763998  1
  O  O196  1  0.24333563  0.49151444  0.63286769  1
  O  O197  1  0.26059259  0.98915187  0.13840055  1
  O  O198  1  0.24444001  0.99102522  0.62496641  1
  O  O199  1  0.74576389  0.49418160  0.13083536  1
  O  O200  1  0.75404574  0.50306872  0.64319071  1
  O  O201  1  0.74530062  0.99683003  0.13491380  1
  O  O202  1  0.75803707  0.98710344  0.60468988  1
  O  O203  1  0.00009543  0.37076570  0.26157781  1
  O  O204  1  0.00055109  0.36813757  0.75714264  1
  O  O205  1  0.01515045  0.88009739  0.25768494  1
  O  O206  1  0.00227057  0.86593326  0.75730560  1
  O  O207  1  0.50428434  0.37163827  0.25555608  1
  O  O208  1  0.49220492  0.36919992  0.76728585  1
  O  O209  1  0.50571434  0.87748937  0.26059489  1
  O  O210  1  0.50260354  0.88053801  0.75855658  1
  O  O211  1  0.49022111  0.13572816  0.25145816  1
  O  O212  1  0.48551431  0.12678851  0.74826568  1
  O  O213  1  0.48691410  0.62754987  0.25765208  1
  O  O214  1  0.49115447  0.61802052  0.74670501  1
  O  O215  1  0.99194632  0.13507452  0.25124756  1
  O  O216  1  0.99268196  0.13237134  0.74049079  1
  O  O217  1  0.99068831  0.62041801  0.23807747  1
  O  O218  1  0.99602742  0.62987886  0.74299479  1
  O  O219  1  0.37191529  0.26418264  0.00709051  1
  O  O220  1  0.36374683  0.25040535  0.50624709  1
  O  O221  1  0.37661400  0.74643129  0.01237259  1
  O  O222  1  0.36299365  0.74904172  0.49381104  1
  O  O223  1  0.87061186  0.25286755  0.00760721  1
  O  O224  1  0.87908593  0.25799820  0.51164084  1
  O  O225  1  0.86458100  0.75132006  0.00838861  1
  O  O226  1  0.88542400  0.74506404  0.50659378  1
  O  O227  1  0.13796986  0.25000829  0.49730589  1
  O  O228  1  0.12405527  0.24666419  0.99489117  1
  O  O229  1  0.13572584  0.74204838  0.48757734  1
  O  O230  1  0.12351268  0.74779798  0.99020611  1
  O  O231  1  0.61118185  0.23994611  0.48829986  1
  O  O232  1  0.63293253  0.23293869  1.00273538  1
  O  O233  1  0.62854302  0.74076925  0.49207415  1
  O  O234  1  0.63738979  0.74046991  1.00409517  1
  O  O235  1  0.51134206  0.24748715  0.13813696  1
  O  O236  1  0.48192526  0.25201138  0.61684507  1
  O  O237  1  0.48739763  0.75863854  0.12730727  1
  O  O238  1  0.50040537  0.73463775  0.62079700  1
  O  O239  1  0.99032718  0.25525655  0.13868682  1
  O  O240  1  0.99598947  0.24571299  0.63591483  1
  O  O241  1  0.98644631  0.74377616  0.12004216  1
  O  O242  1  0.99749608  0.74657785  0.62878836  1
  O  O243  1  -0.00157641  0.25788043  0.36570106  1
  O  O244  1  -0.00608629  0.25748561  0.86285752  1
  O  O245  1  0.01313243  0.75767619  0.37364918  1
  O  O246  1  0.00205321  0.75636276  0.86748529  1
  O  O247  1  0.50361549  0.26183949  0.36492026  1
  O  O248  1  0.50517812  0.26811018  0.89238944  1
  O  O249  1  0.51066842  0.75892597  0.37546998  1
  O  O250  1  0.50344240  0.76992829  0.88092689  1
  O  O251  1  0.24853635  0.12970871  0.49263242  1
  O  O252  1  0.24898476  0.12761048  0.99511035  1
  O  O253  1  0.24647163  0.62872865  0.49413892  1
  O  O254  1  0.24668653  0.63055435  0.99495150  1
  O  O255  1  0.72785844  0.12583500  0.49081450  1
  O  O256  1  0.73543429  0.13004148  1.00380165  1
  O  O257  1  0.73292286  0.61167005  0.49614675  1
  O  O258  1  0.75021194  0.63169047  0.98877344  1
  O  O259  1  0.26529109  0.37412452  -0.00352563  1
  O  O260  1  0.25576243  0.36642401  0.50360692  1
  O  O261  1  0.24369950  0.87494579  0.01506114  1
  O  O262  1  0.25317436  0.86453393  0.50459775  1
  O  O263  1  0.75252696  0.36863439  0.00221035  1
  O  O264  1  0.76208029  0.38100285  0.49511024  1
  O  O265  1  0.75025516  0.86577484  0.00949716  1
  O  O266  1  0.75570831  0.86746240  0.48999467  1
  O  O267  1  0.12675124  0.49068294  0.24425120  1
  O  O268  1  0.12930360  0.49389900  0.74155745  1
  O  O269  1  0.13664309  0.98962358  0.25611393  1
  O  O270  1  0.12620678  0.99673971  0.73652328  1
  O  O271  1  0.63197219  0.49666062  0.24294446  1
  O  O272  1  0.64513236  0.50930328  0.75192646  1
  O  O273  1  0.63273881  0.99884861  0.24694722  1
  O  O274  1  0.62806260  1.01727531  0.73054488  1
  O  O275  1  0.36881792  0.00521977  0.25994579  1
  O  O276  1  0.37536575  0.00916920  0.75889098  1
  O  O277  1  0.37364470  0.50887129  0.25627745  1
  O  O278  1  0.35987644  0.49586666  0.74748448  1
  O  O279  1  0.87154240  0.00658365  0.25455578  1
  O  O280  1  0.88519906  0.00851432  0.75641125  1
  O  O281  1  0.86988891  0.50890946  0.25239250  1
  O  O282  1  0.86727002  0.50867789  0.75553179  1
  O  O283  1  0.11663243  0.37367340  0.36653104  1
  O  O284  1  0.10970992  0.37758657  0.86941662  1
  O  O285  1  0.12181859  0.86771988  0.36924140  1
  O  O286  1  0.11464222  0.86528971  0.87213590  1
  O  O287  1  0.61653147  0.37060107  0.36845768  1
  O  O288  1  0.61548316  0.37005808  0.86489066  1
  O  O289  1  0.61762767  0.86522967  0.36644240  1
  O  O290  1  0.61628449  0.87683200  0.86706648  1
  O  O291  1  0.37873848  0.11626180  0.13938536  1
  O  O292  1  0.36919661  0.13715077  0.63137744  1
  O  O293  1  0.37053319  0.64101059  0.13392321  1
  O  O294  1  0.37142338  0.61870400  0.64437006  1
  O  O295  1  0.87766856  0.13308219  0.13174062  1
  O  O296  1  0.88611471  0.13408411  0.62770230  1
  O  O297  1  0.87978287  0.63053703  0.13143811  1
  O  O298  1  0.88237085  0.63423353  0.62672730  1
  O  O299  1  0.23355877  0.25550249  0.12499581  1
  O  O300  1  0.25254447  0.25423443  0.61864095  1
  O  O301  1  0.26097999  0.75796170  0.12336623  1
  O  O302  1  0.24047659  0.75862869  0.61396410  1
  O  O303  1  0.75505690  0.25750220  0.11848076  1
  O  O304  1  0.76815790  0.24568249  0.62435387  1
  O  O305  1  0.76022101  0.75245947  0.11999903  1
  O  O306  1  0.75795265  0.74845125  0.60421196  1
  O  O307  1  0.24988274  0.23383391  0.38359289  1
  O  O308  1  0.24481436  0.25070997  0.87639660  1
  O  O309  1  0.24634158  0.73949868  0.38007960  1
  O  O310  1  0.23963381  0.75185128  0.87582854  1
  O  O311  1  0.73538704  0.25424212  0.36967162  1
  O  O312  1  0.76670110  0.24932119  0.89007882  1
  O  O313  1  0.73687913  0.74796686  0.37028703  1
  O  O314  1  0.74748524  0.74475881  0.88523328  1
  O  O315  1  -0.00728113  0.10970883  -0.00253592  1
  O  O316  1  0.00469700  0.13546209  0.51321270  1
  O  O317  1  0.00039494  0.61883019  0.01351059  1
  O  O318  1  0.00885933  0.61667446  0.50368942  1
  O  O319  1  0.51350200  0.11637694  0.00044663  1
  O  O320  1  0.50427007  0.11530605  0.48734895  1
  O  O321  1  0.51602737  0.63270526  -0.00535903  1
  O  O322  1  0.51190762  0.61070899  0.49041327  1
  O  O323  1  0.49396652  0.38038701  0.49156651  1
  O  O324  1  0.48814930  0.37758439  0.99698566  1
  O  O325  1  0.49702407  0.89241496  0.48345876  1
  O  O326  1  0.51295665  0.89043279  0.99283551  1
  O  O327  1  0.99696764  0.37704586  0.48849419  1
  O  O328  1  0.99428597  0.37932966  0.99415302  1
  O  O329  1  1.00698914  0.87207718  0.48596594  1
  O  O330  1  0.99537399  0.88201003  0.99182567  1
  O  O331  1  0.49797146  0.48859693  0.37976243  1
  O  O332  1  0.51370068  0.47965047  0.88747768  1
  O  O333  1  0.49230190  0.99608275  0.37687247  1
  O  O334  1  0.49213010  0.98971956  0.88153602  1
  O  O335  1  0.99403164  0.49349779  0.37887588  1
  O  O336  1  0.99583399  0.49567111  0.88113686  1
  O  O337  1  0.98966355  0.99459434  0.37208929  1
  O  O338  1  0.99197677  0.99130110  0.88090250  1
  O  O339  1  -0.01494940  -0.00476739  0.10475039  1
  O  O340  1  0.00966806  0.01103523  0.62467889  1
  O  O341  1  0.00611703  0.50885447  0.12107705  1
  O  O342  1  0.00388108  0.50298435  0.62056034  1
  O  O343  1  0.50795064  0.00021197  0.11921004  1
  O  O344  1  0.49828958  -0.00563650  0.60544579  1
  O  O345  1  0.51662691  0.50684378  0.13051020  1
  O  O346  1  0.49496613  0.49317662  0.61391008  1
  O  O347  1  0.23930452  0.37618067  0.25242422  1
  O  O348  1  0.24508690  0.38382530  0.74779530  1
  O  O349  1  0.24185652  0.88147005  0.24565906  1
  O  O350  1  0.24803019  0.87746956  0.74040149  1
  O  O351  1  0.74304133  0.38168876  0.24064059  1
  O  O352  1  0.75951114  0.38762214  0.75629945  1
  O  O353  1  0.74425477  0.88300331  0.24604723  1
  O  O354  1  0.74700821  0.84608427  0.74134115  1
  O  O355  1  0.25395516  0.11710484  0.25524977  1
  O  O356  1  0.26252941  0.12070452  0.75567525  1
  O  O357  1  0.26085537  0.62420093  0.25924046  1
  O  O358  1  0.25811232  0.61420294  0.75137622  1
  O  O359  1  0.75614569  0.11975517  0.25202864  1
  O  O360  1  0.77219280  0.11362575  0.73398250  1
  O  O361  1  0.75839874  0.61764956  0.25076728  1
  O  O362  1  0.76011001  0.63635315  0.76410518  1
  O  O363  1  0.36766583  0.11896633  0.36384052  1
  O  O364  1  0.37784610  0.11687683  0.86934044  1
  O  O365  1  0.36913930  0.62127522  0.37064146  1
  O  O366  1  0.37572137  0.62716161  0.85448664  1
  O  O367  1  0.87290342  0.11822705  0.37033017  1
  O  O368  1  0.87617509  0.11453713  0.85871102  1
  O  O369  1  0.87538000  0.61946514  0.36646352  1
  O  O370  1  0.87094300  0.62094108  0.87211084  1
  O  O371  1  0.11180261  0.38762539  0.13852899  1
  O  O372  1  0.12937860  0.37800355  0.63146914  1
  O  O373  1  0.13373011  0.86635049  0.13617429  1
  O  O374  1  0.13401776  0.88173660  0.62549352  1
  O  O375  1  0.62903199  0.38346513  0.12485101  1
  O  O376  1  0.61695746  0.37609689  0.64096098  1
  O  O377  1  0.63033696  0.88649058  0.13117457  1
  O  O378  1  0.63637236  0.86393790  0.60390147  1
  O  O379  1  0.11305436  0.25764994  0.25343005  1
  O  O380  1  0.11308397  0.25704554  0.75075613  1
  O  O381  1  0.13431688  0.75751968  0.26159531  1
  O  O382  1  0.11354024  0.74871406  0.75408221  1
  O  O383  1  0.61843837  0.25791645  0.25632022  1
  O  O384  1  0.65805323  0.23593346  0.75596992  1
  O  O385  1  0.62181611  0.75378138  0.25370964  1
  O  O386  1  0.60903335  0.73073790  0.74350415  1
  O  O387  1  0.38291400  0.24260467  0.24850102  1
  O  O388  1  0.36985609  0.24498093  0.73720110  1
  O  O389  1  0.37801104  0.74359143  0.24354324  1
  O  O390  1  0.37084059  0.74140065  0.74439107  1
  O  O391  1  0.87888881  0.24730966  0.24567634  1
  O  O392  1  0.87692096  0.23945500  0.73982175  1
  O  O393  1  0.86897391  0.73736297  0.24387623  1
  O  O394  1  0.88917021  0.74535695  0.73939926  1
  O  O395  1  0.38018655  0.49591628  0.49422922  1
  O  O396  1  0.37264947  0.48725203  1.00825571  1
  O  O397  1  0.38292616  1.00420791  0.48713689  1
  O  O398  1  0.38736975  1.00514372  0.99329856  1
  O  O399  1  0.88184012  0.49324532  0.49614485  1
  O  O400  1  0.88077768  0.49480227  0.99674797  1
  O  O401  1  0.86721095  0.99868112  0.49272716  1
  O  O402  1  0.87692563  0.99884704  0.98707263  1
  O  O403  1  0.10535043  -0.00391863  -0.00592366  1
  O  O404  1  0.13072037  0.00049456  0.51298206  1
  O  O405  1  0.11737862  0.50011590  0.00866758  1
  O  O406  1  0.12036637  0.50269427  0.50523096  1
  O  O407  1  0.62297621  0.01089601  0.00938016  1
  O  O408  1  0.60832194  0.01396059  0.49808123  1
  O  O409  1  0.63574376  0.51610115  0.00598833  1
  O  O410  1  0.61568833  0.50229736  0.50401040  1
  O  O411  1  0.38079672  0.37754700  0.11731193  1
  O  O412  1  0.36734485  0.36292359  0.61912207  1
  O  O413  1  0.36592761  0.86073211  0.13278786  1
  O  O414  1  0.36232530  0.87985828  0.61977273  1
  O  O415  1  0.86771509  0.37116774  0.11848180  1
  O  O416  1  0.88050635  0.36254637  0.61676641  1
  O  O417  1  0.86857137  0.86504049  0.12789247  1
  O  O418  1  0.88072681  0.87295447  0.61299769  1
  O  O419  1  0.13282445  0.12539148  0.37577871  1
  O  O420  1  0.12668563  0.12447451  0.87964014  1
  O  O421  1  0.13177115  0.63040603  0.37602962  1
  O  O422  1  0.12127044  0.63834582  0.87531132  1
  O  O423  1  0.62496141  0.13722812  0.37864718  1
  O  O424  1  0.62473228  0.11338803  0.88348252  1
  O  O425  1  0.62639456  0.63242878  0.38078973  1
  O  O426  1  0.63272876  0.62962608  0.88468581  1
