# generated using pymatgen
data_V85Zn86O256
_symmetry_space_group_name_H-M   'P 1'
_cell_length_a   16.95339829
_cell_length_b   16.95512925
_cell_length_c   16.94903113
_cell_angle_alpha   90.04579075
_cell_angle_beta   90.01891495
_cell_angle_gamma   89.99094557
_symmetry_Int_Tables_number   1
_chemical_formula_structural   V85Zn86O256
_chemical_formula_sum   'V85 Zn86 O256'
_cell_volume   4871.94727234
_cell_formula_units_Z   1
loop_
 _symmetry_equiv_pos_site_id
 _symmetry_equiv_pos_as_xyz
  1  'x, y, z'
loop_
 _atom_site_type_symbol
 _atom_site_label
 _atom_site_symmetry_multiplicity
 _atom_site_fract_x
 _atom_site_fract_y
 _atom_site_fract_z
 _atom_site_occupancy
  V  V0  1  0.24846759  0.62744787  0.37137558  1
  V  V1  1  0.12149897  0.62459336  0.00205918  1
  V  V2  1  0.50349595  -0.00968765  0.49058339  1
  V  V3  1  0.75103610  0.75138554  0.49982832  1
  V  V4  1  0.00566140  0.37677737  0.37129543  1
  V  V5  1  0.87802654  0.88121637  0.49048266  1
  V  V6  1  0.86616070  0.25472597  0.61888750  1
  V  V7  1  0.62299742  0.00032185  0.63263414  1
  V  V8  1  0.37883599  0.49904431  0.88286984  1
  V  V9  1  0.75043812  0.87752744  0.63115845  1
  V  V10  1  0.12485700  0.62486733  0.49955368  1
  V  V11  1  -0.00006884  0.74836258  0.74780397  1
  V  V12  1  0.62005110  0.75711429  0.37939249  1
  V  V13  1  0.00578945  0.37930165  0.86924727  1
  V  V14  1  0.49682118  0.61986588  0.12140381  1
  V  V15  1  0.62380318  0.87639085  0.75926623  1
  V  V16  1  0.87308268  0.12387045  0.26496843  1
  V  V17  1  0.49855111  0.75381460  0.76108689  1
  V  V18  1  0.75260672  0.50539998  0.24856140  1
  V  V19  1  0.38012824  -0.00592278  0.87436235  1
  V  V20  1  0.25101434  0.75154767  0.49621211  1
  V  V21  1  0.81706147  0.44720191  0.81649813  1
  V  V22  1  0.62550913  0.87674410  0.25391869  1
  V  V23  1  0.12418794  0.87762775  0.74521879  1
  V  V24  1  0.49858432  0.75172487  0.25293437  1
  V  V25  1  -0.00509107  0.12372032  0.12484149  1
  V  V26  1  -0.00990089  0.00201226  0.48674554  1
  V  V27  1  0.64074392  0.24757731  0.38085909  1
  V  V28  1  0.36915423  0.37520558  0.50610699  1
  V  V29  1  0.61849381  0.49791569  0.12189633  1
  V  V30  1  0.37738845  0.49865226  0.37340171  1
  V  V31  1  0.63098851  0.13057084  -0.00708984  1
  V  V32  1  0.63820291  0.49445379  0.63023220  1
  V  V33  1  0.12893589  0.24888496  0.87313763  1
  V  V34  1  0.37306048  0.61892830  0.74986313  1
  V  V35  1  0.62343210  0.37403474  0.25241856  1
  V  V36  1  0.12067754  0.49686075  0.12921352  1
  V  V37  1  0.38358447  0.87273474  -0.00403680  1
  V  V38  1  0.64122477  0.12826346  0.50152056  1
  V  V39  1  0.87599059  0.75039693  0.62336306  1
  V  V40  1  -0.02011186  0.74836025  0.24100703  1
  V  V41  1  0.49710153  0.12350549  0.12497190  1
  V  V42  1  0.12958094  0.24767007  0.37418860  1
  V  V43  1  0.00058617  -0.00006934  0.00075765  1
  V  V44  1  0.00124420  0.11923522  0.62544915  1
  V  V45  1  0.14050512  0.49726313  0.62574334  1
  V  V46  1  0.32785244  0.92635778  0.45126097  1
  V  V47  1  0.11671869  0.75167278  0.36776715  1
  V  V48  1  0.24559157  0.37314048  0.12499280  1
  V  V49  1  -0.00457842  0.49716472  -0.00402422  1
  V  V50  1  0.37659478  0.75229782  0.62268232  1
  V  V51  1  0.24609095  0.00313331  0.74980073  1
  V  V52  1  0.50740583  0.25556537  0.75378309  1
  V  V53  1  0.87671187  0.50724265  0.36999044  1
  V  V54  1  0.37453723  0.24864023  0.12768063  1
  V  V55  1  0.62671695  0.62485557  0.50030696  1
  V  V56  1  0.50060178  0.24205385  0.25537663  1
  V  V57  1  0.00255228  0.25441652  0.24859487  1
  V  V58  1  0.00204283  0.62345501  0.62476281  1
  V  V59  1  0.86410299  0.37545908  0.49887148  1
  V  V60  1  0.13085759  0.12082179  0.50097663  1
  V  V61  1  0.75683271  0.87713027  0.12586712  1
  V  V62  1  0.24287421  0.88221365  0.12520447  1
  V  V63  1  0.25240418  0.88014670  0.62800638  1
  V  V64  1  0.00220185  0.49826617  0.49884877  1
  V  V65  1  0.50855852  0.37672753  0.88178093  1
  V  V66  1  0.00396544  0.24737951  0.74201980  1
  V  V67  1  0.14375325  0.37770935  0.74353458  1
  V  V68  1  0.74932947  0.36731986  0.12155246  1
  V  V69  1  0.62221166  0.63076702  -0.00109660  1
  V  V70  1  0.80622760  0.70570620  0.05501491  1
  V  V71  1  0.50123543  0.50072437  0.50299701  1
  V  V72  1  0.75467603  0.00440609  0.26397124  1
  V  V73  1  0.37638437  0.12802002  0.75357619  1
  V  V74  1  0.37367719  0.74840171  0.12334806  1
  V  V75  1  0.24829687  0.61640685  0.87157044  1
  V  V76  1  0.87089134  0.87858107  -0.00178760  1
  V  V77  1  0.62820574  0.00140406  0.12514773  1
  V  V78  1  0.87315925  0.01160965  0.85967844  1
  V  V79  1  0.75344026  0.63620033  0.86544061  1
  V  V80  1  0.12677372  0.12321791  0.00064366  1
  V  V81  1  0.24633614  0.49388371  0.24977969  1
  V  V82  1  0.24703622  0.75038512  -0.00172892  1
  V  V83  1  0.49766555  0.12902558  0.62072483  1
  V  V84  1  -0.00046595  0.87593177  0.87384785  1
  Zn  Zn85  1  0.73840279  0.11722597  0.83862365  1
  Zn  Zn86  1  0.32708174  0.05289756  0.29915853  1
  Zn  Zn87  1  0.36911476  0.26485041  0.63443970  1
  Zn  Zn88  1  0.24951764  0.25178272  0.50170853  1
  Zn  Zn89  1  0.75385401  0.62915874  0.37015080  1
  Zn  Zn90  1  0.50094721  0.37232742  0.37778617  1
  Zn  Zn91  1  0.87408093  0.61681264  0.74852329  1
  Zn  Zn92  1  0.25267108  0.12478128  0.87858516  1
  Zn  Zn93  1  0.62441833  0.76010572  0.88360897  1
  Zn  Zn94  1  0.37989466  0.37814198  0.00366485  1
  Zn  Zn95  1  -0.02005118  0.62439844  0.12500590  1
  Zn  Zn96  1  0.87356331  0.24949217  0.12076934  1
  Zn  Zn97  1  0.12506237  0.74981923  0.87356579  1
  Zn  Zn98  1  0.25341044  0.25010182  0.00061733  1
  Zn  Zn99  1  0.50502061  -0.00399535  -0.00518836  1
  Zn  Zn100  1  0.37310425  0.62695299  0.25039663  1
  Zn  Zn101  1  0.75256905  0.24851204  -0.01773762  1
  Zn  Zn102  1  0.87401591  0.37076203  -0.00434674  1
  Zn  Zn103  1  0.63486055  0.37848968  0.75027250  1
  Zn  Zn104  1  0.11656702  0.87861076  0.25342623  1
  Zn  Zn105  1  0.12892705  0.00685499  0.14216367  1
  Zn  Zn106  1  0.50261716  0.62580043  0.62911233  1
  Zn  Zn107  1  0.18588816  0.18290247  0.18880595  1
  Zn  Zn108  1  0.19027075  0.18987796  0.68165060  1
  Zn  Zn109  1  0.18551195  0.68653623  0.18648876  1
  Zn  Zn110  1  0.18869845  0.68878265  0.68628325  1
  Zn  Zn111  1  0.68668545  0.18508086  0.18968459  1
  Zn  Zn112  1  0.68269837  0.19456880  0.68343169  1
  Zn  Zn113  1  0.68099471  0.68587212  0.19169250  1
  Zn  Zn114  1  0.68446225  0.69021166  0.68736411  1
  Zn  Zn115  1  0.31164720  0.21178164  0.31377182  1
  Zn  Zn116  1  0.31731830  0.31280209  0.81697316  1
  Zn  Zn117  1  0.33582594  0.85365573  0.28857668  1
  Zn  Zn118  1  0.31209259  0.80875056  0.81322640  1
  Zn  Zn119  1  0.81744002  0.31634073  0.30952713  1
  Zn  Zn120  1  0.81079302  0.27737615  0.80178445  1
  Zn  Zn121  1  0.80889927  0.81566379  0.31501809  1
  Zn  Zn122  1  0.81384686  0.81430342  0.81221125  1
  Zn  Zn123  1  0.18808583  0.43633293  0.43447773  1
  Zn  Zn124  1  0.18789689  0.43742323  0.94020760  1
  Zn  Zn125  1  0.16104172  0.94697564  0.42506255  1
  Zn  Zn126  1  0.18888747  0.93841107  0.93492258  1
  Zn  Zn127  1  0.68700680  0.43949953  0.43477165  1
  Zn  Zn128  1  0.68132153  0.43922312  0.94260577  1
  Zn  Zn129  1  0.68749942  0.93826115  0.44433132  1
  Zn  Zn130  1  0.69435177  0.94472589  0.93769986  1
  Zn  Zn131  1  0.31447995  0.06203243  0.06282248  1
  Zn  Zn132  1  0.31184490  0.07011124  0.56832984  1
  Zn  Zn133  1  0.30976893  0.56224357  0.06157778  1
  Zn  Zn134  1  0.31507991  0.56687457  0.56033663  1
  Zn  Zn135  1  0.81399297  0.06031428  0.06352898  1
  Zn  Zn136  1  0.79717022  0.08099734  0.62815911  1
  Zn  Zn137  1  0.80406019  0.54092971  0.05157729  1
  Zn  Zn138  1  0.81495578  0.56364269  0.55963336  1
  Zn  Zn139  1  0.43474126  0.43329035  0.19128635  1
  Zn  Zn140  1  0.44230782  0.44274062  0.68938072  1
  Zn  Zn141  1  0.44155257  0.93685010  0.18066958  1
  Zn  Zn142  1  0.43863404  0.93765503  0.68643555  1
  Zn  Zn143  1  0.93555331  0.43622492  0.18564692  1
  Zn  Zn144  1  0.94993128  0.43082929  0.68037891  1
  Zn  Zn145  1  0.93974407  0.93819441  0.19250322  1
  Zn  Zn146  1  0.93877225  0.93584827  0.68096280  1
  Zn  Zn147  1  0.06338889  0.06529551  0.31245266  1
  Zn  Zn148  1  0.06124966  0.06306863  0.81238016  1
  Zn  Zn149  1  0.05758752  0.57003757  0.30681478  1
  Zn  Zn150  1  0.06635015  0.56020811  0.80893146  1
  Zn  Zn151  1  0.56686367  0.06611124  0.31676015  1
  Zn  Zn152  1  0.55712949  0.06122219  0.81169971  1
  Zn  Zn153  1  0.56262401  0.56638946  0.31278784  1
  Zn  Zn154  1  0.56275590  0.56226637  0.81284828  1
  Zn  Zn155  1  0.44337729  0.18380599  0.43668865  1
  Zn  Zn156  1  0.44259948  0.18942576  0.93984787  1
  Zn  Zn157  1  0.43680393  0.68840466  0.43745984  1
  Zn  Zn158  1  0.43794248  0.68475861  0.93824164  1
  Zn  Zn159  1  0.93925450  0.19050800  0.44119554  1
  Zn  Zn160  1  0.93839688  0.19077820  0.93644496  1
  Zn  Zn161  1  0.93876680  0.68929528  0.43651532  1
  Zn  Zn162  1  0.94056996  0.68375679  0.92957374  1
  Zn  Zn163  1  0.06246054  0.31124560  0.06102948  1
  Zn  Zn164  1  0.06494784  0.31408017  0.55964390  1
  Zn  Zn165  1  0.05693172  0.80967636  0.06581763  1
  Zn  Zn166  1  0.06434101  0.81689636  0.56010188  1
  Zn  Zn167  1  0.56230190  0.30890571  0.06151936  1
  Zn  Zn168  1  0.56292507  0.31400806  0.56315854  1
  Zn  Zn169  1  0.56524253  0.81032189  0.06780764  1
  Zn  Zn170  1  0.56113319  0.81252071  0.56937916  1
  O  O171  1  0.11396374  0.12443530  0.11710562  1
  O  O172  1  0.11540913  0.13029541  0.60945976  1
  O  O173  1  0.12593041  0.61710061  0.11104994  1
  O  O174  1  0.12105668  0.62037567  0.61961435  1
  O  O175  1  0.61694711  0.11805526  0.12012615  1
  O  O176  1  0.61180179  0.11883501  0.62149947  1
  O  O177  1  0.61720464  0.61867997  0.11971591  1
  O  O178  1  0.62507277  0.62015436  0.61365112  1
  O  O179  1  0.38045320  0.39322704  0.38784868  1
  O  O180  1  0.38319104  0.38358470  0.87980673  1
  O  O181  1  0.37264363  0.85458466  0.39941354  1
  O  O182  1  0.36744858  0.88059909  0.88450573  1
  O  O183  1  0.88516519  0.38418680  0.37986991  1
  O  O184  1  0.88067630  0.37959226  0.86725909  1
  O  O185  1  0.87130302  0.87340856  0.39127668  1
  O  O186  1  0.87953610  0.88288775  0.88125401  1
  O  O187  1  0.26590053  -0.02106957  0.38864994  1
  O  O188  1  0.26064008  0.00269571  0.86702495  1
  O  O189  1  0.25368695  0.50585797  0.36631306  1
  O  O190  1  0.25605453  0.51064872  0.87898539  1
  O  O191  1  0.74235792  -0.00310292  0.36263285  1
  O  O192  1  0.76831946  0.00773151  0.87592099  1
  O  O193  1  0.75791531  0.50116122  0.36505234  1
  O  O194  1  0.75673896  0.50578511  0.87740786  1
  O  O195  1  0.24133927  0.49600523  0.12866993  1
  O  O196  1  0.23930570  0.50744334  0.62143293  1
  O  O197  1  0.24784126  0.98557851  0.11864793  1
  O  O198  1  0.25709329  0.98921245  0.63455959  1
  O  O199  1  0.73984708  0.48765554  0.13076705  1
  O  O200  1  0.73663676  0.50454323  0.61994619  1
  O  O201  1  0.74454140  0.99379055  0.13352502  1
  O  O202  1  0.73718738  0.98444191  0.61908443  1
  O  O203  1  -0.00603372  0.36539895  0.25682661  1
  O  O204  1  0.01342601  0.36593970  0.75459493  1
  O  O205  1  0.00074182  0.85591117  0.24287547  1
  O  O206  1  0.00800432  0.86951178  0.75003396  1
  O  O207  1  0.51179715  0.36681450  0.24999689  1
  O  O208  1  0.49854932  0.36987048  0.76007396  1
  O  O209  1  0.51272545  0.85856743  0.23715000  1
  O  O210  1  0.50962034  0.86589290  0.74497937  1
  O  O211  1  0.50948089  0.13438171  0.24105933  1
  O  O212  1  0.49490947  0.13404212  0.74552968  1
  O  O213  1  0.49859922  0.63564647  0.24254958  1
  O  O214  1  0.49201638  0.63386809  0.75073873  1
  O  O215  1  0.98936031  0.13016837  0.24362191  1
  O  O216  1  1.01166842  0.13836012  0.74063226  1
  O  O217  1  0.99666404  0.63935179  0.24138395  1
  O  O218  1  0.99903154  0.63256391  0.74609210  1
  O  O219  1  0.37545618  0.25109561  0.01407551  1
  O  O220  1  0.38093971  0.27073275  0.49639975  1
  O  O221  1  0.36687431  0.75400523  0.00224370  1
  O  O222  1  0.36767182  0.74009619  0.51518134  1
  O  O223  1  0.87075412  0.25339672  0.00182118  1
  O  O224  1  0.88060452  0.26166607  0.50865300  1
  O  O225  1  0.87495181  0.75807567  -0.00520689  1
  O  O226  1  0.87273383  0.75692148  0.50553087  1
  O  O227  1  0.12353470  0.23940958  0.49251928  1
  O  O228  1  0.12470419  0.23948278  0.99115528  1
  O  O229  1  0.12782894  0.74542274  0.49092674  1
  O  O230  1  0.12871903  0.74131883  0.99737771  1
  O  O231  1  0.62131491  0.24181787  0.49357031  1
  O  O232  1  0.62643651  0.23339203  1.00187505  1
  O  O233  1  0.62660753  0.74490711  0.49676434  1
  O  O234  1  0.62333505  0.73778753  0.99992662  1
  O  O235  1  0.49572301  0.24226401  0.13110705  1
  O  O236  1  0.49348398  0.24409601  0.63178276  1
  O  O237  1  0.49614808  0.73761179  0.13054937  1
  O  O238  1  0.49095035  0.74696846  0.63396758  1
  O  O239  1  0.99974090  0.24343653  0.13241075  1
  O  O240  1  1.00165619  0.24449998  0.62892237  1
  O  O241  1  0.99476648  0.74309695  0.13459058  1
  O  O242  1  0.99820491  0.74479569  0.62962853  1
  O  O243  1  0.00534141  0.25915910  0.36898398  1
  O  O244  1  0.01073709  0.25871147  0.86642021  1
  O  O245  1  0.00999220  0.74141100  0.36283153  1
  O  O246  1  0.00194919  0.75659263  0.86438612  1
  O  O247  1  0.51107803  0.25225954  0.36636522  1
  O  O248  1  0.49600345  0.26565638  0.86842394  1
  O  O249  1  0.50800043  0.74472173  0.36621146  1
  O  O250  1  0.50221853  0.74811051  0.86535945  1
  O  O251  1  0.23358098  0.11803026  0.49999704  1
  O  O252  1  0.24079333  0.12738751  1.00045615  1
  O  O253  1  0.24311407  0.63012709  0.49208691  1
  O  O254  1  0.24178910  0.63077211  0.99303658  1
  O  O255  1  0.73725018  0.11875674  0.52160894  1
  O  O256  1  0.73425710  0.12436585  1.01123277  1
  O  O257  1  0.74304986  0.63321539  0.49725867  1
  O  O258  1  0.74669978  0.63133887  0.99455471  1
  O  O259  1  0.25245838  0.37367199  0.01244256  1
  O  O260  1  0.26690579  0.38037566  0.49801315  1
  O  O261  1  0.25376746  0.86609459  0.00382721  1
  O  O262  1  0.25018758  0.87677120  0.50777548  1
  O  O263  1  0.74898121  0.37162604  0.00636640  1
  O  O264  1  0.76503817  0.38195832  0.49440689  1
  O  O265  1  0.76240804  0.87812105  0.00659745  1
  O  O266  1  0.75637539  0.86929620  0.50863622  1
  O  O267  1  0.12903423  0.50765667  0.23642089  1
  O  O268  1  0.12376916  0.49000637  0.73842344  1
  O  O269  1  0.12266801  0.99202264  0.25502971  1
  O  O270  1  0.13784786  0.99388174  0.75519484  1
  O  O271  1  0.62770428  0.49344402  0.24215687  1
  O  O272  1  0.62381865  0.50163108  0.73406559  1
  O  O273  1  0.63070047  0.99804376  0.24161853  1
  O  O274  1  0.61671977  0.99273615  0.73976660  1
  O  O275  1  0.37200538  -0.04037723  0.26172571  1
  O  O276  1  0.36804822  0.00513642  0.75596876  1
  O  O277  1  0.36703807  0.50183118  0.25805424  1
  O  O278  1  0.37899811  0.51377733  0.75914717  1
  O  O279  1  0.86981712  0.01403615  0.24901477  1
  O  O280  1  0.88097174  -0.00555903  0.76140685  1
  O  O281  1  0.86477999  0.49446447  0.25708678  1
  O  O282  1  0.87659889  0.49621833  0.74844305  1
  O  O283  1  0.11171153  0.36964780  0.37888331  1
  O  O284  1  0.12232209  0.36911226  0.86831521  1
  O  O285  1  0.12321286  0.85514553  0.37390222  1
  O  O286  1  0.11942717  0.87366832  0.86370909  1
  O  O287  1  0.62236701  0.37108287  0.36718015  1
  O  O288  1  0.61231205  0.38386217  0.87006650  1
  O  O289  1  0.62845918  0.86394706  0.37242974  1
  O  O290  1  0.63264559  0.87935289  0.86401467  1
  O  O291  1  0.38915005  0.12953968  0.12080225  1
  O  O292  1  0.38590632  0.12166251  0.63886543  1
  O  O293  1  0.38084579  0.62979540  0.12521894  1
  O  O294  1  0.37466839  0.63239165  0.63530575  1
  O  O295  1  0.88628111  0.12638186  0.12788226  1
  O  O296  1  0.88941490  0.14590381  0.61667954  1
  O  O297  1  0.86044033  0.63098871  0.10457942  1
  O  O298  1  0.88221486  0.63132865  0.62756239  1
  O  O299  1  0.25650394  0.25841175  0.12653434  1
  O  O300  1  0.26145264  0.24035656  0.61374666  1
  O  O301  1  0.25184631  0.75090867  0.11106867  1
  O  O302  1  0.25476313  0.76031583  0.61841680  1
  O  O303  1  0.74687379  0.26163685  0.12743146  1
  O  O304  1  0.76749646  0.25665206  0.62757605  1
  O  O305  1  0.74718171  0.75743743  0.12654866  1
  O  O306  1  0.75395472  0.75711668  0.61914138  1
  O  O307  1  0.23245940  0.26308925  0.38104568  1
  O  O308  1  0.23991738  0.24841011  0.87790756  1
  O  O309  1  0.23674438  0.73976189  0.38014799  1
  O  O310  1  0.24798061  0.74051856  0.88530088  1
  O  O311  1  0.73940829  0.25715183  0.36925190  1
  O  O312  1  0.74773739  0.22582302  0.87118825  1
  O  O313  1  0.74026995  0.74826376  0.38168135  1
  O  O314  1  0.74546516  0.73947141  0.87293263  1
  O  O315  1  0.00612409  0.12207744  0.00714317  1
  O  O316  1  0.00333416  0.11674338  0.50563794  1
  O  O317  1  0.00546394  0.61658110  -0.00094435  1
  O  O318  1  0.00619613  0.61896408  0.50397934  1
  O  O319  1  0.51225837  0.12142676  0.00707352  1
  O  O320  1  0.50489609  0.11657097  0.50980171  1
  O  O321  1  0.50804674  0.62590707  0.00901413  1
  O  O322  1  0.50760984  0.61651240  0.50144047  1
  O  O323  1  0.49582603  0.38873761  0.49853840  1
  O  O324  1  0.50139185  0.37287334  0.98667852  1
  O  O325  1  0.50586044  0.89139029  0.50664930  1
  O  O326  1  0.48723727  0.87346107  1.00813362  1
  O  O327  1  0.99580574  0.38303733  0.49010267  1
  O  O328  1  1.00123199  0.37923645  0.98742022  1
  O  O329  1  0.99382630  0.89214805  0.50903614  1
  O  O330  1  0.99000883  0.87839326  0.99618669  1
  O  O331  1  0.49331663  0.50299166  0.38146467  1
  O  O332  1  0.49273992  0.48818917  0.87099640  1
  O  O333  1  0.50731193  1.00128547  0.39127465  1
  O  O334  1  0.48504365  0.99860164  0.87587844  1
  O  O335  1  0.99574107  0.49559309  0.37514426  1
  O  O336  1  1.00838093  0.48738337  0.87933567  1
  O  O337  1  0.99548772  1.00333783  0.38807615  1
  O  O338  1  0.99368336  0.99359757  0.87979197  1
  O  O339  1  0.00262591  0.00784593  0.11872245  1
  O  O340  1  -0.00369332  0.01659538  0.62457224  1
  O  O341  1  0.00453972  0.50274197  0.11755633  1
  O  O342  1  0.00905532  0.50730582  0.61696548  1
  O  O343  1  0.50942644  0.00681242  0.12220544  1
  O  O344  1  0.50573144  0.00772545  0.61958521  1
  O  O345  1  0.50409359  0.51065575  0.13344499  1
  O  O346  1  0.50976318  0.50627267  0.61686329  1
  O  O347  1  0.24886139  0.39141393  0.23644680  1
  O  O348  1  0.24263203  0.37187126  0.75258791  1
  O  O349  1  0.23895174  0.85837547  0.22561823  1
  O  O350  1  0.24382470  0.87935095  0.74585775  1
  O  O351  1  0.73899532  0.38272134  0.24387408  1
  O  O352  1  0.75688043  0.38230899  0.76585174  1
  O  O353  1  0.74598577  0.88273821  0.24350034  1
  O  O354  1  0.74083103  0.86747999  0.74024925  1
  O  O355  1  0.25997013  0.13063830  0.25031323  1
  O  O356  1  0.25773117  0.11765149  0.75089477  1
  O  O357  1  0.25145007  0.61597814  0.25367677  1
  O  O358  1  0.25832756  0.63416365  0.76153531  1
  O  O359  1  0.76520080  0.11936990  0.24431343  1
  O  O360  1  0.74987964  0.11778585  0.72608589  1
  O  O361  1  0.74247711  0.60950481  0.25027946  1
  O  O362  1  0.74980539  0.62737069  0.76187012  1
  O  O363  1  0.37277788  0.13354480  0.36877914  1
  O  O364  1  0.37618937  0.11965434  0.86670367  1
  O  O365  1  0.36659421  0.61633074  0.37475846  1
  O  O366  1  0.36832197  0.61926787  0.87056656  1
  O  O367  1  0.87763050  0.13078680  0.36312426  1
  O  O368  1  0.88664558  0.11204070  0.87023855  1
  O  O369  1  0.87377446  0.61091917  0.38067612  1
  O  O370  1  0.85901345  0.62695184  0.87042947  1
  O  O371  1  0.13124057  0.38485647  0.11982943  1
  O  O372  1  0.12391034  0.38444399  0.63118706  1
  O  O373  1  0.13575438  0.87799673  0.11528694  1
  O  O374  1  0.13477840  0.87126584  0.63738399  1
  O  O375  1  0.62627644  0.38124698  0.13005671  1
  O  O376  1  0.62515726  0.39011337  0.62610225  1
  O  O377  1  0.63677567  0.88193031  0.12925515  1
  O  O378  1  0.63097660  0.88125991  0.63414866  1
  O  O379  1  0.10992185  0.24205226  0.25850795  1
  O  O380  1  0.12407484  0.25598397  0.75517383  1
  O  O381  1  0.12021998  0.74741881  0.25981011  1
  O  O382  1  0.11543096  0.75676454  0.75033145  1
  O  O383  1  0.62030619  0.25614300  0.25614273  1
  O  O384  1  0.61162362  0.25995970  0.74306680  1
  O  O385  1  0.61987222  0.75411862  0.26104119  1
  O  O386  1  0.61519126  0.75819207  0.75262593  1
  O  O387  1  0.38944388  0.25774373  0.23706162  1
  O  O388  1  0.38410585  0.24263043  0.75196118  1
  O  O389  1  0.38332293  0.75299451  0.24193794  1
  O  O390  1  0.38036802  0.74288247  0.74461666  1
  O  O391  1  0.88323686  0.24035315  0.24704791  1
  O  O392  1  0.89261328  0.25978860  0.73018132  1
  O  O393  1  0.88134357  0.75008637  0.25463345  1
  O  O394  1  0.88791848  0.75187308  0.74329771  1
  O  O395  1  0.38366082  0.49877261  0.49561583  1
  O  O396  1  0.37369719  0.50193638  0.98721084  1
  O  O397  1  0.38537012  0.99695494  0.50482354  1
  O  O398  1  0.37603226  0.99038452  0.99215627  1
  O  O399  1  0.88298117  0.49472402  0.49248699  1
  O  O400  1  0.89081613  0.49177721  0.99782685  1
  O  O401  1  0.88718325  0.99445317  0.50666160  1
  O  O402  1  0.88232248  0.99438850  0.99308883  1
  O  O403  1  0.11910929  0.01194984  -0.00427577  1
  O  O404  1  0.10961352  0.01214288  0.49948181  1
  O  O405  1  0.11528534  0.50474873  0.00712440  1
  O  O406  1  0.12105333  0.50442399  0.50422866  1
  O  O407  1  0.62557496  0.00359504  0.01234155  1
  O  O408  1  0.61672264  0.00579756  0.51031484  1
  O  O409  1  0.62944004  0.51235321  0.01552837  1
  O  O410  1  0.62019923  0.50714084  0.50434117  1
  O  O411  1  0.36764877  0.36837504  0.12285328  1
  O  O412  1  0.38156390  0.38230547  0.61046041  1
  O  O413  1  0.36192761  0.86692987  0.11336332  1
  O  O414  1  0.36550120  0.86459370  0.63177033  1
  O  O415  1  0.86293769  0.37286727  0.12219505  1
  O  O416  1  0.88517411  0.36574641  0.61134400  1
  O  O417  1  0.86383472  0.88158934  0.11786950  1
  O  O418  1  0.86646760  0.86930452  0.61975604  1
  O  O419  1  0.11541305  0.13526394  0.38979455  1
  O  O420  1  0.12573191  0.13332059  0.88120776  1
  O  O421  1  0.12826769  0.63130281  0.37931192  1
  O  O422  1  0.13135648  0.62355985  0.88390761  1
  O  O423  1  0.62810917  0.13443597  0.38809122  1
  O  O424  1  0.62524406  0.10973601  0.89078813  1
  O  O425  1  0.62693871  0.63320280  0.38653537  1
  O  O426  1  0.63779012  0.62173177  0.88383382  1
