# generated using pymatgen
data_V85Zn86O256
_symmetry_space_group_name_H-M   'P 1'
_cell_length_a   16.92471066
_cell_length_b   16.92860040
_cell_length_c   16.91883114
_cell_angle_alpha   89.99636934
_cell_angle_beta   89.95996938
_cell_angle_gamma   89.93913792
_symmetry_Int_Tables_number   1
_chemical_formula_structural   V85Zn86O256
_chemical_formula_sum   'V85 Zn86 O256'
_cell_volume   4847.43852976
_cell_formula_units_Z   1
loop_
 _symmetry_equiv_pos_site_id
 _symmetry_equiv_pos_as_xyz
  1  'x, y, z'
loop_
 _atom_site_type_symbol
 _atom_site_label
 _atom_site_symmetry_multiplicity
 _atom_site_fract_x
 _atom_site_fract_y
 _atom_site_fract_z
 _atom_site_occupancy
  V  V0  1  0.13319772  0.12760873  0.00229496  1
  V  V1  1  0.13276891  0.74222786  0.87847220  1
  V  V2  1  -0.00423766  0.12325089  0.62655903  1
  V  V3  1  0.12466145  0.37943735  0.75022587  1
  V  V4  1  0.24012422  0.74738313  0.50080354  1
  V  V5  1  0.62612325  0.62685617  0.50704246  1
  V  V6  1  0.75709804  0.75787628  0.00130781  1
  V  V7  1  0.12088595  0.25529359  0.37331521  1
  V  V8  1  0.25014983  0.12634359  0.37569894  1
  V  V9  1  0.63030982  0.00020009  0.11904133  1
  V  V10  1  0.24794572  0.37737895  0.62630820  1
  V  V11  1  0.25843364  0.74498301  -0.00091530  1
  V  V12  1  0.74567459  0.50292730  0.23483540  1
  V  V13  1  0.86432163  0.25385372  0.62741612  1
  V  V14  1  0.86960517  0.38330368  0.50607741  1
  V  V15  1  0.37414416  0.51076166  0.87032669  1
  V  V16  1  0.87706056  0.61944646  0.75784432  1
  V  V17  1  0.74883492  0.00161089  0.75559707  1
  V  V18  1  0.62609956  0.25099073  0.37424494  1
  V  V19  1  0.87980432  0.88185376  0.48535567  1
  V  V20  1  0.24852474  0.00027503  0.75666750  1
  V  V21  1  0.37704085  0.12440215  0.24995313  1
  V  V22  1  0.37660218  0.37542341  0.49928760  1
  V  V23  1  0.63191925  0.37199296  0.74244881  1
  V  V24  1  0.75261704  0.74628194  0.49290115  1
  V  V25  1  0.36954761  0.37129293  -0.00309264  1
  V  V26  1  -0.00199861  0.38946209  0.37958927  1
  V  V27  1  0.62537400  0.87586885  0.24836890  1
  V  V28  1  0.24275771  0.50116398  0.24426769  1
  V  V29  1  0.62669831  0.12182075  0.49854562  1
  V  V30  1  0.87158505  0.12526507  0.76288218  1
  V  V31  1  0.49971631  0.72921551  0.74659663  1
  V  V32  1  0.25194734  0.51464672  0.75201242  1
  V  V33  1  0.75978220  0.12470945  0.37641664  1
  V  V34  1  0.50354719  0.38083426  0.37428506  1
  V  V35  1  0.75585505  -0.00292230  0.25310916  1
  V  V36  1  0.12277759  -0.00042279  0.62679996  1
  V  V37  1  0.37912766  0.73534577  0.62829451  1
  V  V38  1  0.87391172  0.76308760  0.12688287  1
  V  V39  1  0.49795136  0.24737259  0.75111001  1
  V  V40  1  0.50576467  0.12361849  0.11569931  1
  V  V41  1  0.37620669  0.87112794  0.50248891  1
  V  V42  1  -0.00551818  0.38338053  0.87637449  1
  V  V43  1  0.13129806  0.25293591  0.87992641  1
  V  V44  1  0.25048736  0.87382914  0.62744917  1
  V  V45  1  0.86367717  0.50704532  0.38035750  1
  V  V46  1  0.62953227  0.37872628  0.23694587  1
  V  V47  1  0.00174293  0.62403400  0.13150680  1
  V  V48  1  0.00010586  0.13075380  0.12513500  1
  V  V49  1  0.37559868  0.50284647  0.37327114  1
  V  V50  1  0.12351140  0.50512902  0.61257338  1
  V  V51  1  0.50079507  0.25098404  0.24904836  1
  V  V52  1  0.24214736  0.37507140  0.12205597  1
  V  V53  1  0.87713201  -0.01159408  0.88379411  1
  V  V54  1  0.49823741  0.12101541  0.62413166  1
  V  V55  1  -0.00091806  0.25200267  0.75220217  1
  V  V56  1  0.86036525  0.38205665  -0.00125150  1
  V  V57  1  0.50636880  0.50432565  0.01061616  1
  V  V58  1  -0.00246896  0.49964004  0.00677009  1
  V  V59  1  0.86818341  0.25705749  0.12633691  1
  V  V60  1  0.00145028  0.62433749  0.61172947  1
  V  V61  1  0.62394577  0.73821815  0.37230941  1
  V  V62  1  0.62633592  0.23570036  0.87917879  1
  V  V63  1  0.25410668  0.86576783  0.12845654  1
  V  V64  1  0.12186068  0.87457339  0.75714236  1
  V  V65  1  0.50088293  0.50684473  0.50741629  1
  V  V66  1  0.62225118  0.87010193  0.74925625  1
  V  V67  1  0.87247865  0.62650342  0.25092871  1
  V  V68  1  0.24607595  0.62577979  0.37697597  1
  V  V69  1  0.74492317  0.23515127  0.00015804  1
  V  V70  1  0.12262615  0.12488192  0.50115779  1
  V  V71  1  0.13026443  0.61916455  0.00200645  1
  V  V72  1  0.37559143  -0.00250038  0.37505636  1
  V  V73  1  0.24356797  -0.00442795  0.24810077  1
  V  V74  1  0.37252690  0.24853864  0.62529096  1
  V  V75  1  0.24831706  0.25133473  0.50066789  1
  V  V76  1  0.12065549  0.75460056  0.35687753  1
  V  V77  1  0.75360302  0.87444552  0.62325004  1
  V  V78  1  0.37509964  -0.00376288  0.88097381  1
  V  V79  1  0.36881983  0.24698400  0.12030507  1
  V  V80  1  0.62889337  0.74204117  0.87661862  1
  V  V81  1  -0.00054901  0.75140055  0.75310631  1
  V  V82  1  0.49704537  0.74658186  0.23581546  1
  V  V83  1  0.50066478  0.37308530  0.87492683  1
  V  V84  1  0.37722922  0.62720954  0.23623264  1
  Zn  Zn85  1  0.01902247  0.88605944  0.33080570  1
  Zn  Zn86  1  0.50078124  -0.00302818  0.49954023  1
  Zn  Zn87  1  0.38231446  0.86630600  0.00414694  1
  Zn  Zn88  1  0.00010836  -0.00127744  0.00526366  1
  Zn  Zn89  1  -0.00190503  0.86058856  0.91081125  1
  Zn  Zn90  1  0.50004707  0.87063207  0.87744706  1
  Zn  Zn91  1  0.75722523  0.61292900  0.88138796  1
  Zn  Zn92  1  0.87669860  0.12892451  0.25334858  1
  Zn  Zn93  1  -0.00719377  0.25669626  0.25233847  1
  Zn  Zn94  1  0.75934557  0.49193849  0.74842125  1
  Zn  Zn95  1  0.87706288  0.74994845  0.62338809  1
  Zn  Zn96  1  -0.00477448  0.00115493  0.48518463  1
  Zn  Zn97  1  0.74718983  0.25568725  0.50338151  1
  Zn  Zn98  1  0.50690169  -0.00391678  -0.00296926  1
  Zn  Zn99  1  0.62492852  -0.00170568  0.62511876  1
  Zn  Zn100  1  0.37271434  0.12273202  0.75183829  1
  Zn  Zn101  1  0.63046337  0.50075105  0.62605383  1
  Zn  Zn102  1  0.50023823  0.87146067  0.37480959  1
  Zn  Zn103  1  0.63035171  0.62309723  0.01504166  1
  Zn  Zn104  1  0.12335994  -0.00234881  0.12566236  1
  Zn  Zn105  1  0.25267805  0.12923012  0.88028202  1
  Zn  Zn106  1  0.11799871  0.38138292  0.24439822  1
  Zn  Zn107  1  0.18720977  0.18839767  0.19052754  1
  Zn  Zn108  1  0.18477023  0.18756673  0.69128413  1
  Zn  Zn109  1  0.19005350  0.68422452  0.18145938  1
  Zn  Zn110  1  0.18437635  0.68853410  0.68543703  1
  Zn  Zn111  1  0.68885403  0.18695057  0.18730639  1
  Zn  Zn112  1  0.68529313  0.18405323  0.69140611  1
  Zn  Zn113  1  0.69327527  0.68981728  0.18721539  1
  Zn  Zn114  1  0.69228985  0.68642288  0.68441422  1
  Zn  Zn115  1  0.31159258  0.31413417  0.30994747  1
  Zn  Zn116  1  0.31192789  0.31650263  0.80963686  1
  Zn  Zn117  1  0.31372684  0.81057672  0.31200828  1
  Zn  Zn118  1  0.31561938  0.80967152  0.81325578  1
  Zn  Zn119  1  0.80989988  0.31830200  0.31525915  1
  Zn  Zn120  1  0.81091915  0.30999587  0.81995539  1
  Zn  Zn121  1  0.81235719  0.81268246  0.31091837  1
  Zn  Zn122  1  0.81238016  0.80972667  0.81328486  1
  Zn  Zn123  1  0.18884127  0.43840552  0.43500723  1
  Zn  Zn124  1  0.18762809  0.44121784  0.93690859  1
  Zn  Zn125  1  0.18512398  0.93612750  0.43780793  1
  Zn  Zn126  1  0.18394072  0.93216256  0.94534107  1
  Zn  Zn127  1  0.68828953  0.44175160  0.43575693  1
  Zn  Zn128  1  0.68663485  0.43692100  0.92835808  1
  Zn  Zn129  1  0.68782011  0.93562999  0.43360894  1
  Zn  Zn130  1  0.68893782  0.93372848  0.93468923  1
  Zn  Zn131  1  0.31186531  0.06073472  0.06288417  1
  Zn  Zn132  1  0.31071215  0.05977994  0.56319862  1
  Zn  Zn133  1  0.31436707  0.55733742  0.05890184  1
  Zn  Zn134  1  0.30947612  0.56207387  0.56052216  1
  Zn  Zn135  1  0.81223276  0.06489086  0.06748088  1
  Zn  Zn136  1  0.81213281  0.06110387  0.56563736  1
  Zn  Zn137  1  0.81274797  0.56732337  0.06101865  1
  Zn  Zn138  1  0.81003249  0.56275504  0.57017934  1
  Zn  Zn139  1  0.42931124  0.43320833  0.18824758  1
  Zn  Zn140  1  0.43918864  0.43805859  0.68877515  1
  Zn  Zn141  1  0.43826956  0.93534502  0.18508060  1
  Zn  Zn142  1  0.43587919  0.93433423  0.69010293  1
  Zn  Zn143  1  0.93394257  0.43895651  0.18793954  1
  Zn  Zn144  1  0.94013799  0.44121697  0.68349425  1
  Zn  Zn145  1  0.93250853  0.94512678  0.18535533  1
  Zn  Zn146  1  0.93532304  0.93710782  0.68923727  1
  Zn  Zn147  1  0.05855097  0.06811628  0.31131732  1
  Zn  Zn148  1  0.05914593  0.06298072  0.81895701  1
  Zn  Zn149  1  0.06242524  0.56763972  0.31632492  1
  Zn  Zn150  1  0.06195479  0.56360420  0.81199448  1
  Zn  Zn151  1  0.56366674  0.06180683  0.31092275  1
  Zn  Zn152  1  0.55947069  0.05832034  0.81085233  1
  Zn  Zn153  1  0.56092975  0.56213070  0.19031360  1
  Zn  Zn154  1  0.56713771  0.55665242  0.81743102  1
  Zn  Zn155  1  0.43907193  0.18799756  0.43793255  1
  Zn  Zn156  1  0.43465030  0.18429530  0.93729739  1
  Zn  Zn157  1  0.43794141  0.68687547  0.43256392  1
  Zn  Zn158  1  0.44382467  0.68508188  0.93544603  1
  Zn  Zn159  1  0.93838614  0.19510045  0.44249285  1
  Zn  Zn160  1  0.94012401  0.19140336  0.94144156  1
  Zn  Zn161  1  0.93876777  0.69479182  0.43219535  1
  Zn  Zn162  1  0.94061730  0.68689239  0.94196843  1
  Zn  Zn163  1  0.05831456  0.31171475  0.05960523  1
  Zn  Zn164  1  0.05584032  0.31546040  0.56184395  1
  Zn  Zn165  1  0.04368556  0.83492521  0.11688608  1
  Zn  Zn166  1  0.06081206  0.81269290  0.56439836  1
  Zn  Zn167  1  0.55957104  0.31106467  0.05939875  1
  Zn  Zn168  1  0.56058597  0.30819007  0.56141140  1
  Zn  Zn169  1  0.57014194  0.81476744  0.06110378  1
  Zn  Zn170  1  0.56195452  0.80978390  0.56441056  1
  O  O171  1  0.11825242  0.13146243  0.11851486  1
  O  O172  1  0.11572615  0.12198588  0.62139584  1
  O  O173  1  0.11295161  0.63029607  0.11588357  1
  O  O174  1  0.11219698  0.61894244  0.62788778  1
  O  O175  1  0.61533965  0.11589188  0.13254587  1
  O  O176  1  0.61695030  0.12320070  0.61730695  1
  O  O177  1  0.62646267  0.62476583  0.12749364  1
  O  O178  1  0.62421568  0.62747885  0.61160300  1
  O  O179  1  0.38147021  0.37964372  0.37962800  1
  O  O180  1  0.38359866  0.37533868  0.88095158  1
  O  O181  1  0.37495984  0.88135906  0.38377752  1
  O  O182  1  0.37800830  0.88235538  0.87766520  1
  O  O183  1  0.88035991  0.38650429  0.38221989  1
  O  O184  1  0.88467434  0.36996436  0.88493092  1
  O  O185  1  0.88039126  0.87185227  0.38442480  1
  O  O186  1  0.88133351  0.88474161  0.87231903  1
  O  O187  1  0.25892021  0.00351260  0.37038641  1
  O  O188  1  0.25450596  -0.00096146  0.87044071  1
  O  O189  1  0.25510109  0.50759544  0.36900573  1
  O  O190  1  0.26548353  0.49386524  0.86752859  1
  O  O191  1  0.74367001  0.01030241  0.36288943  1
  O  O192  1  0.76112124  -0.00813229  0.86372625  1
  O  O193  1  0.76148553  0.50183906  0.36829932  1
  O  O194  1  0.74412815  0.50230292  0.86020875  1
  O  O195  1  0.25588747  0.48808173  0.13289836  1
  O  O196  1  0.24476903  0.49646233  0.63203449  1
  O  O197  1  0.25143775  0.99422164  0.13466905  1
  O  O198  1  0.24389071  0.99370712  0.63412942  1
  O  O199  1  0.75600955  0.49731928  0.13660847  1
  O  O200  1  0.74412085  0.50234846  0.63680614  1
  O  O201  1  0.74232565  1.00933746  0.14091334  1
  O  O202  1  0.74951645  0.99265805  0.63779908  1
  O  O203  1  0.00072646  0.37578935  0.26047095  1
  O  O204  1  0.00385921  0.37374122  0.75795094  1
  O  O205  1  0.00458339  0.86938728  0.22202147  1
  O  O206  1  0.00555971  0.86169196  0.74476275  1
  O  O207  1  0.50421291  0.37221529  0.25769619  1
  O  O208  1  0.50255677  0.36511496  0.75759893  1
  O  O209  1  0.50514122  0.86422108  0.25167853  1
  O  O210  1  0.51522432  0.87118094  0.74753486  1
  O  O211  1  0.49448783  0.13183378  0.24459793  1
  O  O212  1  0.49768258  0.12925870  0.74009828  1
  O  O213  1  0.49227490  0.63637158  0.25032866  1
  O  O214  1  0.50615410  0.63024756  0.74979696  1
  O  O215  1  0.99684688  0.13674083  0.24261252  1
  O  O216  1  0.99258378  0.13044400  0.74528809  1
  O  O217  1  0.99297587  0.61704403  0.23846445  1
  O  O218  1  0.99443283  0.63468432  0.74589537  1
  O  O219  1  0.37818337  0.25819397  0.00803125  1
  O  O220  1  0.36902924  0.25488653  0.50522959  1
  O  O221  1  0.36272222  0.74376696  -0.00940097  1
  O  O222  1  0.36916225  0.75593093  0.50532574  1
  O  O223  1  0.86197461  0.25638270  0.00357044  1
  O  O224  1  0.87137106  0.25868253  0.51237667  1
  O  O225  1  0.86549923  0.74504365  0.00933211  1
  O  O226  1  0.86828910  0.76079961  0.49940283  1
  O  O227  1  0.12749653  0.24748107  0.49236035  1
  O  O228  1  0.12065151  0.24439383  0.98923353  1
  O  O229  1  0.13830091  0.75583710  0.49894225  1
  O  O230  1  0.13805931  0.73651962  0.99098622  1
  O  O231  1  0.62647120  0.23913971  0.49486615  1
  O  O232  1  0.63616701  0.25417294  0.99444022  1
  O  O233  1  0.63064451  0.74705121  0.49408591  1
  O  O234  1  0.63605089  0.74705655  0.99284246  1
  O  O235  1  0.49097178  0.24332413  0.12895163  1
  O  O236  1  0.49342406  0.23809552  0.62837541  1
  O  O237  1  0.50397275  0.75299295  0.13742032  1
  O  O238  1  0.49084005  0.75211000  0.63407638  1
  O  O239  1  0.98989224  0.24594488  0.12596450  1
  O  O240  1  0.99302650  0.24011272  0.63186389  1
  O  O241  1  0.98024164  0.73585830  0.11818757  1
  O  O242  1  1.00258412  0.73929374  0.63372005  1
  O  O243  1  0.00669073  0.26145595  0.37552551  1
  O  O244  1  0.00767359  0.26088073  0.87054735  1
  O  O245  1  0.01874507  0.75393244  0.37366303  1
  O  O246  1  0.00913584  0.75065292  0.87022170  1
  O  O247  1  0.50441392  0.26014679  0.37070846  1
  O  O248  1  0.50376645  0.25449644  0.87259071  1
  O  O249  1  0.50921806  0.75146513  0.36645800  1
  O  O250  1  0.50912131  0.74939312  0.86461182  1
  O  O251  1  0.24334997  0.13092068  0.49583501  1
  O  O252  1  0.23808764  0.12753851  1.00146838  1
  O  O253  1  0.25497853  0.63459323  0.48910287  1
  O  O254  1  0.24107720  0.62873524  1.00852199  1
  O  O255  1  0.74266570  0.12512075  0.49496064  1
  O  O256  1  0.74988651  0.13677904  0.99969763  1
  O  O257  1  0.74431926  0.63740578  0.50300282  1
  O  O258  1  0.74830230  0.63381962  0.99643877  1
  O  O259  1  0.26123252  0.38100475  0.00603619  1
  O  O260  1  0.25634796  0.37088833  0.50553512  1
  O  O261  1  0.25480066  0.86274506  0.00864336  1
  O  O262  1  0.25954802  0.86833900  0.50518937  1
  O  O263  1  0.75845400  0.37160115  -0.00477600  1
  O  O264  1  0.76351517  0.37363748  0.49451686  1
  O  O265  1  0.74975053  0.85717824  -0.00403656  1
  O  O266  1  0.75985896  0.87234259  0.50432031  1
  O  O267  1  0.13907456  0.50036919  0.25593471  1
  O  O268  1  0.13307824  0.49603997  0.74515809  1
  O  O269  1  0.14170405  1.01032118  0.24892198  1
  O  O270  1  0.12868493  0.99548593  0.74874683  1
  O  O271  1  0.63708966  0.49442150  0.25024322  1
  O  O272  1  0.61449913  0.47852095  0.74715367  1
  O  O273  1  0.63104793  0.99342654  0.24517921  1
  O  O274  1  0.63314849  0.99047639  0.75012633  1
  O  O275  1  0.36956741  0.00524020  0.25821334  1
  O  O276  1  0.36515819  -0.00179476  0.75941542  1
  O  O277  1  0.36766124  0.50614346  0.25633490  1
  O  O278  1  0.36911976  0.49343271  0.76211231  1
  O  O279  1  0.85923705  0.00793657  0.24784078  1
  O  O280  1  0.86969428  0.00619446  0.75963589  1
  O  O281  1  0.86396890  0.50508622  0.25626246  1
  O  O282  1  0.88221656  0.51603819  0.74878055  1
  O  O283  1  0.11543842  0.37159875  0.37739873  1
  O  O284  1  0.11887150  0.37047389  0.87115409  1
  O  O285  1  0.13195136  0.85932773  0.37273312  1
  O  O286  1  0.12031673  0.86494734  0.87146777  1
  O  O287  1  0.61777071  0.37101918  0.37010506  1
  O  O288  1  0.61196315  0.36458740  0.86724216  1
  O  O289  1  0.62112191  0.86952963  0.36448497  1
  O  O290  1  0.62661982  0.86119188  0.86516632  1
  O  O291  1  0.38063383  0.13077543  0.12957159  1
  O  O292  1  0.38091474  0.12945389  0.62516230  1
  O  O293  1  0.37194547  0.61978307  0.13702907  1
  O  O294  1  0.37230408  0.63630481  0.62101848  1
  O  O295  1  0.88132085  0.13957768  0.12483719  1
  O  O296  1  0.88067734  0.13108355  0.63360923  1
  O  O297  1  0.88159829  0.62577537  0.13663234  1
  O  O298  1  0.88922332  0.62862223  0.63326029  1
  O  O299  1  0.26313770  0.25639847  0.13261220  1
  O  O300  1  0.25167331  0.25532990  0.62042421  1
  O  O301  1  0.25256062  0.75829531  0.11821115  1
  O  O302  1  0.25560396  0.75475913  0.61940855  1
  O  O303  1  0.75389453  0.24857807  0.11211736  1
  O  O304  1  0.76162570  0.24488927  0.62716902  1
  O  O305  1  0.76210715  0.74667920  0.11251835  1
  O  O306  1  0.75222651  0.75871000  0.61251520  1
  O  O307  1  0.24362461  0.24873746  0.38207338  1
  O  O308  1  0.23553254  0.25014436  0.86562904  1
  O  O309  1  0.24544610  0.74380470  0.38125684  1
  O  O310  1  0.24084981  0.75224382  0.88055304  1
  O  O311  1  0.74141235  0.24312300  0.37685810  1
  O  O312  1  0.74034856  0.25043571  0.88909415  1
  O  O313  1  0.74054950  0.75869288  0.38532416  1
  O  O314  1  0.74713550  0.74503058  0.88403115  1
  O  O315  1  0.00915071  0.12569770  0.00789716  1
  O  O316  1  0.00330725  0.12304122  0.50890137  1
  O  O317  1  0.00477286  0.61562937  0.00785795  1
  O  O318  1  -0.00289029  0.63351841  0.51349345  1
  O  O319  1  0.49819462  0.12129513  0.01261804  1
  O  O320  1  0.50714797  0.12285586  0.50665127  1
  O  O321  1  0.50362192  0.60708221  -0.00279117  1
  O  O322  1  0.50813179  0.61550405  0.49253079  1
  O  O323  1  0.49561070  0.37788686  0.49296413  1
  O  O324  1  0.48997284  0.38119891  0.99394329  1
  O  O325  1  0.48795250  0.87585452  0.50013968  1
  O  O326  1  0.49924285  0.87680305  0.99728450  1
  O  O327  1  0.98481412  0.37280446  0.49114247  1
  O  O328  1  0.99291240  0.38292162  0.99457318  1
  O  O329  1  0.98254936  0.87721922  0.50993552  1
  O  O330  1  1.00844074  0.88477811  1.01899478  1
  O  O331  1  0.49379831  0.48695687  0.38524190  1
  O  O332  1  0.49078724  0.48996417  0.87983869  1
  O  O333  1  0.48653034  0.99916214  0.37583580  1
  O  O334  1  0.49055279  0.99576437  0.87583252  1
  O  O335  1  0.99264478  0.49334336  0.37346767  1
  O  O336  1  1.00556760  0.48879274  0.88383207  1
  O  O337  1  1.01124950  0.99026623  0.37368220  1
  O  O338  1  0.98609192  0.99561732  0.87770999  1
  O  O339  1  0.00051534  0.02094584  0.12726721  1
  O  O340  1  0.00275549  0.01250134  0.62830613  1
  O  O341  1  -0.00137818  0.50553148  0.11489750  1
  O  O342  1  0.00943450  0.51481008  0.62644601  1
  O  O343  1  0.50963618  0.00804535  0.12653410  1
  O  O344  1  0.49932632  0.01032133  0.62442547  1
  O  O345  1  0.49459034  0.49546334  0.11481689  1
  O  O346  1  0.50374400  0.49239334  0.61041730  1
  O  O347  1  0.24928663  0.38401215  0.24112188  1
  O  O348  1  0.24324369  0.38266354  0.74205689  1
  O  O349  1  0.25917080  0.88211306  0.24030028  1
  O  O350  1  0.24310844  0.88376964  0.74813730  1
  O  O351  1  0.74078052  0.38999827  0.25540415  1
  O  O352  1  0.73416778  0.36697604  0.75417294  1
  O  O353  1  0.74331779  0.88994192  0.25653974  1
  O  O354  1  0.74189972  0.87655292  0.74247971  1
  O  O355  1  0.25822059  0.11987152  0.25742658  1
  O  O356  1  0.24796445  0.11056384  0.75117924  1
  O  O357  1  0.25684671  0.61903066  0.25385287  1
  O  O358  1  0.24772194  0.61398568  0.74661892  1
  O  O359  1  0.74889278  0.11805117  0.26100862  1
  O  O360  1  0.75856968  0.11397951  0.74743682  1
  O  O361  1  0.75777890  0.61203859  0.24986163  1
  O  O362  1  0.77130992  0.63309756  0.74941740  1
  O  O363  1  0.36907151  0.11862050  0.37307802  1
  O  O364  1  0.37051262  0.11573330  0.87168988  1
  O  O365  1  0.36451031  0.62101212  0.36659464  1
  O  O366  1  0.37889815  0.60871319  0.87438050  1
  O  O367  1  0.86285490  0.13337787  0.37796518  1
  O  O368  1  0.88134276  0.11996321  0.86562778  1
  O  O369  1  0.88528325  0.62010414  0.36167522  1
  O  O370  1  0.88048163  0.62868248  0.86108307  1
  O  O371  1  0.13835752  0.36599048  0.12424408  1
  O  O372  1  0.12620685  0.38310461  0.62974576  1
  O  O373  1  0.14991450  0.88138804  0.12364641  1
  O  O374  1  0.13045503  0.87984171  0.63405070  1
  O  O375  1  0.61773957  0.37058915  0.13846200  1
  O  O376  1  0.62026470  0.36649473  0.64012219  1
  O  O377  1  0.62404937  0.88369169  0.13988574  1
  O  O378  1  0.63641730  0.87611300  0.62864161  1
  O  O379  1  0.12709501  0.25606926  0.26542901  1
  O  O380  1  0.11682160  0.25853952  0.75496381  1
  O  O381  1  0.13159623  0.74794367  0.25841724  1
  O  O382  1  0.12026372  0.75302994  0.75875899  1
  O  O383  1  0.62031704  0.25766329  0.25536443  1
  O  O384  1  0.61798995  0.25496686  0.75721940  1
  O  O385  1  0.61963422  0.75605621  0.25519096  1
  O  O386  1  0.62115259  0.75270485  0.75322384  1
  O  O387  1  0.38173314  0.24560984  0.24357484  1
  O  O388  1  0.37934539  0.24732197  0.74268756  1
  O  O389  1  0.38921946  0.74293838  0.25365559  1
  O  O390  1  0.38689653  0.75328560  0.74085998  1
  O  O391  1  0.86938809  0.25256358  0.24034401  1
  O  O392  1  0.87856723  0.24387286  0.74769978  1
  O  O393  1  0.86287284  0.74096723  0.23682736  1
  O  O394  1  0.88550821  0.74477437  0.74777909  1
  O  O395  1  0.38147007  0.49585849  0.49425401  1
  O  O396  1  0.38365145  0.49204435  0.98898460  1
  O  O397  1  0.37353006  0.99073605  0.49275533  1
  O  O398  1  0.37515446  1.00012891  0.98817311  1
  O  O399  1  0.87122324  0.49698416  0.49343514  1
  O  O400  1  0.88319338  0.49246981  1.00319501  1
  O  O401  1  0.87384881  0.98600275  0.50186294  1
  O  O402  1  0.87063373  1.00662115  0.98505738  1
  O  O403  1  0.12434085  0.01362863  0.00310501  1
  O  O404  1  0.12488547  0.00628855  0.51009421  1
  O  O405  1  0.11730861  0.51091898  -0.00392280  1
  O  O406  1  0.13240503  0.49950522  0.51315195  1
  O  O407  1  0.63024087  -0.00633613  0.01440217  1
  O  O408  1  0.62303741  0.00947508  0.50083297  1
  O  O409  1  0.60753149  0.49315858  -0.00431066  1
  O  O410  1  0.61857645  0.50904667  0.49937505  1
  O  O411  1  0.36712119  0.36602690  0.11678125  1
  O  O412  1  0.36945093  0.36935507  0.61913740  1
  O  O413  1  0.36110720  0.88148442  0.12006472  1
  O  O414  1  0.36823044  0.86965790  0.61875407  1
  O  O415  1  0.87963986  0.36427263  0.11375218  1
  O  O416  1  0.88190410  0.36651862  0.61930480  1
  O  O417  1  0.87001479  0.86140021  0.12706766  1
  O  O418  1  0.86310794  0.87277783  0.62356398  1
  O  O419  1  0.13040421  0.13590365  0.38165166  1
  O  O420  1  0.12495293  0.13494799  0.88310678  1
  O  O421  1  0.13751095  0.63687976  0.37193808  1
  O  O422  1  0.12044090  0.63270386  0.88410863  1
  O  O423  1  0.62950226  0.13028907  0.38252173  1
  O  O424  1  0.61870640  0.13649345  0.87065254  1
  O  O425  1  0.62741164  0.63899028  0.38690709  1
  O  O426  1  0.62753513  0.63519326  0.87565633  1
