# generated using pymatgen
data_V85Zn86O256
_symmetry_space_group_name_H-M   'P 1'
_cell_length_a   16.96282846
_cell_length_b   16.95754020
_cell_length_c   16.96148634
_cell_angle_alpha   90.05676957
_cell_angle_beta   90.08190634
_cell_angle_gamma   89.93693153
_symmetry_Int_Tables_number   1
_chemical_formula_structural   V85Zn86O256
_chemical_formula_sum   'V85 Zn86 O256'
_cell_volume   4878.92467329
_cell_formula_units_Z   1
loop_
 _symmetry_equiv_pos_site_id
 _symmetry_equiv_pos_as_xyz
  1  'x, y, z'
loop_
 _atom_site_type_symbol
 _atom_site_label
 _atom_site_symmetry_multiplicity
 _atom_site_fract_x
 _atom_site_fract_y
 _atom_site_fract_z
 _atom_site_occupancy
  V  V0  1  0.50423986  0.50078610  0.01261321  1
  V  V1  1  0.61675677  0.74486819  0.86718921  1
  V  V2  1  0.87973810  0.88099893  -0.00035148  1
  V  V3  1  0.00787118  0.24713128  0.25347363  1
  V  V4  1  0.37024541  -0.00111545  0.36591012  1
  V  V5  1  0.88052317  0.50718849  0.87059897  1
  V  V6  1  0.87898130  0.73652748  0.62703778  1
  V  V7  1  0.37525429  0.74398176  0.12471620  1
  V  V8  1  0.00655943  0.11369043  0.11754686  1
  V  V9  1  0.50017030  0.24858002  0.24786944  1
  V  V10  1  0.74208373  0.87629624  0.12110604  1
  V  V11  1  0.74930081  0.50970256  0.75144373  1
  V  V12  1  0.12027775  0.50993110  0.62908043  1
  V  V13  1  0.38427815  0.62875399  0.75139239  1
  V  V14  1  -0.00336704  0.50197568  0.50277217  1
  V  V15  1  0.75179690  0.24952974  0.49872428  1
  V  V16  1  0.00612447  0.24632475  0.75547672  1
  V  V17  1  -0.01038954  0.61920437  0.11890589  1
  V  V18  1  0.49096551  0.49597006  0.50352997  1
  V  V19  1  0.75104384  -0.00295543  0.74990885  1
  V  V20  1  0.25205627  0.50307072  0.75257893  1
  V  V21  1  0.12102916  0.61824334  0.00088803  1
  V  V22  1  0.87748574  0.12796750  0.24779130  1
  V  V23  1  0.38080500  0.75055172  0.62625570  1
  V  V24  1  0.75096639  0.12297222  0.37498854  1
  V  V25  1  0.50142670  -0.00229717  0.49593261  1
  V  V26  1  0.24581457  0.38537007  0.12797560  1
  V  V27  1  0.37558539  0.37546294  -0.00033008  1
  V  V28  1  0.62733496  0.38530386  0.24755112  1
  V  V29  1  0.62657115  -0.00139895  0.62333991  1
  V  V30  1  0.37478918  0.25175219  0.61889987  1
  V  V31  1  0.74405833  0.00072680  0.24397365  1
  V  V32  1  0.50441529  0.37753750  0.87439975  1
  V  V33  1  0.37049105  0.12302582  0.74734912  1
  V  V34  1  0.25169513  0.37450511  0.62361002  1
  V  V35  1  0.37468409  0.87245585  0.49764163  1
  V  V36  1  0.12646791  0.62374793  0.49489697  1
  V  V37  1  0.87767648  0.12276526  0.74879878  1
  V  V38  1  0.24476066  0.75144816  0.00128062  1
  V  V39  1  0.00112716  0.73838906  0.74558020  1
  V  V40  1  0.24782777  0.25267009  0.49357139  1
  V  V41  1  0.87917723  -0.00742014  0.37531891  1
  V  V42  1  0.12469238  0.88606729  0.24942237  1
  V  V43  1  0.24537487  0.12815307  0.87246948  1
  V  V44  1  0.62771547  0.25321359  0.87089183  1
  V  V45  1  0.50727301  -0.00196440  -0.00035704  1
  V  V46  1  0.23831265  0.25029414  -0.00321704  1
  V  V47  1  0.24682872  0.12415472  0.36663591  1
  V  V48  1  0.48901992  0.37286403  0.37851621  1
  V  V49  1  0.75073899  0.25002626  0.00347908  1
  V  V50  1  0.12496657  0.37852341  0.26089726  1
  V  V51  1  0.12650577  0.12807140  0.49938660  1
  V  V52  1  0.87904736  0.75099783  0.12603119  1
  V  V53  1  0.74864739  0.36890677  0.63686727  1
  V  V54  1  0.00683689  0.11832312  0.62560498  1
  V  V55  1  0.50536633  0.73986710  0.24602294  1
  V  V56  1  0.00329503  0.37348396  0.88127923  1
  V  V57  1  0.61756850  0.87026763  0.74748537  1
  V  V58  1  0.24816632  0.89003786  0.12867855  1
  V  V59  1  0.62358997  0.87359507  0.25496399  1
  V  V60  1  0.37322978  0.24857208  0.12292452  1
  V  V61  1  0.12770524  0.88457890  0.74254258  1
  V  V62  1  0.24830252  0.88651691  0.62443251  1
  V  V63  1  0.74748234  0.38963331  0.12679749  1
  V  V64  1  0.87362747  0.37823549  0.49476540  1
  V  V65  1  0.12537399  0.75022068  0.37109899  1
  V  V66  1  0.12725496  0.36972801  0.75537348  1
  V  V67  1  0.00197277  0.88059875  0.87654036  1
  V  V68  1  0.62589667  0.12267328  0.49894195  1
  V  V69  1  0.87699623  0.38257154  -0.00138430  1
  V  V70  1  -0.00049708  0.75002359  0.25096046  1
  V  V71  1  0.00877659  -0.00448250  0.49889294  1
  V  V72  1  0.37408867  -0.00038900  0.86911843  1
  V  V73  1  0.36408744  0.61916596  0.25502585  1
  V  V74  1  0.75041866  0.12446582  0.87486693  1
  V  V75  1  0.62336969  0.25006389  0.37379846  1
  V  V76  1  0.50742330  0.12139482  0.12368144  1
  V  V77  1  0.37583922  0.87408329  -0.00077387  1
  V  V78  1  0.61999425  0.49265775  0.63106084  1
  V  V79  1  0.61994497  0.62252062  0.00754213  1
  V  V80  1  0.25338798  0.74674096  0.49646443  1
  V  V81  1  0.50311114  0.25280403  0.74806255  1
  V  V82  1  0.87987641  0.87204718  0.50410984  1
  V  V83  1  0.12728477  0.74925176  0.87272936  1
  V  V84  1  0.74943260  0.74791175  -0.00268313  1
  Zn  Zn85  1  0.36995056  0.11879084  0.24350246  1
  Zn  Zn86  1  0.18812549  0.55949761  0.31069678  1
  Zn  Zn87  1  0.63265965  0.61945253  0.49228837  1
  Zn  Zn88  1  0.50280266  0.62846628  0.62517885  1
  Zn  Zn89  1  0.62886751  0.12013254  0.00231236  1
  Zn  Zn90  1  0.87974037  0.24900742  0.62368118  1
  Zn  Zn91  1  0.49748466  0.87223704  0.87047118  1
  Zn  Zn92  1  0.49927016  0.12560263  0.62322934  1
  Zn  Zn93  1  0.74556818  0.74406867  0.48774297  1
  Zn  Zn94  1  0.25330090  0.62571901  0.87600415  1
  Zn  Zn95  1  0.37894233  0.50257469  0.87582457  1
  Zn  Zn96  1  0.50148952  0.87362123  0.37121944  1
  Zn  Zn97  1  0.87593566  0.24927534  0.12414506  1
  Zn  Zn98  1  0.85531929  0.61216600  0.25442734  1
  Zn  Zn99  1  0.36340684  0.49880880  0.38007366  1
  Zn  Zn100  1  0.00211481  0.36437430  0.38229054  1
  Zn  Zn101  1  0.75387587  0.62565787  0.87367885  1
  Zn  Zn102  1  0.12081042  0.50372417  0.13211322  1
  Zn  Zn103  1  0.12441862  0.11150969  -0.00163871  1
  Zn  Zn104  1  0.87872963  0.00134584  0.87735536  1
  Zn  Zn105  1  0.75390882  0.87215254  0.62405346  1
  Zn  Zn106  1  0.80637451  0.57387079  0.41407465  1
  Zn  Zn107  1  0.18473922  0.18992225  0.18356910  1
  Zn  Zn108  1  0.18763571  0.18515780  0.68443836  1
  Zn  Zn109  1  0.18425780  0.69376747  0.18029340  1
  Zn  Zn110  1  0.19403636  0.69077780  0.68564265  1
  Zn  Zn111  1  0.68874990  0.19213142  0.18736030  1
  Zn  Zn112  1  0.68642502  0.18466373  0.68681812  1
  Zn  Zn113  1  0.68117172  0.68233392  0.31123734  1
  Zn  Zn114  1  0.67640337  0.69708086  0.66021741  1
  Zn  Zn115  1  0.30848087  0.31099631  0.30744749  1
  Zn  Zn116  1  0.31625355  0.31104555  0.81259676  1
  Zn  Zn117  1  0.31145416  0.80995332  0.31098920  1
  Zn  Zn118  1  0.31156082  0.81284170  0.80945358  1
  Zn  Zn119  1  0.81691645  0.43271420  0.30810335  1
  Zn  Zn120  1  0.81940254  0.30949053  0.81340182  1
  Zn  Zn121  1  0.81331081  0.81242877  0.31346066  1
  Zn  Zn122  1  0.81391003  0.81079626  0.81064876  1
  Zn  Zn123  1  0.18637888  0.43542173  0.44125148  1
  Zn  Zn124  1  0.18830262  0.43750828  0.93697850  1
  Zn  Zn125  1  0.18818063  0.93523803  0.43312548  1
  Zn  Zn126  1  0.19383286  0.93769063  0.93063724  1
  Zn  Zn127  1  0.67936423  0.43375580  0.44272065  1
  Zn  Zn128  1  0.69033751  0.43948224  0.93744371  1
  Zn  Zn129  1  0.69434609  0.93147838  0.43571413  1
  Zn  Zn130  1  0.68735477  0.93408483  0.93241608  1
  Zn  Zn131  1  0.31766957  0.06411016  0.05512348  1
  Zn  Zn132  1  0.31465437  0.06376309  0.55701315  1
  Zn  Zn133  1  0.31460009  0.56402343  0.06061709  1
  Zn  Zn134  1  0.31198682  0.56395345  0.56350121  1
  Zn  Zn135  1  0.81471392  0.06167128  0.06366962  1
  Zn  Zn136  1  0.81701648  0.06059116  0.56429255  1
  Zn  Zn137  1  0.74360165  0.60602729  0.12743103  1
  Zn  Zn138  1  0.81167083  0.56042871  0.57881247  1
  Zn  Zn139  1  0.43716677  0.43508044  0.18937385  1
  Zn  Zn140  1  0.43440901  0.43476936  0.69073446  1
  Zn  Zn141  1  0.43789470  0.93539875  0.18225202  1
  Zn  Zn142  1  0.43731687  0.93853711  0.68297066  1
  Zn  Zn143  1  0.94390543  0.43192961  0.17681006  1
  Zn  Zn144  1  0.93567612  0.43486566  0.68720541  1
  Zn  Zn145  1  0.93507290  0.93438852  0.19168147  1
  Zn  Zn146  1  0.94180037  0.93525337  0.68744579  1
  Zn  Zn147  1  0.06161315  0.06581307  0.31729930  1
  Zn  Zn148  1  0.06682256  0.05933245  0.81505865  1
  Zn  Zn149  1  -0.00830918  0.54779913  0.30811662  1
  Zn  Zn150  1  0.06402881  0.55969734  0.81666619  1
  Zn  Zn151  1  0.56181142  0.06120504  0.30981691  1
  Zn  Zn152  1  0.56119972  0.06511743  0.81232927  1
  Zn  Zn153  1  0.55666635  0.55612725  0.31114945  1
  Zn  Zn154  1  0.56890282  0.55927592  0.81061635  1
  Zn  Zn155  1  0.43484531  0.18445731  0.43597378  1
  Zn  Zn156  1  0.43705071  0.18683059  0.93753279  1
  Zn  Zn157  1  0.47846468  0.66829290  0.41496980  1
  Zn  Zn158  1  0.43836993  0.68680190  0.93688348  1
  Zn  Zn159  1  0.93579607  0.18587465  0.43594738  1
  Zn  Zn160  1  0.93676845  0.18921478  0.93718839  1
  Zn  Zn161  1  0.94616511  0.68950249  0.43794610  1
  Zn  Zn162  1  0.93932329  0.69272115  0.93698696  1
  Zn  Zn163  1  0.06188073  0.30887489  0.06953384  1
  Zn  Zn164  1  0.06470651  0.31148582  0.56873646  1
  Zn  Zn165  1  0.06437438  0.93495505  0.06073438  1
  Zn  Zn166  1  0.06262934  0.81053836  0.56265863  1
  Zn  Zn167  1  0.56604638  0.31196430  0.06148106  1
  Zn  Zn168  1  0.56366832  0.31436501  0.56137323  1
  Zn  Zn169  1  0.56273927  0.80903208  0.06269305  1
  Zn  Zn170  1  0.56509376  0.81117355  0.55772961  1
  O  O171  1  0.11034085  0.12339618  0.12347914  1
  O  O172  1  0.12058437  0.12278367  0.61284829  1
  O  O173  1  0.11566514  0.62543748  0.11597010  1
  O  O174  1  0.13051859  0.61345819  0.62340463  1
  O  O175  1  0.61148165  0.13131920  0.12233551  1
  O  O176  1  0.62188670  0.11513328  0.61799609  1
  O  O177  1  0.62353532  0.62850654  0.10510856  1
  O  O178  1  0.61901662  0.60101645  0.63497990  1
  O  O179  1  0.38644301  0.37459407  0.36393963  1
  O  O180  1  0.38588865  0.37489393  0.88276441  1
  O  O181  1  0.37214261  0.88321402  0.38055830  1
  O  O182  1  0.37650723  0.88233235  0.87653557  1
  O  O183  1  0.87710873  0.37196509  0.39188577  1
  O  O184  1  0.88584167  0.37763681  0.87906686  1
  O  O185  1  0.87480419  0.88720034  0.38151688  1
  O  O186  1  0.88523894  0.87301323  0.88106517  1
  O  O187  1  0.25970673  0.01105716  0.38250322  1
  O  O188  1  0.26728624  0.00977992  0.87565435  1
  O  O189  1  0.25161975  0.49928782  0.37960214  1
  O  O190  1  0.25196158  0.50056136  0.86256020  1
  O  O191  1  0.75755140  0.00457458  0.36697771  1
  O  O192  1  0.75047120  0.00656836  0.86586132  1
  O  O193  1  0.74556673  0.49020597  0.37365692  1
  O  O194  1  0.75926074  0.49943402  0.86698568  1
  O  O195  1  0.24806831  0.48778296  0.11932014  1
  O  O196  1  0.24496878  0.49221966  0.63532361  1
  O  O197  1  0.26174370  0.98888857  0.12147681  1
  O  O198  1  0.25682418  0.98592502  0.61797582  1
  O  O199  1  0.75024124  0.48697410  0.11623482  1
  O  O200  1  0.74377100  0.48728229  0.63515004  1
  O  O201  1  0.75541758  0.99099155  0.13365098  1
  O  O202  1  0.74471695  0.99860058  0.63291414  1
  O  O203  1  0.00817477  0.36258371  0.24860577  1
  O  O204  1  0.00807182  0.36465338  0.75514160  1
  O  O205  1  0.01463340  0.86382800  0.24139197  1
  O  O206  1  0.01333924  0.86739275  0.75350027  1
  O  O207  1  0.50646791  0.36553360  0.25334789  1
  O  O208  1  0.49370046  0.36091233  0.75957723  1
  O  O209  1  0.51059469  0.87208713  0.24543850  1
  O  O210  1  0.51424624  0.88176836  0.74933620  1
  O  O211  1  0.49705865  0.13028374  0.24135794  1
  O  O212  1  0.49047649  0.13704974  0.74883645  1
  O  O213  1  0.49112991  0.63716415  0.24373841  1
  O  O214  1  0.48750131  0.61646889  0.74805868  1
  O  O215  1  0.99669500  0.12602580  0.24149425  1
  O  O216  1  1.00156206  0.12736533  0.74515469  1
  O  O217  1  1.00045973  0.63973299  0.23486693  1
  O  O218  1  1.00622618  0.64011172  0.75546942  1
  O  O219  1  0.37134216  0.25559629  0.00929504  1
  O  O220  1  0.36870322  0.24314255  0.51338258  1
  O  O221  1  0.36754906  0.75354087  0.00403449  1
  O  O222  1  0.36635334  0.75688318  0.50637334  1
  O  O223  1  0.86253981  0.25840090  -0.00411987  1
  O  O224  1  0.86664323  0.25324070  0.50260254  1
  O  O225  1  0.86769221  0.75998825  0.00271370  1
  O  O226  1  0.88349561  0.75503164  0.51330125  1
  O  O227  1  0.13568540  0.24124044  0.50560352  1
  O  O228  1  0.13681112  0.24580467  1.00419214  1
  O  O229  1  0.12828064  0.74355592  0.49314988  1
  O  O230  1  0.13761477  0.74415029  0.98878077  1
  O  O231  1  0.63041924  0.24258313  0.49528901  1
  O  O232  1  0.63732845  0.24732292  0.99205145  1
  O  O233  1  0.64179030  0.73133826  0.54311671  1
  O  O234  1  0.62889534  0.74243344  0.99014080  1
  O  O235  1  0.49287071  0.24498415  0.12673118  1
  O  O236  1  0.49320426  0.25112507  0.63091099  1
  O  O237  1  0.48805787  0.75696563  0.13513726  1
  O  O238  1  0.48391394  0.75161263  0.62130029  1
  O  O239  1  0.99532759  0.23835071  0.13601210  1
  O  O240  1  1.00261945  0.23745426  0.63653130  1
  O  O241  1  0.98548556  0.74392092  0.12799224  1
  O  O242  1  0.99524547  0.75228225  0.63812835  1
  O  O243  1  -0.00347945  0.24542938  0.35933155  1
  O  O244  1  -0.00124579  0.25560038  0.86298847  1
  O  O245  1  0.01209491  0.75027084  0.36316604  1
  O  O246  1  0.00763598  0.75896091  0.86450453  1
  O  O247  1  0.50192207  0.25318478  0.36906801  1
  O  O248  1  0.50709187  0.25628059  0.87011257  1
  O  O249  1  0.48778610  0.76004943  0.34931603  1
  O  O250  1  0.51325786  0.75202351  0.87546596  1
  O  O251  1  0.24351725  0.13202107  0.49440961  1
  O  O252  1  0.25111452  0.13357079  0.99085820  1
  O  O253  1  0.23769347  0.63394908  0.50888266  1
  O  O254  1  0.24360093  0.63425577  0.99858477  1
  O  O255  1  0.74610257  0.12858301  0.49771165  1
  O  O256  1  0.75044644  0.13122820  0.99452595  1
  O  O257  1  0.75293348  0.62246763  0.50223588  1
  O  O258  1  0.73770741  0.63446755  1.00315434  1
  O  O259  1  0.25409685  0.36809926  0.00458226  1
  O  O260  1  0.24283807  0.36445380  0.51253670  1
  O  O261  1  0.25642254  0.86803625  0.00490106  1
  O  O262  1  0.25276930  0.86829164  0.50668697  1
  O  O263  1  0.75423758  0.36853000  0.00748304  1
  O  O264  1  0.75483685  0.36474008  0.50891653  1
  O  O265  1  0.75330913  0.86993845  0.00397201  1
  O  O266  1  0.76669620  0.87094309  0.50265776  1
  O  O267  1  0.11104443  0.49283705  0.25202966  1
  O  O268  1  0.13166991  0.49413168  0.74557517  1
  O  O269  1  0.12027001  0.98427074  0.26061354  1
  O  O270  1  0.12575873  0.98316019  0.75070105  1
  O  O271  1  0.61472474  0.48396175  0.24665605  1
  O  O272  1  0.63693790  0.49021219  0.74696180  1
  O  O273  1  0.63740565  0.99418509  0.25096204  1
  O  O274  1  0.63135946  0.99678297  0.74355504  1
  O  O275  1  0.38069670  -0.00052393  0.26232211  1
  O  O276  1  0.38364891  0.01135463  0.75511900  1
  O  O277  1  0.37960678  0.51792556  0.24479336  1
  O  O278  1  0.36686033  0.50681588  0.75183973  1
  O  O279  1  0.86813261  0.00493234  0.25783525  1
  O  O280  1  0.86747418  0.00367972  0.75031672  1
  O  O281  1  0.89575609  0.49800670  0.25519969  1
  O  O282  1  0.86509218  0.49105260  0.75944927  1
  O  O283  1  0.12537938  0.37033982  0.36382950  1
  O  O284  1  0.11813479  0.37934806  0.86452639  1
  O  O285  1  0.13256525  0.86221219  0.36190941  1
  O  O286  1  0.12296684  0.86474119  0.86399897  1
  O  O287  1  0.61435620  0.36585640  0.36677884  1
  O  O288  1  0.61974416  0.36124460  0.88087319  1
  O  O289  1  0.62511856  0.87883064  0.35936421  1
  O  O290  1  0.62379312  0.86487664  0.86441846  1
  O  O291  1  0.38312648  0.13315487  0.12399273  1
  O  O292  1  0.37686856  0.13128160  0.63096843  1
  O  O293  1  0.36873791  0.63810723  0.13126533  1
  O  O294  1  0.37500081  0.63401039  0.63319807  1
  O  O295  1  0.88611302  0.12294051  0.13151081  1
  O  O296  1  0.88624106  0.12632308  0.63152691  1
  O  O297  1  0.87588340  0.63644404  0.12664476  1
  O  O298  1  0.88252934  0.63795541  0.62744400  1
  O  O299  1  0.25703532  0.25495208  0.11601670  1
  O  O300  1  0.25639644  0.25540614  0.61816620  1
  O  O301  1  0.25493936  0.75934419  0.11494021  1
  O  O302  1  0.25702582  0.75913760  0.61468385  1
  O  O303  1  0.75473532  0.25406858  0.11526481  1
  O  O304  1  0.74899135  0.25208851  0.61556112  1
  O  O305  1  0.76131439  0.76038380  0.10920549  1
  O  O306  1  0.77479274  0.75393746  0.63591153  1
  O  O307  1  0.25969903  0.24244374  0.38824529  1
  O  O308  1  0.25989711  0.24120349  0.88534347  1
  O  O309  1  0.24556064  0.75348994  0.38957528  1
  O  O310  1  0.24269345  0.75039781  0.88069491  1
  O  O311  1  0.74259132  0.24043321  0.39030329  1
  O  O312  1  0.74433785  0.24555692  0.87868504  1
  O  O313  1  0.74817657  0.74927126  0.37481963  1
  O  O314  1  0.74648765  0.74865202  0.88426497  1
  O  O315  1  0.00026490  0.13060797  0.01440717  1
  O  O316  1  0.00727595  0.12121852  0.50687196  1
  O  O317  1  0.00958280  0.63642596  0.00749083  1
  O  O318  1  0.01649082  0.61653526  0.50158328  1
  O  O319  1  0.50121723  0.11714661  0.00562960  1
  O  O320  1  0.50732867  0.11564270  0.49909501  1
  O  O321  1  0.51083712  0.61582578  -0.00737484  1
  O  O322  1  0.50236554  0.61019645  0.50843870  1
  O  O323  1  0.50165908  0.37840759  0.48828086  1
  O  O324  1  0.49807199  0.37970398  0.99307213  1
  O  O325  1  0.49699111  0.88055975  0.49445936  1
  O  O326  1  0.49421572  0.88072949  0.99823371  1
  O  O327  1  0.99046925  0.37576758  0.50668108  1
  O  O328  1  0.99320532  0.36268608  0.98989399  1
  O  O329  1  0.99237301  0.88337155  0.50443566  1
  O  O330  1  0.99205899  0.87209731  0.99029478  1
  O  O331  1  0.49241275  0.48883707  0.38458375  1
  O  O332  1  0.50359179  0.48562744  0.87728382  1
  O  O333  1  0.49414131  0.99852728  0.38316005  1
  O  O334  1  0.49064743  1.00043431  0.88030529  1
  O  O335  1  1.01130392  0.48468010  0.40013990  1
  O  O336  1  0.99301958  0.48569472  0.86792567  1
  O  O337  1  0.98967793  1.00734013  0.38629165  1
  O  O338  1  0.99771604  0.98513239  0.86762228  1
  O  O339  1  -0.00323146  0.00954516  0.12611913  1
  O  O340  1  -0.00312850  0.01150911  0.61671200  1
  O  O341  1  -0.00088673  0.51581095  0.11848013  1
  O  O342  1  0.01160527  0.49178681  0.61941186  1
  O  O343  1  0.49299086  0.00974641  0.11294257  1
  O  O344  1  0.50631377  0.00055579  0.61055321  1
  O  O345  1  0.50043674  0.49079142  0.11118723  1
  O  O346  1  0.50539839  0.48861797  0.62070107  1
  O  O347  1  0.23831096  0.36965982  0.23899578  1
  O  O348  1  0.24421538  0.37954388  0.74758776  1
  O  O349  1  0.23702093  0.86860282  0.24026740  1
  O  O350  1  0.23617012  0.86838700  0.74039296  1
  O  O351  1  0.74480484  0.37432337  0.23452301  1
  O  O352  1  0.75557998  0.37078238  0.73887834  1
  O  O353  1  0.74402986  0.88169037  0.24041312  1
  O  O354  1  0.74361258  0.88657131  0.75123861  1
  O  O355  1  0.24849406  0.13285751  0.26296368  1
  O  O356  1  0.26266981  0.13253542  0.75546686  1
  O  O357  1  0.25905621  0.62883121  0.24622983  1
  O  O358  1  0.25820063  0.61693616  0.75075254  1
  O  O359  1  0.75682774  0.11781350  0.25118491  1
  O  O360  1  0.75513343  0.11511864  0.75332426  1
  O  O361  1  0.74615896  0.62601173  0.23763436  1
  O  O362  1  0.74906430  0.61044356  0.74865280  1
  O  O363  1  0.36584012  0.11625772  0.37221695  1
  O  O364  1  0.37032248  0.12020443  0.86651916  1
  O  O365  1  0.38075036  0.62330548  0.35715300  1
  O  O366  1  0.37273746  0.62383478  0.86670861  1
  O  O367  1  0.86854080  0.11468504  0.36886093  1
  O  O368  1  0.86937839  0.12257047  0.86787480  1
  O  O369  1  0.89857726  0.61643123  0.36532345  1
  O  O370  1  0.87625258  0.61088526  0.88165881  1
  O  O371  1  0.13037220  0.38035595  0.13123454  1
  O  O372  1  0.13477755  0.38142589  0.63729020  1
  O  O373  1  0.13370304  0.87919914  0.13796010  1
  O  O374  1  0.13141841  0.87068685  0.63530803  1
  O  O375  1  0.63976363  0.36715598  0.13178401  1
  O  O376  1  0.63607608  0.38037834  0.62247788  1
  O  O377  1  0.63777654  0.86971047  0.13044032  1
  O  O378  1  0.63011578  0.88320426  0.63095762  1
  O  O379  1  0.11648962  0.25912361  0.24444387  1
  O  O380  1  0.12038608  0.25890995  0.74596202  1
  O  O381  1  0.11976668  0.75430005  0.25541424  1
  O  O382  1  0.11847907  0.75374643  0.75422945  1
  O  O383  1  0.61922712  0.25430809  0.25672717  1
  O  O384  1  0.61554290  0.24408416  0.75746492  1
  O  O385  1  0.60986129  0.75669940  0.24420558  1
  O  O386  1  0.63368641  0.75918227  0.75350548  1
  O  O387  1  0.37966757  0.24789655  0.23547854  1
  O  O388  1  0.38102109  0.24367736  0.73893760  1
  O  O389  1  0.37791999  0.74184469  0.24089026  1
  O  O390  1  0.36856675  0.74064204  0.74026113  1
  O  O391  1  0.88101607  0.23085324  0.24876308  1
  O  O392  1  0.88664040  0.24020604  0.74725127  1
  O  O393  1  0.88572771  0.76039903  0.24021608  1
  O  O394  1  0.89258536  0.75601774  0.74202923  1
  O  O395  1  0.38604357  0.50002463  0.50362446  1
  O  O396  1  0.38447947  0.49461542  0.99687042  1
  O  O397  1  0.38539749  0.99444659  0.49180984  1
  O  O398  1  0.38522464  0.99343093  0.98937297  1
  O  O399  1  0.88321792  0.49357199  0.51028975  1
  O  O400  1  0.87181975  0.48260231  0.98533236  1
  O  O401  1  0.88342157  0.99279479  0.49455521  1
  O  O402  1  0.86840664  0.98509109  0.99597790  1
  O  O403  1  0.12384059  -0.00184403  -0.00882175  1
  O  O404  1  0.11320885  0.00344029  0.49391169  1
  O  O405  1  0.12943270  0.51578658  -0.00195485  1
  O  O406  1  0.12216188  0.50624869  0.51193704  1
  O  O407  1  0.61154432  -0.00014697  -0.00857508  1
  O  O408  1  0.62115865  0.00037152  0.50247282  1
  O  O409  1  0.61968972  0.51417843  -0.00814800  1
  O  O410  1  0.61223228  0.49713212  0.51259404  1
  O  O411  1  0.36627313  0.36839386  0.12078437  1
  O  O412  1  0.35993754  0.36604650  0.63239847  1
  O  O413  1  0.36694091  0.86478478  0.12027827  1
  O  O414  1  0.36828947  0.86953735  0.61979348  1
  O  O415  1  0.86574894  0.37134753  0.11551704  1
  O  O416  1  0.86531356  0.36914997  0.61712246  1
  O  O417  1  0.86817065  0.87085809  0.11743100  1
  O  O418  1  0.87768835  0.86919083  0.61714501  1
  O  O419  1  0.13333773  0.12230533  0.38838390  1
  O  O420  1  0.14177364  0.12275231  0.87264600  1
  O  O421  1  0.12955559  0.63703388  0.38232057  1
  O  O422  1  0.12608583  0.63578155  0.88024507  1
  O  O423  1  0.63107174  0.12844317  0.37899060  1
  O  O424  1  0.63148556  0.13579492  0.87657160  1
  O  O425  1  0.59891363  0.63489522  0.37954807  1
  O  O426  1  0.63119255  0.63279691  0.87719258  1
